                                  MODFLOW-2005     
      U.S. GEOLOGICAL SURVEY MODULAR FINITE-DIFFERENCE GROUND-WATER FLOW MODEL
                            VERSION 1.11.00 8/8/2013

 LIST FILE: supply2.lst
                         UNIT   10

 OPENING ..\data\supply.dis
 FILE TYPE:DIS   UNIT   11   STATUS:OLD    
 FORMAT:FORMATTED              ACCESS:SEQUENTIAL          

 OPENING ..\data\supply.ba6
 FILE TYPE:BAS6   UNIT   12   STATUS:OLD    
 FORMAT:FORMATTED              ACCESS:SEQUENTIAL          

 OPENING ..\data\supply_het.bc6
 FILE TYPE:BCF6   UNIT   13   STATUS:OLD    
 FORMAT:FORMATTED              ACCESS:SEQUENTIAL          

 OPENING ..\data\supply.rch
 FILE TYPE:RCH   UNIT   15   STATUS:OLD    
 FORMAT:FORMATTED              ACCESS:SEQUENTIAL          

 OPENING ..\data\supply2.sfr
 FILE TYPE:SFR   UNIT   16   STATUS:OLD    
 FORMAT:FORMATTED              ACCESS:SEQUENTIAL          

 OPENING ..\data\supply.oc
 FILE TYPE:OC   UNIT   17   STATUS:OLD    
 FORMAT:FORMATTED              ACCESS:SEQUENTIAL          

 OPENING ..\data\supply.pcg
 FILE TYPE:PCG   UNIT   18   STATUS:OLD    
 FORMAT:FORMATTED              ACCESS:SEQUENTIAL          

 OPENING supply2.wel
 FILE TYPE:WEL   UNIT   19   STATUS:OLD    
 FORMAT:FORMATTED              ACCESS:SEQUENTIAL          

 OPENING supply2sf.cbc
 FILE TYPE:DATA(BINARY)   UNIT   50   STATUS:UNKNOWN
 FORMAT:BINARY                 ACCESS:SEQUENTIAL          

 OPENING supply2hd.bhd
 FILE TYPE:DATA(BINARY)   UNIT   51   STATUS:UNKNOWN
 FORMAT:BINARY                 ACCESS:SEQUENTIAL          

 BAS -- BASIC PACKAGE, VERSION 7, 5/2/2005 INPUT READ FROM UNIT   12
 
 MODFLOW was compiled using uniform precision
 Precision of REAL and DOUBLE PRECISION variables:          15

 DISCRETIZATION INPUT DATA READ FROM UNIT   11
    1 LAYERS        25 ROWS        30 COLUMNS
   12 STRESS PERIOD(S) IN SIMULATION
 MODEL TIME UNIT IS DAYS
 MODEL LENGTH UNIT IS UNDEFINED
  Confining bed flag for each layer:
   0

                     DELR =   200.000    

                     DELC =   200.000    

 TOP ELEVATION OF LAYER 1 =  100.0000    

   MODEL LAYER BOTTOM EL. =   0.00000     FOR LAYER   1


 STRESS PERIOD     LENGTH       TIME STEPS     MULTIPLIER FOR DELT    SS FLAG
 ----------------------------------------------------------------------------
        1         92.00000          1                    1.500         TR
        2         91.00000          1                    1.500         TR
        3         91.00000          1                    1.500         TR
        4         91.00000          1                    1.500         TR
        5         92.00000          1                    1.500         TR
        6         91.00000          1                    1.500         TR
        7         91.00000          1                    1.500         TR
        8         91.00000          1                    1.500         TR
        9         92.00000          1                    1.500         TR
       10         91.00000          1                    1.500         TR
       11         91.00000          1                    1.500         TR
       12         91.00000          1                    1.500         TR

 TRANSIENT SIMULATION



 
 #MODOFC transient water supply sample problem                                   
 #                                                                               
 THE FREE FORMAT OPTION HAS BEEN SELECTED



                     BOUNDARY ARRAY FOR LAYER   1
 READING ON UNIT   12 WITH FORMAT: (20I4)              

 AQUIFER HEAD WILL BE SET TO   0.0000     AT ALL NO-FLOW NODES (IBOUND=0).



                       INITIAL HEAD FOR LAYER   1
 READING ON UNIT   12 WITH FORMAT: (10F13.0)           

 OUTPUT CONTROL IS SPECIFIED ONLY AT TIME STEPS FOR WHICH OUTPUT IS DESIRED
 COMPACT CELL-BY-CELL BUDGET FILES WILL BE WRITTEN
 HEAD PRINT FORMAT CODE IS  18    DRAWDOWN PRINT FORMAT CODE IS   0
 HEADS WILL BE SAVED ON UNIT   51    DRAWDOWNS WILL BE SAVED ON UNIT    0

 BCF -- BLOCK-CENTERED FLOW PACKAGE, VERSION 7, 5/2/2005
         INPUT READ FROM UNIT 13
 TRANSIENT SIMULATION
 HEAD AT CELLS THAT CONVERT TO DRY=   0.0000    
 WETTING CAPABILITY IS NOT ACTIVE
      LAYER  LAYER-TYPE CODE     INTERBLOCK T
      --------------------------------------------
         1            0          0 -- HARMONIC    

 COLUMN TO ROW ANISOTROPY =  1.000000    

     PRIMARY STORAGE COEF =  5.000000E-02 FOR LAYER   1



               TRANSMIS. ALONG ROWS FOR LAYER   1
 READING ON UNIT   13 WITH FORMAT: (FREE)              

 WEL -- WELL PACKAGE, VERSION 7, 5/2/2005 INPUT READ FROM UNIT   19
 # Well package input file written by MMProc
 No named parameters
 MAXIMUM OF      4 ACTIVE WELLS AT ONE TIME


     0 Well parameters

 RCH -- RECHARGE PACKAGE, VERSION 7, 5/2/2005 INPUT READ FROM UNIT   15
 No named parameters
 OPTION 1 -- RECHARGE TO TOP LAYER


     0 Recharge parameters

 SFR7 -- STREAMFLOW ROUTING PACKAGE, VERSION 1.0.7, 2013-01-15
         INPUT READ FROM UNIT  16
 #  Supply2 test problem for GWM-VI
 #  The eighth entry in the first data line is ISTCB2 -
 #    Setting this to a negative number indicates that
 #    streamflows out of the reach will be saved to a
 #    binary file.  The absolute value of ISTCB2 is the
 #    unit to which unformatted flows will be written.
 #
 No named parameters
 Segment information will not be 
 read by reach
 No named parameters
 No specifed inflow files


 NUMBER OF STREAM REACHES IS   40

 NUMBER OF STREAM SEGMENTS IS    3

 NUMBER OF STREAM PARAMETERS IS    0

 NUMBER OF STREAM SEGMENTS DEFINED USING PARAMETERS IS              0

 MAXIMUM ERROR FOR STREAM LEAKAGE RATES IS  1.00E-04

 CONSTANT FOR MANNINGS EQUATION IS  1.2839E+05





   STREAM NETWORK DESCRIPTION: 

   LAYER    ROW    COL   SEGMENT   REACH     LENGTH
                          NUMBER   NUMBER    IN CELL        
   --------------------------------------------------
      1     13      1       1        1    2.0000E+02
      1     13      2       1        2    2.0000E+02
      1     14      3       1        3    2.0000E+02
      1     15      4       1        4    2.0000E+02
      1     16      5       1        5    2.0000E+02
      1     16      6       1        6    2.0000E+02
      1     16      7       1        7    2.0000E+02
      1     16      8       1        8    2.0000E+02
      1     16      9       1        9    2.0000E+02
      1     16     10       1       10    2.0000E+02
      1     16     11       1       11    2.0000E+02
      1     16     12       1       12    2.0000E+02
      1     15     13       1       13    2.0000E+02
      1     14     14       1       14    2.0000E+02
      1     13     15       1       15    2.0000E+02
      1     12     16       1       16    2.0000E+02
      1     12     17       1       17    2.0000E+02
      1     12     18       1       18    2.0000E+02
      1     12     19       1       19    2.0000E+02
      1     13     20       1       20    2.0000E+02
      1     14     21       1       21    2.0000E+02
      1     14     22       1       22    2.0000E+02
      1      9     30       2        1    2.0000E+02
      1      9     29       2        2    2.0000E+02
      1      9     28       2        3    2.0000E+02
      1      9     27       2        4    2.0000E+02
      1     10     26       2        5    2.0000E+02
      1     11     25       2        6    2.0000E+02
      1     12     24       2        7    2.0000E+02
      1     13     23       2        8    2.0000E+02
      1     14     22       2        9    2.0000E+02
      1     14     22       3        1    2.0000E+02
      1     15     23       3        2    2.0000E+02
      1     15     24       3        3    2.0000E+02
      1     15     25       3        4    2.0000E+02
      1     15     26       3        5    2.0000E+02
      1     16     27       3        6    2.0000E+02
      1     17     28       3        7    2.0000E+02
      1     18     29       3        8    2.0000E+02
      1     18     30       3        9    2.0000E+02




 PCG -- CONJUGATE-GRADIENT SOLUTION PACKAGE, VERSION 7, 5/2/2005
 MAXIMUM OF    500 CALLS OF SOLUTION ROUTINE
 MAXIMUM OF      5 INTERNAL ITERATIONS PER CALL TO SOLUTION ROUTINE
 MATRIX PRECONDITIONING TYPE :    1



                                    SOLUTION BY THE CONJUGATE-GRADIENT METHOD
                                   -------------------------------------------
                    MAXIMUM NUMBER OF CALLS TO PCG ROUTINE =      500
                        MAXIMUM ITERATIONS PER CALL TO PCG =        5
                               MATRIX PRECONDITIONING TYPE =        1
        RELAXATION FACTOR (ONLY USED WITH PRECOND. TYPE 1) =    0.10000E+01
 PARAMETER OF POLYNOMIAL PRECOND. = 2 (2) OR IS CALCULATED :        0
                         HEAD CHANGE CRITERION FOR CLOSURE =    0.10000E-05
                     RESIDUAL CHANGE CRITERION FOR CLOSURE =    0.10000E+01
            PCG HEAD AND RESIDUAL CHANGE PRINTOUT INTERVAL =        1
     PRINTING FROM SOLVER IS LIMITED(1) OR SUPPRESSED (>1) =        1
                            STEADY-STATE DAMPING PARAMETER =    0.10000E+01
                               TRANSIENT DAMPING PARAMETER =    0.10000E+01
1
                            STRESS PERIOD NO.    1, LENGTH =   92.00000    
                            -----------------------------------------------

                              NUMBER OF TIME STEPS =     1

                               MULTIPLIER FOR DELT =     1.500

                            INITIAL TIME STEP SIZE =   92.00000    

 WELL NO.  LAYER   ROW   COL   STRESS RATE         
 --------------------------------------------------
      1      1     20     21      -6420.    
      2      1     18     16      -7655.    
      3      1     20     18     -0.1052E+05
      4      1      4      9      -6868.    

      4 WELLS

                 RECHARGE =  5.000000E-04



 CLASSIFICATION & COUNT OF STREAM SEGMENTS BASED ON SOURCE OF INFLOW:

                HEADWATER     DIVERSION     RECEIVES TRIBUTARY FLOW
                ---------     ---------     -----------------------
                     2              0               1



                    INPUT DATA FOR EACH STREAM SEGMENT
 ---------------------------------------------------------------------------------------------

 SEGMENT    SEG.     INFLOW   OVERLAND   STREAM    STREAM   ICALC  OUTFLOW  DIVERSION PRIORITY
    NO.    LENGTH     RATE     RUNOFF      ET       PPT.    METH.  TO SEG.  FROM SEG.    NO.

      1  4.400E+03 1.000E+05 0.000E+00 0.000E+00 0.000E+00    1        3        0        0
      2  1.800E+03 5.000E+04 0.000E+00 0.000E+00 0.000E+00    1        3        0        0
      3  1.800E+03 0.000E+00 0.000E+00 0.000E+00 0.000E+00    1        0        0        0


         STREAMBED PROPERTIES AND STREAM DIMENSIONS

 SEGMENT     BED HYD. COND.      BED THICKNESS     ELEV.-TOP OF BED     WIDTH OF STREAM     DEPTH OF STREAM    STREAM ROUGHNESS
    No.     UPPER     LOWER     UPPER     LOWER     UPPER     LOWER     UPPER     LOWER     UPPER     LOWER   CHANNEL      BANK

     1  5.000E+00 5.000E+00 1.000E+00 1.000E+00 4.850E+01 3.800E+01 2.000E+01 2.000E+01                     5.000E-02
     2  5.000E+00 5.000E+00 1.000E+00 1.000E+00 4.025E+01 3.800E+01 2.000E+01 2.000E+01                     5.000E-02
     3  5.000E+00 5.000E+00 1.000E+00 1.000E+00 3.800E+01 3.000E+01 2.000E+01 2.000E+01                     5.000E-02



 
 SOLVING FOR HEAD 


     9 CALLS TO PCG ROUTINE FOR TIME STEP   1 IN STRESS PERIOD    1
    36 TOTAL ITERATIONS

 OUTPUT CONTROL FOR STRESS PERIOD    1   TIME STEP    1
    SAVE BUDGET
    SAVE HEAD FOR ALL LAYERS
    PRINT HEAD FOR ALL LAYERS
 UBDSV2 SAVING "STREAMFLOW OUT  " ON UNIT  50 AT TIME STEP  1, STRESS PERIOD   1



 STREAM LISTING     PERIOD      1   STEP        1

 LAYER ROW COL. STREAM  RCH.  FLOW INTO     FLOW TO   FLOW OUT OF   OVRLND.     DIRECT     STREAM       STREAM     STREAM     STREAM   STREAMBED  STREAMBED
                SEG.NO.  NO.  STRM. RCH.    AQUIFER    STRM. RCH.    RUNOFF     PRECIP       ET          HEAD       DEPTH      WIDTH   CONDCTNC.   GRADIENT

   1   13    1     1     1    1.0000E+05 -6.0499E+03   1.0605E+05  0.000E+00  0.000E+00  0.000E+00  4.84086E+01  1.473E-01  2.000E+01  2.000E+04 -3.025E-01
   1   13    2     1     2    1.0605E+05 -7.5174E+03   1.1357E+05  0.000E+00  0.000E+00  0.000E+00  4.79371E+01  1.530E-01  2.000E+01  2.000E+04 -3.759E-01
   1   14    3     1     3    1.1357E+05 -2.1936E+03   1.1576E+05  0.000E+00  0.000E+00  0.000E+00  4.74638E+01  1.570E-01  2.000E+01  2.000E+04 -1.097E-01
   1   15    4     1     4    1.1576E+05 -2.2641E+03   1.1803E+05  0.000E+00  0.000E+00  0.000E+00  4.69884E+01  1.589E-01  2.000E+01  2.000E+04 -1.132E-01
   1   16    5     1     5    1.1803E+05 -7.1287E+03   1.2515E+05  0.000E+00  0.000E+00  0.000E+00  4.65149E+01  1.627E-01  2.000E+01  2.000E+04 -3.564E-01
   1   16    6     1     6    1.2515E+05 -4.2537E+03   1.2941E+05  0.000E+00  0.000E+00  0.000E+00  4.60422E+01  1.672E-01  2.000E+01  2.000E+04 -2.127E-01
   1   16    7     1     7    1.2941E+05 -4.0706E+03   1.3348E+05  0.000E+00  0.000E+00  0.000E+00  4.55682E+01  1.704E-01  2.000E+01  2.000E+04 -2.035E-01
   1   16    8     1     8    1.3348E+05 -4.0014E+03   1.3748E+05  0.000E+00  0.000E+00  0.000E+00  4.50940E+01  1.736E-01  2.000E+01  2.000E+04 -2.001E-01
   1   16    9     1     9    1.3748E+05 -3.9469E+03   1.4143E+05  0.000E+00  0.000E+00  0.000E+00  4.46198E+01  1.766E-01  2.000E+01  2.000E+04 -1.973E-01
   1   16   10     1    10    1.4143E+05 -3.8743E+03   1.4530E+05  0.000E+00  0.000E+00  0.000E+00  4.41455E+01  1.796E-01  2.000E+01  2.000E+04 -1.937E-01
   1   16   11     1    11    1.4530E+05 -3.7821E+03   1.4908E+05  0.000E+00  0.000E+00  0.000E+00  4.36710E+01  1.824E-01  2.000E+01  2.000E+04 -1.891E-01
   1   16   12     1    12    1.4908E+05 -6.0060E+03   1.5509E+05  0.000E+00  0.000E+00  0.000E+00  4.31974E+01  1.860E-01  2.000E+01  2.000E+04 -3.003E-01
   1   15   13     1    13    1.5509E+05 -6.3627E+03   1.6145E+05  0.000E+00  0.000E+00  0.000E+00  4.27246E+01  1.905E-01  2.000E+01  2.000E+04 -3.181E-01
   1   14   14     1    14    1.6145E+05 -6.9683E+03   1.6842E+05  0.000E+00  0.000E+00  0.000E+00  4.22521E+01  1.953E-01  2.000E+01  2.000E+04 -3.484E-01
   1   13   15     1    15    1.6842E+05 -7.5345E+03   1.7595E+05  0.000E+00  0.000E+00  0.000E+00  4.17800E+01  2.004E-01  2.000E+01  2.000E+04 -3.767E-01
   1   12   16     1    16    1.7595E+05 -8.5366E+03   1.8449E+05  0.000E+00  0.000E+00  0.000E+00  4.13082E+01  2.060E-01  2.000E+01  2.000E+04 -4.268E-01
   1   12   17     1    17    1.8449E+05 -5.9638E+03   1.9045E+05  0.000E+00  0.000E+00  0.000E+00  4.08359E+01  2.109E-01  2.000E+01  2.000E+04 -2.982E-01
   1   12   18     1    18    1.9045E+05 -5.8265E+03   1.9628E+05  0.000E+00  0.000E+00  0.000E+00  4.03626E+01  2.149E-01  2.000E+01  2.000E+04 -2.913E-01
   1   12   19     1    19    1.9628E+05 -7.5046E+03   2.0379E+05  0.000E+00  0.000E+00  0.000E+00  3.98897E+01  2.193E-01  2.000E+01  2.000E+04 -3.752E-01
   1   13   20     1    20    2.0379E+05 -6.2471E+03   2.1003E+05  0.000E+00  0.000E+00  0.000E+00  3.94169E+01  2.238E-01  2.000E+01  2.000E+04 -3.124E-01
   1   14   21     1    21    2.1003E+05 -5.3458E+03   2.1538E+05  0.000E+00  0.000E+00  0.000E+00  3.89434E+01  2.275E-01  2.000E+01  2.000E+04 -2.673E-01
   1   14   22     1    22    2.1538E+05  3.8220E+03   2.1156E+05  0.000E+00  0.000E+00  0.000E+00  3.84666E+01  2.280E-01  2.000E+01  2.000E+04  1.911E-01
   1    9   30     2     1    5.0000E+04 -4.8574E+03   5.4857E+04  0.000E+00  0.000E+00  0.000E+00  4.02442E+01  1.192E-01  2.000E+01  2.000E+04 -2.429E-01
   1    9   29     2     2    5.4857E+04 -5.1532E+03   6.0011E+04  0.000E+00  0.000E+00  0.000E+00  4.00009E+01  1.259E-01  2.000E+01  2.000E+04 -2.577E-01
   1    9   28     2     3    6.0011E+04 -5.4391E+03   6.5450E+04  0.000E+00  0.000E+00  0.000E+00  3.97578E+01  1.328E-01  2.000E+01  2.000E+04 -2.720E-01
   1    9   27     2     4    6.5450E+04 -8.3000E+03   7.3750E+04  0.000E+00  0.000E+00  0.000E+00  3.95163E+01  1.413E-01  2.000E+01  2.000E+04 -4.150E-01
   1   10   26     2     5    7.3750E+04 -7.3399E+03   8.1090E+04  0.000E+00  0.000E+00  0.000E+00  3.92756E+01  1.506E-01  2.000E+01  2.000E+04 -3.670E-01
   1   11   25     2     6    8.1090E+04 -6.7969E+03   8.7886E+04  0.000E+00  0.000E+00  0.000E+00  3.90337E+01  1.587E-01  2.000E+01  2.000E+04 -3.398E-01
   1   12   24     2     7    8.7886E+04 -6.3102E+03   9.4197E+04  0.000E+00  0.000E+00  0.000E+00  3.87910E+01  1.660E-01  2.000E+01  2.000E+04 -3.155E-01
   1   13   23     2     8    9.4197E+04 -1.6529E+03   9.5850E+04  0.000E+00  0.000E+00  0.000E+00  3.85453E+01  1.703E-01  2.000E+01  2.000E+04 -8.264E-02
   1   14   22     2     9    9.5850E+04  4.0913E+02   9.5440E+04  0.000E+00  0.000E+00  0.000E+00  3.82960E+01  1.710E-01  2.000E+01  2.000E+04  2.046E-02
   1   14   22     3     1    3.0700E+05 -9.6498E+03   3.1665E+05  0.000E+00  0.000E+00  0.000E+00  3.77930E+01  2.375E-01  2.000E+01  2.000E+04 -4.825E-01
   1   15   23     3     2    3.1665E+05 -1.7933E+03   3.1844E+05  0.000E+00  0.000E+00  0.000E+00  3.69068E+01  2.401E-01  2.000E+01  2.000E+04 -8.966E-02
   1   15   24     3     3    3.1844E+05 -1.4914E+03   3.1993E+05  0.000E+00  0.000E+00  0.000E+00  3.60186E+01  2.408E-01  2.000E+01  2.000E+04 -7.457E-02
   1   15   25     3     4    3.1993E+05 -1.5597E+03   3.2149E+05  0.000E+00  0.000E+00  0.000E+00  3.51304E+01  2.415E-01  2.000E+01  2.000E+04 -7.798E-02
   1   15   26     3     5    3.2149E+05 -1.8734E+03   3.2336E+05  0.000E+00  0.000E+00  0.000E+00  3.42423E+01  2.423E-01  2.000E+01  2.000E+04 -9.367E-02
   1   16   27     3     6    3.2336E+05 -2.1466E+03   3.2551E+05  0.000E+00  0.000E+00  0.000E+00  3.33543E+01  2.432E-01  2.000E+01  2.000E+04 -1.073E-01
   1   17   28     3     7    3.2551E+05 -6.4777E+03   3.3199E+05  0.000E+00  0.000E+00  0.000E+00  3.24674E+01  2.451E-01  2.000E+01  2.000E+04 -3.239E-01
   1   18   29     3     8    3.3199E+05 -7.7464E+03   3.3974E+05  0.000E+00  0.000E+00  0.000E+00  3.15816E+01  2.483E-01  2.000E+01  2.000E+04 -3.873E-01
   1   18   30     3     9    3.3974E+05 -7.0323E+03   3.4677E+05  0.000E+00  0.000E+00  0.000E+00  3.06960E+01  2.516E-01  2.000E+01  2.000E+04 -3.516E-01



1
              HEAD IN LAYER   1 AT END OF TIME STEP   1 IN STRESS PERIOD    1
  ---------------------------------------------------------------------------

          1      2      3      4      5      6      7      8      9     10
         11     12     13     14     15     16     17     18     19     20
         21     22     23     24     25     26     27     28     29     30
 .........................................................................
   1  ****** ****** ****** ****** ****** ****** ****** ****** ****** ******
      ****** ****** ****** ****** ****** ****** ****** ****** ****** ******
      ****** ****** ****** ****** ****** ****** ****** ****** ****** ******
   2  ****** ****** ****** ****** ****** ****** ****** ****** ****** ******
      ****** ****** ****** ****** ****** ****** ****** ****** ****** ******
      ****** ****** ****** ****** ****** ****** ****** ****** ****** ******
   3  ****** ****** ****** ****** ****** ****** ****** ****** ****** ******
      ****** ****** ****** ****** ****** ****** ****** ****** ****** ******
      ****** ****** ****** ****** ****** ****** ****** ****** ****** ******
   4  ****** ****** ****** ****** ****** ****** ****** ****** ****** ******
      ****** ****** ****** ****** ****** ****** ****** ****** ****** ******
      ****** ****** ****** ****** ****** ****** ****** ****** ****** ******
   5  ****** ****** ****** ****** ****** ****** ****** ****** ****** ******
      ****** ****** ****** ****** ****** ****** ****** ****** ****** ******
      ****** ****** ****** ****** ****** ****** ****** ****** ****** ******
   6  ****** ****** ****** ****** ****** ****** ****** ****** ****** ******
      ****** ****** ****** ****** ****** ****** ****** ****** ****** ******
      ****** ****** ****** ****** ****** ****** ****** ****** ****** ******
   7  ****** ****** ****** ****** ****** ****** ****** ****** ****** ******
      ****** ****** ****** ****** ****** ****** ****** ****** ****** ******
      ****** ****** ****** ****** ****** ****** ****** ****** ****** ******
   8  ****** ****** ****** ****** ****** ****** ****** ****** ****** ******
      ****** ****** ****** ****** ****** ****** ****** ****** ****** ******
      ****** ****** ****** ****** ****** ****** ****** ****** ****** ******
   9  ****** ****** ****** ****** ****** ****** ****** ****** ****** ******
      ****** ****** ****** ****** ****** ****** ****** ****** ****** ******
      ****** ****** ****** ****** ****** ****** ****** ****** ****** ******
  10  ****** ****** ****** ****** ****** ****** ****** ****** ****** ******
      ****** ****** ****** ****** ****** ****** ****** ****** ****** ******
      ****** ****** ****** ****** ****** ****** ****** ****** ****** ******
  11  ****** ****** ****** ****** ****** ****** ****** ****** ****** ******
      ****** ****** ****** ****** ****** ****** ****** ****** ****** ******
      ****** ****** ****** ****** ****** ****** ****** ****** ****** ******
  12  ****** ****** ****** ****** ****** ****** ****** ****** ****** ******
      ****** ****** ****** ****** ****** ****** ****** ****** ****** ******
      ****** ****** ****** ****** ****** ****** ****** ****** ****** ******
  13  ****** ****** ****** ****** ****** ****** ****** ****** ****** ******
      ****** ****** ****** ****** ****** ****** ****** ****** ****** ******
      ****** ****** ****** ****** ****** ****** ****** ****** ****** ******
  14  ****** ****** ****** ****** ****** ****** ****** ****** ****** ******
      ****** ****** ****** ****** ****** ****** ****** ****** ****** ******
      ****** ****** ****** ****** ****** ****** ****** ****** ****** ******
  15  ****** ****** ****** ****** ****** ****** ****** ****** ****** ******
      ****** ****** ****** ****** ****** ****** ****** ****** ****** ******
      ****** ****** ****** ****** ****** ****** ****** ****** ****** ******
  16  ****** ****** ****** ****** ****** ****** ****** ****** ****** ******
      ****** ****** ****** ****** ****** ****** ****** ****** ****** ******
      ****** ****** ****** ****** ****** ****** ****** ****** ****** ******
  17  ****** ****** ****** ****** ****** ****** ****** ****** ****** ******
      ****** ****** ****** ****** ****** ****** ****** ****** ****** ******
      ****** ****** ****** ****** ****** ****** ****** ****** ****** ******
  18  ****** ****** ****** ****** ****** ****** ****** ****** ****** ******
      ****** ****** ****** ****** ****** ****** ****** ****** ****** ******
      ****** ****** ****** ****** ****** ****** ****** ****** ****** ******
  19  ****** ****** ****** ****** ****** ****** ****** ****** ****** ******
      ****** ****** ****** ****** ****** ****** ****** ****** ****** ******
      ****** ****** ****** ****** ****** ****** ****** ****** ****** ******
  20  ****** ****** ****** ****** ****** ****** ****** ****** ****** ******
      ****** ****** ****** ****** ****** ****** ****** ****** ****** ******
      ****** ****** ****** ****** ****** ****** ****** ****** ****** ******
  21  ****** ****** ****** ****** ****** ****** ****** ****** ****** ******
      ****** ****** ****** ****** ****** ****** ****** ****** ****** ******
      ****** ****** ****** ****** ****** ****** ****** ****** ****** ******
  22  ****** ****** ****** ****** ****** ****** ****** ****** ****** ******
      ****** ****** ****** ****** ****** ****** ****** ****** ****** ******
      ****** ****** ****** ****** ****** ****** ****** ****** ****** ******
  23  ****** ****** ****** ****** ****** ****** ****** ****** ****** ******
      ****** ****** ****** ****** ****** ****** ****** ****** ****** ******
      ****** ****** ****** ****** ****** ****** ****** ****** ****** ******
  24  ****** ****** ****** ****** ****** ****** ****** ****** ****** ******
      ****** ****** ****** ****** ****** ****** ****** ****** ****** ******
      ****** ****** ****** ****** ****** ****** ****** ****** ****** ******
  25  ****** ****** ****** ****** ****** ****** ****** ****** ****** ******
      ****** ****** ****** ****** ****** ****** ****** ****** ****** ******
      ****** ****** ****** ****** ****** ****** ****** ****** ****** ******

 HEAD WILL BE SAVED ON UNIT   51 AT END OF TIME STEP    1, STRESS PERIOD    1
1
  VOLUMETRIC BUDGET FOR ENTIRE MODEL AT END OF TIME STEP    1, STRESS PERIOD   1
  ------------------------------------------------------------------------------

     CUMULATIVE VOLUMES      L**3       RATES FOR THIS TIME STEP      L**3/T
     ------------------                 ------------------------

           IN:                                      IN:
           ---                                      ---
             STORAGE =    18474709.9545               STORAGE =      200812.0647
       CONSTANT HEAD =     1252694.6789         CONSTANT HEAD =       13616.2465
               WELLS =           0.0000                 WELLS =           0.0000
            RECHARGE =     1269600.0000              RECHARGE =       13800.0000
      STREAM LEAKAGE =      389259.8967        STREAM LEAKAGE =        4231.0858

            TOTAL IN =    21386264.5300              TOTAL IN =      232459.3971

          OUT:                                     OUT:
          ----                                     ----
             STORAGE =           0.0000               STORAGE =           0.0000
       CONSTANT HEAD =           0.0000         CONSTANT HEAD =           0.0000
               WELLS =     2894391.7175                 WELLS =       31460.7795
            RECHARGE =           0.0000              RECHARGE =           0.0000
      STREAM LEAKAGE =    18491873.0946        STREAM LEAKAGE =      200998.6206

           TOTAL OUT =    21386264.8121             TOTAL OUT =      232459.4001

            IN - OUT =          -0.2820              IN - OUT =      -3.0655E-03

 PERCENT DISCREPANCY =          -0.00     PERCENT DISCREPANCY =          -0.00






         TIME SUMMARY AT END OF TIME STEP    1 IN STRESS PERIOD    1
                    SECONDS     MINUTES      HOURS       DAYS        YEARS
                    -----------------------------------------------------------
   TIME STEP LENGTH 7.94880E+06 1.32480E+05  2208.0      92.000     0.25188    
 STRESS PERIOD TIME 7.94880E+06 1.32480E+05  2208.0      92.000     0.25188    
         TOTAL TIME 7.94880E+06 1.32480E+05  2208.0      92.000     0.25188    
1
1
                            STRESS PERIOD NO.    2, LENGTH =   91.00000    
                            -----------------------------------------------

                              NUMBER OF TIME STEPS =     1

                               MULTIPLIER FOR DELT =     1.500

                            INITIAL TIME STEP SIZE =   91.00000    

 WELL NO.  LAYER   ROW   COL   STRESS RATE         
 --------------------------------------------------
      1      1     20     21      -6420.    
      2      1     18     16      -7655.    
      3      1     20     18     -0.1052E+05
      4      1      4      9      -6868.    

      4 WELLS

                 RECHARGE =  2.000000E-03

 REUSING STREAM SEGMENT DATA FROM LAST STRESS PERIOD
 
 SOLVING FOR HEAD 


     7 CALLS TO PCG ROUTINE FOR TIME STEP   1 IN STRESS PERIOD    2
    27 TOTAL ITERATIONS

 OUTPUT CONTROL FOR STRESS PERIOD    2   TIME STEP    1
    SAVE BUDGET
    SAVE HEAD FOR ALL LAYERS
    PRINT HEAD FOR ALL LAYERS
 UBDSV2 SAVING "STREAMFLOW OUT  " ON UNIT  50 AT TIME STEP  1, STRESS PERIOD   2



 STREAM LISTING     PERIOD      2   STEP        1

 LAYER ROW COL. STREAM  RCH.  FLOW INTO     FLOW TO   FLOW OUT OF   OVRLND.     DIRECT     STREAM       STREAM     STREAM     STREAM   STREAMBED  STREAMBED
                SEG.NO.  NO.  STRM. RCH.    AQUIFER    STRM. RCH.    RUNOFF     PRECIP       ET          HEAD       DEPTH      WIDTH   CONDCTNC.   GRADIENT

   1   13    1     1     1    1.0000E+05 -3.8393E+03   1.0384E+05  0.000E+00  0.000E+00  0.000E+00  4.84077E+01  1.463E-01  2.000E+01  2.000E+04 -1.920E-01
   1   13    2     1     2    1.0384E+05 -5.0945E+03   1.0893E+05  0.000E+00  0.000E+00  0.000E+00  4.79342E+01  1.501E-01  2.000E+01  2.000E+04 -2.547E-01
   1   14    3     1     3    1.0893E+05 -1.1017E+03   1.1004E+05  0.000E+00  0.000E+00  0.000E+00  4.74596E+01  1.527E-01  2.000E+01  2.000E+04 -5.509E-02
   1   15    4     1     4    1.1004E+05 -1.1282E+03   1.1116E+05  0.000E+00  0.000E+00  0.000E+00  4.69832E+01  1.537E-01  2.000E+01  2.000E+04 -5.641E-02
   1   16    5     1     5    1.1116E+05 -4.1271E+03   1.1529E+05  0.000E+00  0.000E+00  0.000E+00  4.65081E+01  1.558E-01  2.000E+01  2.000E+04 -2.064E-01
   1   16    6     1     6    1.1529E+05 -2.4032E+03   1.1769E+05  0.000E+00  0.000E+00  0.000E+00  4.60335E+01  1.585E-01  2.000E+01  2.000E+04 -1.202E-01
   1   16    7     1     7    1.1769E+05 -2.2781E+03   1.1997E+05  0.000E+00  0.000E+00  0.000E+00  4.55582E+01  1.604E-01  2.000E+01  2.000E+04 -1.139E-01
   1   16    8     1     8    1.1997E+05 -2.2010E+03   1.2217E+05  0.000E+00  0.000E+00  0.000E+00  4.50827E+01  1.622E-01  2.000E+01  2.000E+04 -1.101E-01
   1   16    9     1     9    1.2217E+05 -2.1092E+03   1.2428E+05  0.000E+00  0.000E+00  0.000E+00  4.46071E+01  1.640E-01  2.000E+01  2.000E+04 -1.055E-01
   1   16   10     1    10    1.2428E+05 -1.9761E+03   1.2626E+05  0.000E+00  0.000E+00  0.000E+00  4.41315E+01  1.656E-01  2.000E+01  2.000E+04 -9.881E-02
   1   16   11     1    11    1.2626E+05 -1.7917E+03   1.2805E+05  0.000E+00  0.000E+00  0.000E+00  4.36557E+01  1.671E-01  2.000E+01  2.000E+04 -8.958E-02
   1   16   12     1    12    1.2805E+05 -2.6028E+03   1.3065E+05  0.000E+00  0.000E+00  0.000E+00  4.31802E+01  1.688E-01  2.000E+01  2.000E+04 -1.301E-01
   1   15   13     1    13    1.3065E+05 -2.6791E+03   1.3333E+05  0.000E+00  0.000E+00  0.000E+00  4.27050E+01  1.709E-01  2.000E+01  2.000E+04 -1.340E-01
   1   14   14     1    14    1.3333E+05 -3.2179E+03   1.3655E+05  0.000E+00  0.000E+00  0.000E+00  4.22300E+01  1.731E-01  2.000E+01  2.000E+04 -1.609E-01
   1   13   15     1    15    1.3655E+05 -3.8781E+03   1.4043E+05  0.000E+00  0.000E+00  0.000E+00  4.17554E+01  1.759E-01  2.000E+01  2.000E+04 -1.939E-01
   1   12   16     1    16    1.4043E+05 -5.2356E+03   1.4566E+05  0.000E+00  0.000E+00  0.000E+00  4.12816E+01  1.793E-01  2.000E+01  2.000E+04 -2.618E-01
   1   12   17     1    17    1.4566E+05 -3.3082E+03   1.4897E+05  0.000E+00  0.000E+00  0.000E+00  4.08075E+01  1.825E-01  2.000E+01  2.000E+04 -1.654E-01
   1   12   18     1    18    1.4897E+05 -3.1757E+03   1.5215E+05  0.000E+00  0.000E+00  0.000E+00  4.03326E+01  1.849E-01  2.000E+01  2.000E+04 -1.588E-01
   1   12   19     1    19    1.5215E+05 -4.2947E+03   1.5644E+05  0.000E+00  0.000E+00  0.000E+00  3.98581E+01  1.876E-01  2.000E+01  2.000E+04 -2.147E-01
   1   13   20     1    20    1.5644E+05 -2.8392E+03   1.5928E+05  0.000E+00  0.000E+00  0.000E+00  3.93834E+01  1.902E-01  2.000E+01  2.000E+04 -1.420E-01
   1   14   21     1    21    1.5928E+05 -2.0402E+03   1.6132E+05  0.000E+00  0.000E+00  0.000E+00  3.89079E+01  1.920E-01  2.000E+01  2.000E+04 -1.020E-01
   1   14   22     1    22    1.6132E+05  4.6675E+03   1.5665E+05  0.000E+00  0.000E+00  0.000E+00  3.84297E+01  1.910E-01  2.000E+01  2.000E+04  2.334E-01
   1    9   30     2     1    5.0000E+04 -2.1529E+03   5.2153E+04  0.000E+00  0.000E+00  0.000E+00  4.02424E+01  1.174E-01  2.000E+01  2.000E+04 -1.076E-01
   1    9   29     2     2    5.2153E+04 -2.4635E+03   5.4616E+04  0.000E+00  0.000E+00  0.000E+00  3.99955E+01  1.205E-01  2.000E+01  2.000E+04 -1.232E-01
   1    9   28     2     3    5.4616E+04 -2.7696E+03   5.7386E+04  0.000E+00  0.000E+00  0.000E+00  3.97490E+01  1.240E-01  2.000E+01  2.000E+04 -1.385E-01
   1    9   27     2     4    5.7386E+04 -4.8778E+03   6.2264E+04  0.000E+00  0.000E+00  0.000E+00  3.95040E+01  1.290E-01  2.000E+01  2.000E+04 -2.439E-01
   1   10   26     2     5    6.2264E+04 -3.7773E+03   6.6041E+04  0.000E+00  0.000E+00  0.000E+00  3.92596E+01  1.346E-01  2.000E+01  2.000E+04 -1.889E-01
   1   11   25     2     6    6.6041E+04 -3.3900E+03   6.9431E+04  0.000E+00  0.000E+00  0.000E+00  3.90140E+01  1.390E-01  2.000E+01  2.000E+04 -1.695E-01
   1   12   24     2     7    6.9431E+04 -3.2571E+03   7.2688E+04  0.000E+00  0.000E+00  0.000E+00  3.87681E+01  1.431E-01  2.000E+01  2.000E+04 -1.629E-01
   1   13   23     2     8    7.2688E+04 -6.1500E+02   7.3303E+04  0.000E+00  0.000E+00  0.000E+00  3.85204E+01  1.454E-01  2.000E+01  2.000E+04 -3.075E-02
   1   14   22     2     9    7.3303E+04  1.4714E+03   7.1832E+04  0.000E+00  0.000E+00  0.000E+00  3.82699E+01  1.449E-01  2.000E+01  2.000E+04  7.357E-02
   1   14   22     3     1    2.2849E+05 -8.8282E+03   2.3731E+05  0.000E+00  0.000E+00  0.000E+00  3.77549E+01  1.993E-01  2.000E+01  2.000E+04 -4.414E-01
   1   15   23     3     2    2.3731E+05 -7.3011E+02   2.3804E+05  0.000E+00  0.000E+00  0.000E+00  3.68685E+01  2.018E-01  2.000E+01  2.000E+04 -3.651E-02
   1   15   24     3     3    2.3804E+05 -5.8797E+02   2.3863E+05  0.000E+00  0.000E+00  0.000E+00  3.59799E+01  2.021E-01  2.000E+01  2.000E+04 -2.940E-02
   1   15   25     3     4    2.3863E+05 -6.2718E+02   2.3926E+05  0.000E+00  0.000E+00  0.000E+00  3.50913E+01  2.024E-01  2.000E+01  2.000E+04 -3.136E-02
   1   15   26     3     5    2.3926E+05 -7.5059E+02   2.4001E+05  0.000E+00  0.000E+00  0.000E+00  3.42028E+01  2.028E-01  2.000E+01  2.000E+04 -3.753E-02
   1   16   27     3     6    2.4001E+05 -8.5625E+02   2.4087E+05  0.000E+00  0.000E+00  0.000E+00  3.33143E+01  2.032E-01  2.000E+01  2.000E+04 -4.281E-02
   1   17   28     3     7    2.4087E+05 -3.0426E+03   2.4391E+05  0.000E+00  0.000E+00  0.000E+00  3.24264E+01  2.042E-01  2.000E+01  2.000E+04 -1.521E-01
   1   18   29     3     8    2.4391E+05 -4.5436E+03   2.4845E+05  0.000E+00  0.000E+00  0.000E+00  3.15394E+01  2.061E-01  2.000E+01  2.000E+04 -2.272E-01
   1   18   30     3     9    2.4845E+05 -4.3868E+03   2.5284E+05  0.000E+00  0.000E+00  0.000E+00  3.06528E+01  2.083E-01  2.000E+01  2.000E+04 -2.193E-01



1
              HEAD IN LAYER   1 AT END OF TIME STEP   1 IN STRESS PERIOD    2
  ---------------------------------------------------------------------------

          1      2      3      4      5      6      7      8      9     10
         11     12     13     14     15     16     17     18     19     20
         21     22     23     24     25     26     27     28     29     30
 .........................................................................
   1  ****** ****** ****** ****** ****** ****** ****** ****** ****** ******
      ****** ****** ****** ****** ****** ****** ****** ****** ****** ******
      ****** ****** ****** ****** ****** ****** ****** ****** ****** ******
   2  ****** ****** ****** ****** ****** ****** ****** ****** ****** ******
      ****** ****** ****** ****** ****** ****** ****** ****** ****** ******
      ****** ****** ****** ****** ****** ****** ****** ****** ****** ******
   3  ****** ****** ****** ****** ****** ****** ****** ****** ****** ******
      ****** ****** ****** ****** ****** ****** ****** ****** ****** ******
      ****** ****** ****** ****** ****** ****** ****** ****** ****** ******
   4  ****** ****** ****** ****** ****** ****** ****** ****** ****** ******
      ****** ****** ****** ****** ****** ****** ****** ****** ****** ******
      ****** ****** ****** ****** ****** ****** ****** ****** ****** ******
   5  ****** ****** ****** ****** ****** ****** ****** ****** ****** ******
      ****** ****** ****** ****** ****** ****** ****** ****** ****** ******
      ****** ****** ****** ****** ****** ****** ****** ****** ****** ******
   6  ****** ****** ****** ****** ****** ****** ****** ****** ****** ******
      ****** ****** ****** ****** ****** ****** ****** ****** ****** ******
      ****** ****** ****** ****** ****** ****** ****** ****** ****** ******
   7  ****** ****** ****** ****** ****** ****** ****** ****** ****** ******
      ****** ****** ****** ****** ****** ****** ****** ****** ****** ******
      ****** ****** ****** ****** ****** ****** ****** ****** ****** ******
   8  ****** ****** ****** ****** ****** ****** ****** ****** ****** ******
      ****** ****** ****** ****** ****** ****** ****** ****** ****** ******
      ****** ****** ****** ****** ****** ****** ****** ****** ****** ******
   9  ****** ****** ****** ****** ****** ****** ****** ****** ****** ******
      ****** ****** ****** ****** ****** ****** ****** ****** ****** ******
      ****** ****** ****** ****** ****** ****** ****** ****** ****** ******
  10  ****** ****** ****** ****** ****** ****** ****** ****** ****** ******
      ****** ****** ****** ****** ****** ****** ****** ****** ****** ******
      ****** ****** ****** ****** ****** ****** ****** ****** ****** ******
  11  ****** ****** ****** ****** ****** ****** ****** ****** ****** ******
      ****** ****** ****** ****** ****** ****** ****** ****** ****** ******
      ****** ****** ****** ****** ****** ****** ****** ****** ****** ******
  12  ****** ****** ****** ****** ****** ****** ****** ****** ****** ******
      ****** ****** ****** ****** ****** ****** ****** ****** ****** ******
      ****** ****** ****** ****** ****** ****** ****** ****** ****** ******
  13  ****** ****** ****** ****** ****** ****** ****** ****** ****** ******
      ****** ****** ****** ****** ****** ****** ****** ****** ****** ******
      ****** ****** ****** ****** ****** ****** ****** ****** ****** ******
  14  ****** ****** ****** ****** ****** ****** ****** ****** ****** ******
      ****** ****** ****** ****** ****** ****** ****** ****** ****** ******
      ****** ****** ****** ****** ****** ****** ****** ****** ****** ******
  15  ****** ****** ****** ****** ****** ****** ****** ****** ****** ******
      ****** ****** ****** ****** ****** ****** ****** ****** ****** ******
      ****** ****** ****** ****** ****** ****** ****** ****** ****** ******
  16  ****** ****** ****** ****** ****** ****** ****** ****** ****** ******
      ****** ****** ****** ****** ****** ****** ****** ****** ****** ******
      ****** ****** ****** ****** ****** ****** ****** ****** ****** ******
  17  ****** ****** ****** ****** ****** ****** ****** ****** ****** ******
      ****** ****** ****** ****** ****** ****** ****** ****** ****** ******
      ****** ****** ****** ****** ****** ****** ****** ****** ****** ******
  18  ****** ****** ****** ****** ****** ****** ****** ****** ****** ******
      ****** ****** ****** ****** ****** ****** ****** ****** ****** ******
      ****** ****** ****** ****** ****** ****** ****** ****** ****** ******
  19  ****** ****** ****** ****** ****** ****** ****** ****** ****** ******
      ****** ****** ****** ****** ****** ****** ****** ****** ****** ******
      ****** ****** ****** ****** ****** ****** ****** ****** ****** ******
  20  ****** ****** ****** ****** ****** ****** ****** ****** ****** ******
      ****** ****** ****** ****** ****** ****** ****** ****** ****** ******
      ****** ****** ****** ****** ****** ****** ****** ****** ****** ******
  21  ****** ****** ****** ****** ****** ****** ****** ****** ****** ******
      ****** ****** ****** ****** ****** ****** ****** ****** ****** ******
      ****** ****** ****** ****** ****** ****** ****** ****** ****** ******
  22  ****** ****** ****** ****** ****** ****** ****** ****** ****** ******
      ****** ****** ****** ****** ****** ****** ****** ****** ****** ******
      ****** ****** ****** ****** ****** ****** ****** ****** ****** ******
  23  ****** ****** ****** ****** ****** ****** ****** ****** ****** ******
      ****** ****** ****** ****** ****** ****** ****** ****** ****** ******
      ****** ****** ****** ****** ****** ****** ****** ****** ****** ******
  24  ****** ****** ****** ****** ****** ****** ****** ****** ****** ******
      ****** ****** ****** ****** ****** ****** ****** ****** ****** ******
      ****** ****** ****** ****** ****** ****** ****** ****** ****** ******
  25  ****** ****** ****** ****** ****** ****** ****** ****** ****** ******
      ****** ****** ****** ****** ****** ****** ****** ****** ****** ******
      ****** ****** ****** ****** ****** ****** ****** ****** ****** ******

 HEAD WILL BE SAVED ON UNIT   51 AT END OF TIME STEP    1, STRESS PERIOD    2
1
  VOLUMETRIC BUDGET FOR ENTIRE MODEL AT END OF TIME STEP    1, STRESS PERIOD   2
  ------------------------------------------------------------------------------

     CUMULATIVE VOLUMES      L**3       RATES FOR THIS TIME STEP      L**3/T
     ------------------                 ------------------------

           IN:                                      IN:
           ---                                      ---
             STORAGE =    23935742.4257               STORAGE =       60011.3458
       CONSTANT HEAD =     2989777.0875         CONSTANT HEAD =       19088.8177
               WELLS =           0.0000                 WELLS =           0.0000
            RECHARGE =     6292800.0000              RECHARGE =       55200.0000
      STREAM LEAKAGE =      947901.8489        STREAM LEAKAGE =        6138.9226

            TOTAL IN =    34166221.3620              TOTAL IN =      140439.0861

          OUT:                                     OUT:
          ----                                     ----
             STORAGE =           0.0000               STORAGE =           0.0000
       CONSTANT HEAD =           0.0000         CONSTANT HEAD =           0.0000
               WELLS =     5757322.6554                 WELLS =       31460.7795
            RECHARGE =           0.0000              RECHARGE =           0.0000
      STREAM LEAKAGE =    28408899.9440        STREAM LEAKAGE =      108978.3170

           TOTAL OUT =    34166222.5994             TOTAL OUT =      140439.0966

            IN - OUT =          -1.2374              IN - OUT =      -1.0498E-02

 PERCENT DISCREPANCY =          -0.00     PERCENT DISCREPANCY =          -0.00






         TIME SUMMARY AT END OF TIME STEP    1 IN STRESS PERIOD    2
                    SECONDS     MINUTES      HOURS       DAYS        YEARS
                    -----------------------------------------------------------
   TIME STEP LENGTH 7.86240E+06 1.31040E+05  2184.0      91.000     0.24914    
 STRESS PERIOD TIME 7.86240E+06 1.31040E+05  2184.0      91.000     0.24914    
         TOTAL TIME 1.58112E+07 2.63520E+05  4392.0      183.00     0.50103    
1
1
                            STRESS PERIOD NO.    3, LENGTH =   91.00000    
                            -----------------------------------------------

                              NUMBER OF TIME STEPS =     1

                               MULTIPLIER FOR DELT =     1.500

                            INITIAL TIME STEP SIZE =   91.00000    

 WELL NO.  LAYER   ROW   COL   STRESS RATE         
 --------------------------------------------------
      1      1     20     21      -6420.    
      2      1     18     16      -7655.    
      3      1     20     18     -0.1052E+05
      4      1      4      9      -6868.    

      4 WELLS

                 RECHARGE =   0.00000    

 REUSING STREAM SEGMENT DATA FROM LAST STRESS PERIOD
 
 SOLVING FOR HEAD 


     7 CALLS TO PCG ROUTINE FOR TIME STEP   1 IN STRESS PERIOD    3
    27 TOTAL ITERATIONS

 OUTPUT CONTROL FOR STRESS PERIOD    3   TIME STEP    1
    SAVE BUDGET
    SAVE HEAD FOR ALL LAYERS
    PRINT HEAD FOR ALL LAYERS
 UBDSV2 SAVING "STREAMFLOW OUT  " ON UNIT  50 AT TIME STEP  1, STRESS PERIOD   3



 STREAM LISTING     PERIOD      3   STEP        1

 LAYER ROW COL. STREAM  RCH.  FLOW INTO     FLOW TO   FLOW OUT OF   OVRLND.     DIRECT     STREAM       STREAM     STREAM     STREAM   STREAMBED  STREAMBED
                SEG.NO.  NO.  STRM. RCH.    AQUIFER    STRM. RCH.    RUNOFF     PRECIP       ET          HEAD       DEPTH      WIDTH   CONDCTNC.   GRADIENT

   1   13    1     1     1    1.0000E+05 -2.5076E+03   1.0251E+05  0.000E+00  0.000E+00  0.000E+00  4.84071E+01  1.457E-01  2.000E+01  2.000E+04 -1.254E-01
   1   13    2     1     2    1.0251E+05 -3.6033E+03   1.0611E+05  0.000E+00  0.000E+00  0.000E+00  4.79325E+01  1.484E-01  2.000E+01  2.000E+04 -1.802E-01
   1   14    3     1     3    1.0611E+05 -6.3134E+02   1.0674E+05  0.000E+00  0.000E+00  0.000E+00  4.74570E+01  1.502E-01  2.000E+01  2.000E+04 -3.157E-02
   1   15    4     1     4    1.0674E+05 -6.1359E+02   1.0736E+05  0.000E+00  0.000E+00  0.000E+00  4.69802E+01  1.507E-01  2.000E+01  2.000E+04 -3.068E-02
   1   16    5     1     5    1.0736E+05 -2.2750E+03   1.0963E+05  0.000E+00  0.000E+00  0.000E+00  4.65042E+01  1.519E-01  2.000E+01  2.000E+04 -1.138E-01
   1   16    6     1     6    1.0963E+05 -1.3594E+03   1.1099E+05  0.000E+00  0.000E+00  0.000E+00  4.60284E+01  1.534E-01  2.000E+01  2.000E+04 -6.797E-02
   1   16    7     1     7    1.1099E+05 -1.2860E+03   1.1228E+05  0.000E+00  0.000E+00  0.000E+00  4.55523E+01  1.545E-01  2.000E+01  2.000E+04 -6.430E-02
   1   16    8     1     8    1.1228E+05 -1.2172E+03   1.1349E+05  0.000E+00  0.000E+00  0.000E+00  4.50760E+01  1.556E-01  2.000E+01  2.000E+04 -6.086E-02
   1   16    9     1     9    1.1349E+05 -1.1168E+03   1.1461E+05  0.000E+00  0.000E+00  0.000E+00  4.45997E+01  1.565E-01  2.000E+01  2.000E+04 -5.584E-02
   1   16   10     1    10    1.1461E+05 -9.6654E+02   1.1558E+05  0.000E+00  0.000E+00  0.000E+00  4.41233E+01  1.574E-01  2.000E+01  2.000E+04 -4.833E-02
   1   16   11     1    11    1.1558E+05 -7.4907E+02   1.1633E+05  0.000E+00  0.000E+00  0.000E+00  4.36467E+01  1.581E-01  2.000E+01  2.000E+04 -3.745E-02
   1   16   12     1    12    1.1633E+05 -7.3579E+02   1.1706E+05  0.000E+00  0.000E+00  0.000E+00  4.31701E+01  1.587E-01  2.000E+01  2.000E+04 -3.679E-02
   1   15   13     1    13    1.1706E+05 -8.1090E+02   1.1787E+05  0.000E+00  0.000E+00  0.000E+00  4.26934E+01  1.593E-01  2.000E+01  2.000E+04 -4.054E-02
   1   14   14     1    14    1.1787E+05 -1.3238E+03   1.1920E+05  0.000E+00  0.000E+00  0.000E+00  4.22170E+01  1.602E-01  2.000E+01  2.000E+04 -6.619E-02
   1   13   15     1    15    1.1920E+05 -2.0132E+03   1.2121E+05  0.000E+00  0.000E+00  0.000E+00  4.17411E+01  1.615E-01  2.000E+01  2.000E+04 -1.007E-01
   1   12   16     1    16    1.2121E+05 -3.3746E+03   1.2458E+05  0.000E+00  0.000E+00  0.000E+00  4.12660E+01  1.637E-01  2.000E+01  2.000E+04 -1.687E-01
   1   12   17     1    17    1.2458E+05 -1.9455E+03   1.2653E+05  0.000E+00  0.000E+00  0.000E+00  4.07908E+01  1.658E-01  2.000E+01  2.000E+04 -9.728E-02
   1   12   18     1    18    1.2653E+05 -1.8375E+03   1.2837E+05  0.000E+00  0.000E+00  0.000E+00  4.03150E+01  1.673E-01  2.000E+01  2.000E+04 -9.188E-02
   1   12   19     1    19    1.2837E+05 -2.6584E+03   1.3103E+05  0.000E+00  0.000E+00  0.000E+00  3.98395E+01  1.691E-01  2.000E+01  2.000E+04 -1.329E-01
   1   13   20     1    20    1.3103E+05 -1.2423E+03   1.3227E+05  0.000E+00  0.000E+00  0.000E+00  3.93638E+01  1.706E-01  2.000E+01  2.000E+04 -6.212E-02
   1   14   21     1    21    1.3227E+05 -2.8793E+02   1.3256E+05  0.000E+00  0.000E+00  0.000E+00  3.88871E+01  1.712E-01  2.000E+01  2.000E+04 -1.440E-02
   1   14   22     1    22    1.3256E+05  5.0614E+03   1.2749E+05  0.000E+00  0.000E+00  0.000E+00  3.84080E+01  1.693E-01  2.000E+01  2.000E+04  2.531E-01
   1    9   30     2     1    5.0000E+04 -9.6317E+02   5.0963E+04  0.000E+00  0.000E+00  0.000E+00  4.02415E+01  1.165E-01  2.000E+01  2.000E+04 -4.816E-02
   1    9   29     2     2    5.0963E+04 -1.2758E+03   5.2239E+04  0.000E+00  0.000E+00  0.000E+00  3.99931E+01  1.181E-01  2.000E+01  2.000E+04 -6.379E-02
   1    9   28     2     3    5.2239E+04 -1.5699E+03   5.3809E+04  0.000E+00  0.000E+00  0.000E+00  3.97450E+01  1.200E-01  2.000E+01  2.000E+04 -7.849E-02
   1    9   27     2     4    5.3809E+04 -3.1550E+03   5.6964E+04  0.000E+00  0.000E+00  0.000E+00  3.94982E+01  1.232E-01  2.000E+01  2.000E+04 -1.577E-01
   1   10   26     2     5    5.6964E+04 -2.1662E+03   5.9130E+04  0.000E+00  0.000E+00  0.000E+00  3.92517E+01  1.267E-01  2.000E+01  2.000E+04 -1.083E-01
   1   11   25     2     6    5.9130E+04 -1.8879E+03   6.1018E+04  0.000E+00  0.000E+00  0.000E+00  3.90044E+01  1.294E-01  2.000E+01  2.000E+04 -9.439E-02
   1   12   24     2     7    6.1018E+04 -1.9129E+03   6.2931E+04  0.000E+00  0.000E+00  0.000E+00  3.87568E+01  1.318E-01  2.000E+01  2.000E+04 -9.565E-02
   1   13   23     2     8    6.2931E+04 -2.8012E+02   6.3211E+04  0.000E+00  0.000E+00  0.000E+00  3.85082E+01  1.332E-01  2.000E+01  2.000E+04 -1.401E-02
   1   14   22     2     9    6.3211E+04  2.0434E+03   6.1168E+04  0.000E+00  0.000E+00  0.000E+00  3.82571E+01  1.321E-01  2.000E+01  2.000E+04  1.022E-01
   1   14   22     3     1    1.8866E+05 -8.4265E+03   1.9709E+05  0.000E+00  0.000E+00  0.000E+00  3.77336E+01  1.780E-01  2.000E+01  2.000E+04 -4.213E-01
   1   15   23     3     2    1.9709E+05 -2.7432E+02   1.9736E+05  0.000E+00  0.000E+00  0.000E+00  3.68471E+01  1.804E-01  2.000E+01  2.000E+04 -1.372E-02
   1   15   24     3     3    1.9736E+05 -2.4040E+02   1.9760E+05  0.000E+00  0.000E+00  0.000E+00  3.59583E+01  1.806E-01  2.000E+01  2.000E+04 -1.202E-02
   1   15   25     3     4    1.9760E+05 -2.7017E+02   1.9787E+05  0.000E+00  0.000E+00  0.000E+00  3.50696E+01  1.807E-01  2.000E+01  2.000E+04 -1.351E-02
   1   15   26     3     5    1.9787E+05 -3.3652E+02   1.9821E+05  0.000E+00  0.000E+00  0.000E+00  3.41809E+01  1.809E-01  2.000E+01  2.000E+04 -1.683E-02
   1   16   27     3     6    1.9821E+05 -3.7133E+02   1.9858E+05  0.000E+00  0.000E+00  0.000E+00  3.32922E+01  1.811E-01  2.000E+01  2.000E+04 -1.857E-02
   1   17   28     3     7    1.9858E+05 -1.5497E+03   2.0013E+05  0.000E+00  0.000E+00  0.000E+00  3.24038E+01  1.816E-01  2.000E+01  2.000E+04 -7.749E-02
   1   18   29     3     8    2.0013E+05 -2.8425E+03   2.0297E+05  0.000E+00  0.000E+00  0.000E+00  3.15161E+01  1.828E-01  2.000E+01  2.000E+04 -1.421E-01
   1   18   30     3     9    2.0297E+05 -3.1405E+03   2.0611E+05  0.000E+00  0.000E+00  0.000E+00  3.06288E+01  1.844E-01  2.000E+01  2.000E+04 -1.570E-01



1
              HEAD IN LAYER   1 AT END OF TIME STEP   1 IN STRESS PERIOD    3
  ---------------------------------------------------------------------------

          1      2      3      4      5      6      7      8      9     10
         11     12     13     14     15     16     17     18     19     20
         21     22     23     24     25     26     27     28     29     30
 .........................................................................
   1  ****** ****** ****** ****** ****** ****** ****** ****** ****** ******
      ****** ****** ****** ****** ****** ****** ****** ****** ****** ******
      ****** ****** ****** ****** ****** ****** ****** ****** ****** ******
   2  ****** ****** ****** ****** ****** ****** ****** ****** ****** ******
      ****** ****** ****** ****** ****** ****** ****** ****** ****** ******
      ****** ****** ****** ****** ****** ****** ****** ****** ****** ******
   3  ****** ****** ****** ****** ****** ****** ****** ****** ****** ******
      ****** ****** ****** ****** ****** ****** ****** ****** ****** ******
      ****** ****** ****** ****** ****** ****** ****** ****** ****** ******
   4  ****** ****** ****** ****** ****** ****** ****** ****** ****** ******
      ****** ****** ****** ****** ****** ****** ****** ****** ****** ******
      ****** ****** ****** ****** ****** ****** ****** ****** ****** ******
   5  ****** ****** ****** ****** ****** ****** ****** ****** ****** ******
      ****** ****** ****** ****** ****** ****** ****** ****** ****** ******
      ****** ****** ****** ****** ****** ****** ****** ****** ****** ******
   6  ****** ****** ****** ****** ****** ****** ****** ****** ****** ******
      ****** ****** ****** ****** ****** ****** ****** ****** ****** ******
      ****** ****** ****** ****** ****** ****** ****** ****** ****** ******
   7  ****** ****** ****** ****** ****** ****** ****** ****** ****** ******
      ****** ****** ****** ****** ****** ****** ****** ****** ****** ******
      ****** ****** ****** ****** ****** ****** ****** ****** ****** ******
   8  ****** ****** ****** ****** ****** ****** ****** ****** ****** ******
      ****** ****** ****** ****** ****** ****** ****** ****** ****** ******
      ****** ****** ****** ****** ****** ****** ****** ****** ****** ******
   9  ****** ****** ****** ****** ****** ****** ****** ****** ****** ******
      ****** ****** ****** ****** ****** ****** ****** ****** ****** ******
      ****** ****** ****** ****** ****** ****** ****** ****** ****** ******
  10  ****** ****** ****** ****** ****** ****** ****** ****** ****** ******
      ****** ****** ****** ****** ****** ****** ****** ****** ****** ******
      ****** ****** ****** ****** ****** ****** ****** ****** ****** ******
  11  ****** ****** ****** ****** ****** ****** ****** ****** ****** ******
      ****** ****** ****** ****** ****** ****** ****** ****** ****** ******
      ****** ****** ****** ****** ****** ****** ****** ****** ****** ******
  12  ****** ****** ****** ****** ****** ****** ****** ****** ****** ******
      ****** ****** ****** ****** ****** ****** ****** ****** ****** ******
      ****** ****** ****** ****** ****** ****** ****** ****** ****** ******
  13  ****** ****** ****** ****** ****** ****** ****** ****** ****** ******
      ****** ****** ****** ****** ****** ****** ****** ****** ****** ******
      ****** ****** ****** ****** ****** ****** ****** ****** ****** ******
  14  ****** ****** ****** ****** ****** ****** ****** ****** ****** ******
      ****** ****** ****** ****** ****** ****** ****** ****** ****** ******
      ****** ****** ****** ****** ****** ****** ****** ****** ****** ******
  15  ****** ****** ****** ****** ****** ****** ****** ****** ****** ******
      ****** ****** ****** ****** ****** ****** ****** ****** ****** ******
      ****** ****** ****** ****** ****** ****** ****** ****** ****** ******
  16  ****** ****** ****** ****** ****** ****** ****** ****** ****** ******
      ****** ****** ****** ****** ****** ****** ****** ****** ****** ******
      ****** ****** ****** ****** ****** ****** ****** ****** ****** ******
  17  ****** ****** ****** ****** ****** ****** ****** ****** ****** ******
      ****** ****** ****** ****** ****** ****** ****** ****** ****** ******
      ****** ****** ****** ****** ****** ****** ****** ****** ****** ******
  18  ****** ****** ****** ****** ****** ****** ****** ****** ****** ******
      ****** ****** ****** ****** ****** ****** ****** ****** ****** ******
      ****** ****** ****** ****** ****** ****** ****** ****** ****** ******
  19  ****** ****** ****** ****** ****** ****** ****** ****** ****** ******
      ****** ****** ****** ****** ****** ****** ****** ****** ****** ******
      ****** ****** ****** ****** ****** ****** ****** ****** ****** ******
  20  ****** ****** ****** ****** ****** ****** ****** ****** ****** ******
      ****** ****** ****** ****** ****** ****** ****** ****** ****** ******
      ****** ****** ****** ****** ****** ****** ****** ****** ****** ******
  21  ****** ****** ****** ****** ****** ****** ****** ****** ****** ******
      ****** ****** ****** ****** ****** ****** ****** ****** ****** ******
      ****** ****** ****** ****** ****** ****** ****** ****** ****** ******
  22  ****** ****** ****** ****** ****** ****** ****** ****** ****** ******
      ****** ****** ****** ****** ****** ****** ****** ****** ****** ******
      ****** ****** ****** ****** ****** ****** ****** ****** ****** ******
  23  ****** ****** ****** ****** ****** ****** ****** ****** ****** ******
      ****** ****** ****** ****** ****** ****** ****** ****** ****** ******
      ****** ****** ****** ****** ****** ****** ****** ****** ****** ******
  24  ****** ****** ****** ****** ****** ****** ****** ****** ****** ******
      ****** ****** ****** ****** ****** ****** ****** ****** ****** ******
      ****** ****** ****** ****** ****** ****** ****** ****** ****** ******
  25  ****** ****** ****** ****** ****** ****** ****** ****** ****** ******
      ****** ****** ****** ****** ****** ****** ****** ****** ****** ******
      ****** ****** ****** ****** ****** ****** ****** ****** ****** ******

 HEAD WILL BE SAVED ON UNIT   51 AT END OF TIME STEP    1, STRESS PERIOD    3
1
  VOLUMETRIC BUDGET FOR ENTIRE MODEL AT END OF TIME STEP    1, STRESS PERIOD   3
  ------------------------------------------------------------------------------

     CUMULATIVE VOLUMES      L**3       RATES FOR THIS TIME STEP      L**3/T
     ------------------                 ------------------------

           IN:                                      IN:
           ---                                      ---
             STORAGE =    29328710.8606               STORAGE =       59263.3894
       CONSTANT HEAD =     5566089.1092         CONSTANT HEAD =       28311.1211
               WELLS =           0.0000                 WELLS =           0.0000
            RECHARGE =     6292800.0000              RECHARGE =           0.0000
      STREAM LEAKAGE =     1594441.2362        STREAM LEAKAGE =        7104.8284

            TOTAL IN =    42782041.2060              TOTAL IN =       94679.3389

          OUT:                                     OUT:
          ----                                     ----
             STORAGE =           0.0000               STORAGE =           0.0000
       CONSTANT HEAD =           0.0000         CONSTANT HEAD =           0.0000
               WELLS =     8620253.5933                 WELLS =       31460.7795
            RECHARGE =           0.0000              RECHARGE =           0.0000
      STREAM LEAKAGE =    34161789.5385        STREAM LEAKAGE =       63218.5670

           TOTAL OUT =    42782043.1318             TOTAL OUT =       94679.3465

            IN - OUT =          -1.9258              IN - OUT =      -7.5651E-03

 PERCENT DISCREPANCY =          -0.00     PERCENT DISCREPANCY =          -0.00






         TIME SUMMARY AT END OF TIME STEP    1 IN STRESS PERIOD    3
                    SECONDS     MINUTES      HOURS       DAYS        YEARS
                    -----------------------------------------------------------
   TIME STEP LENGTH 7.86240E+06 1.31040E+05  2184.0      91.000     0.24914    
 STRESS PERIOD TIME 7.86240E+06 1.31040E+05  2184.0      91.000     0.24914    
         TOTAL TIME 2.36736E+07 3.94560E+05  6576.0      274.00     0.75017    
1
1
                            STRESS PERIOD NO.    4, LENGTH =   91.00000    
                            -----------------------------------------------

                              NUMBER OF TIME STEPS =     1

                               MULTIPLIER FOR DELT =     1.500

                            INITIAL TIME STEP SIZE =   91.00000    

 WELL NO.  LAYER   ROW   COL   STRESS RATE         
 --------------------------------------------------
      1      1     20     21      -6420.    
      2      1     18     16      -7655.    
      3      1     20     18     -0.1052E+05
      4      1      4      9      -6868.    

      4 WELLS

                 RECHARGE =  1.000000E-03

 REUSING STREAM SEGMENT DATA FROM LAST STRESS PERIOD
 
 SOLVING FOR HEAD 


     6 CALLS TO PCG ROUTINE FOR TIME STEP   1 IN STRESS PERIOD    4
    23 TOTAL ITERATIONS

 OUTPUT CONTROL FOR STRESS PERIOD    4   TIME STEP    1
    SAVE BUDGET
    SAVE HEAD FOR ALL LAYERS
    PRINT HEAD FOR ALL LAYERS
 UBDSV2 SAVING "STREAMFLOW OUT  " ON UNIT  50 AT TIME STEP  1, STRESS PERIOD   4



 STREAM LISTING     PERIOD      4   STEP        1

 LAYER ROW COL. STREAM  RCH.  FLOW INTO     FLOW TO   FLOW OUT OF   OVRLND.     DIRECT     STREAM       STREAM     STREAM     STREAM   STREAMBED  STREAMBED
                SEG.NO.  NO.  STRM. RCH.    AQUIFER    STRM. RCH.    RUNOFF     PRECIP       ET          HEAD       DEPTH      WIDTH   CONDCTNC.   GRADIENT

   1   13    1     1     1    1.0000E+05 -2.2113E+03   1.0221E+05  0.000E+00  0.000E+00  0.000E+00  4.84070E+01  1.456E-01  2.000E+01  2.000E+04 -1.106E-01
   1   13    2     1     2    1.0221E+05 -3.2630E+03   1.0547E+05  0.000E+00  0.000E+00  0.000E+00  4.79321E+01  1.480E-01  2.000E+01  2.000E+04 -1.632E-01
   1   14    3     1     3    1.0547E+05 -5.9464E+02   1.0607E+05  0.000E+00  0.000E+00  0.000E+00  4.74564E+01  1.496E-01  2.000E+01  2.000E+04 -2.973E-02
   1   15    4     1     4    1.0607E+05 -5.6740E+02   1.0664E+05  0.000E+00  0.000E+00  0.000E+00  4.69796E+01  1.501E-01  2.000E+01  2.000E+04 -2.837E-02
   1   16    5     1     5    1.0664E+05 -1.9344E+03   1.0857E+05  0.000E+00  0.000E+00  0.000E+00  4.65034E+01  1.512E-01  2.000E+01  2.000E+04 -9.672E-02
   1   16    6     1     6    1.0857E+05 -1.1848E+03   1.0976E+05  0.000E+00  0.000E+00  0.000E+00  4.60275E+01  1.525E-01  2.000E+01  2.000E+04 -5.924E-02
   1   16    7     1     7    1.0976E+05 -1.1201E+03   1.1088E+05  0.000E+00  0.000E+00  0.000E+00  4.55512E+01  1.534E-01  2.000E+01  2.000E+04 -5.600E-02
   1   16    8     1     8    1.1088E+05 -1.0513E+03   1.1193E+05  0.000E+00  0.000E+00  0.000E+00  4.50748E+01  1.543E-01  2.000E+01  2.000E+04 -5.256E-02
   1   16    9     1     9    1.1193E+05 -9.4814E+02   1.1287E+05  0.000E+00  0.000E+00  0.000E+00  4.45983E+01  1.552E-01  2.000E+01  2.000E+04 -4.741E-02
   1   16   10     1    10    1.1287E+05 -7.9407E+02   1.1367E+05  0.000E+00  0.000E+00  0.000E+00  4.41218E+01  1.559E-01  2.000E+01  2.000E+04 -3.970E-02
   1   16   11     1    11    1.1367E+05 -5.6527E+02   1.1423E+05  0.000E+00  0.000E+00  0.000E+00  4.36451E+01  1.564E-01  2.000E+01  2.000E+04 -2.826E-02
   1   16   12     1    12    1.1423E+05 -3.4809E+02   1.1458E+05  0.000E+00  0.000E+00  0.000E+00  4.31682E+01  1.568E-01  2.000E+01  2.000E+04 -1.740E-02
   1   15   13     1    13    1.1458E+05 -4.6069E+02   1.1504E+05  0.000E+00  0.000E+00  0.000E+00  4.26912E+01  1.572E-01  2.000E+01  2.000E+04 -2.303E-02
   1   14   14     1    14    1.1504E+05 -9.6035E+02   1.1600E+05  0.000E+00  0.000E+00  0.000E+00  4.22146E+01  1.577E-01  2.000E+01  2.000E+04 -4.802E-02
   1   13   15     1    15    1.1600E+05 -1.6390E+03   1.1764E+05  0.000E+00  0.000E+00  0.000E+00  4.17383E+01  1.588E-01  2.000E+01  2.000E+04 -8.195E-02
   1   12   16     1    16    1.1764E+05 -2.9319E+03   1.2057E+05  0.000E+00  0.000E+00  0.000E+00  4.12629E+01  1.607E-01  2.000E+01  2.000E+04 -1.466E-01
   1   12   17     1    17    1.2057E+05 -1.6695E+03   1.2224E+05  0.000E+00  0.000E+00  0.000E+00  4.07875E+01  1.625E-01  2.000E+01  2.000E+04 -8.348E-02
   1   12   18     1    18    1.2224E+05 -1.5817E+03   1.2383E+05  0.000E+00  0.000E+00  0.000E+00  4.03115E+01  1.638E-01  2.000E+01  2.000E+04 -7.909E-02
   1   12   19     1    19    1.2383E+05 -2.3612E+03   1.2619E+05  0.000E+00  0.000E+00  0.000E+00  3.98358E+01  1.654E-01  2.000E+01  2.000E+04 -1.181E-01
   1   13   20     1    20    1.2619E+05 -1.0016E+03   1.2719E+05  0.000E+00  0.000E+00  0.000E+00  3.93599E+01  1.667E-01  2.000E+01  2.000E+04 -5.008E-02
   1   14   21     1    21    1.2719E+05  7.4813E+01   1.2711E+05  0.000E+00  0.000E+00  0.000E+00  3.88830E+01  1.671E-01  2.000E+01  2.000E+04  3.741E-03
   1   14   22     1    22    1.2711E+05  5.1159E+03   1.2200E+05  0.000E+00  0.000E+00  0.000E+00  3.84037E+01  1.650E-01  2.000E+01  2.000E+04  2.558E-01
   1    9   30     2     1    5.0000E+04 -8.8042E+02   5.0880E+04  0.000E+00  0.000E+00  0.000E+00  4.02415E+01  1.165E-01  2.000E+01  2.000E+04 -4.402E-02
   1    9   29     2     2    5.0880E+04 -1.1861E+03   5.2067E+04  0.000E+00  0.000E+00  0.000E+00  3.99929E+01  1.179E-01  2.000E+01  2.000E+04 -5.930E-02
   1    9   28     2     3    5.2067E+04 -1.4601E+03   5.3527E+04  0.000E+00  0.000E+00  0.000E+00  3.97447E+01  1.197E-01  2.000E+01  2.000E+04 -7.301E-02
   1    9   27     2     4    5.3527E+04 -2.8975E+03   5.6424E+04  0.000E+00  0.000E+00  0.000E+00  3.94977E+01  1.227E-01  2.000E+01  2.000E+04 -1.449E-01
   1   10   26     2     5    5.6424E+04 -2.0164E+03   5.8441E+04  0.000E+00  0.000E+00  0.000E+00  3.92509E+01  1.259E-01  2.000E+01  2.000E+04 -1.008E-01
   1   11   25     2     6    5.8441E+04 -1.7763E+03   6.0217E+04  0.000E+00  0.000E+00  0.000E+00  3.90034E+01  1.284E-01  2.000E+01  2.000E+04 -8.882E-02
   1   12   24     2     7    6.0217E+04 -1.8166E+03   6.2034E+04  0.000E+00  0.000E+00  0.000E+00  3.87557E+01  1.307E-01  2.000E+01  2.000E+04 -9.083E-02
   1   13   23     2     8    6.2034E+04 -3.0559E+02   6.2339E+04  0.000E+00  0.000E+00  0.000E+00  3.85071E+01  1.321E-01  2.000E+01  2.000E+04 -1.528E-02
   1   14   22     2     9    6.2339E+04  2.1603E+03   6.0179E+04  0.000E+00  0.000E+00  0.000E+00  3.82559E+01  1.309E-01  2.000E+01  2.000E+04  1.080E-01
   1   14   22     3     1    1.8218E+05 -8.3585E+03   1.9053E+05  0.000E+00  0.000E+00  0.000E+00  3.77299E+01  1.744E-01  2.000E+01  2.000E+04 -4.179E-01
   1   15   23     3     2    1.9053E+05 -2.1852E+02   1.9075E+05  0.000E+00  0.000E+00  0.000E+00  3.68434E+01  1.768E-01  2.000E+01  2.000E+04 -1.093E-02
   1   15   24     3     3    1.9075E+05 -2.2480E+02   1.9098E+05  0.000E+00  0.000E+00  0.000E+00  3.59547E+01  1.769E-01  2.000E+01  2.000E+04 -1.124E-02
   1   15   25     3     4    1.9098E+05 -2.5770E+02   1.9124E+05  0.000E+00  0.000E+00  0.000E+00  3.50659E+01  1.770E-01  2.000E+01  2.000E+04 -1.288E-02
   1   15   26     3     5    1.9124E+05 -3.3856E+02   1.9157E+05  0.000E+00  0.000E+00  0.000E+00  3.41772E+01  1.772E-01  2.000E+01  2.000E+04 -1.693E-02
   1   16   27     3     6    1.9157E+05 -3.5849E+02   1.9193E+05  0.000E+00  0.000E+00  0.000E+00  3.32885E+01  1.774E-01  2.000E+01  2.000E+04 -1.792E-02
   1   17   28     3     7    1.9193E+05 -1.4355E+03   1.9337E+05  0.000E+00  0.000E+00  0.000E+00  3.24001E+01  1.779E-01  2.000E+01  2.000E+04 -7.177E-02
   1   18   29     3     8    1.9337E+05 -2.5127E+03   1.9588E+05  0.000E+00  0.000E+00  0.000E+00  3.15123E+01  1.790E-01  2.000E+01  2.000E+04 -1.256E-01
   1   18   30     3     9    1.9588E+05 -2.9651E+03   1.9885E+05  0.000E+00  0.000E+00  0.000E+00  3.06249E+01  1.805E-01  2.000E+01  2.000E+04 -1.483E-01



1
              HEAD IN LAYER   1 AT END OF TIME STEP   1 IN STRESS PERIOD    4
  ---------------------------------------------------------------------------

          1      2      3      4      5      6      7      8      9     10
         11     12     13     14     15     16     17     18     19     20
         21     22     23     24     25     26     27     28     29     30
 .........................................................................
   1  ****** ****** ****** ****** ****** ****** ****** ****** ****** ******
      ****** ****** ****** ****** ****** ****** ****** ****** ****** ******
      ****** ****** ****** ****** ****** ****** ****** ****** ****** ******
   2  ****** ****** ****** ****** ****** ****** ****** ****** ****** ******
      ****** ****** ****** ****** ****** ****** ****** ****** ****** ******
      ****** ****** ****** ****** ****** ****** ****** ****** ****** ******
   3  ****** ****** ****** ****** ****** ****** ****** ****** ****** ******
      ****** ****** ****** ****** ****** ****** ****** ****** ****** ******
      ****** ****** ****** ****** ****** ****** ****** ****** ****** ******
   4  ****** ****** ****** ****** ****** ****** ****** ****** ****** ******
      ****** ****** ****** ****** ****** ****** ****** ****** ****** ******
      ****** ****** ****** ****** ****** ****** ****** ****** ****** ******
   5  ****** ****** ****** ****** ****** ****** ****** ****** ****** ******
      ****** ****** ****** ****** ****** ****** ****** ****** ****** ******
      ****** ****** ****** ****** ****** ****** ****** ****** ****** ******
   6  ****** ****** ****** ****** ****** ****** ****** ****** ****** ******
      ****** ****** ****** ****** ****** ****** ****** ****** ****** ******
      ****** ****** ****** ****** ****** ****** ****** ****** ****** ******
   7  ****** ****** ****** ****** ****** ****** ****** ****** ****** ******
      ****** ****** ****** ****** ****** ****** ****** ****** ****** ******
      ****** ****** ****** ****** ****** ****** ****** ****** ****** ******
   8  ****** ****** ****** ****** ****** ****** ****** ****** ****** ******
      ****** ****** ****** ****** ****** ****** ****** ****** ****** ******
      ****** ****** ****** ****** ****** ****** ****** ****** ****** ******
   9  ****** ****** ****** ****** ****** ****** ****** ****** ****** ******
      ****** ****** ****** ****** ****** ****** ****** ****** ****** ******
      ****** ****** ****** ****** ****** ****** ****** ****** ****** ******
  10  ****** ****** ****** ****** ****** ****** ****** ****** ****** ******
      ****** ****** ****** ****** ****** ****** ****** ****** ****** ******
      ****** ****** ****** ****** ****** ****** ****** ****** ****** ******
  11  ****** ****** ****** ****** ****** ****** ****** ****** ****** ******
      ****** ****** ****** ****** ****** ****** ****** ****** ****** ******
      ****** ****** ****** ****** ****** ****** ****** ****** ****** ******
  12  ****** ****** ****** ****** ****** ****** ****** ****** ****** ******
      ****** ****** ****** ****** ****** ****** ****** ****** ****** ******
      ****** ****** ****** ****** ****** ****** ****** ****** ****** ******
  13  ****** ****** ****** ****** ****** ****** ****** ****** ****** ******
      ****** ****** ****** ****** ****** ****** ****** ****** ****** ******
      ****** ****** ****** ****** ****** ****** ****** ****** ****** ******
  14  ****** ****** ****** ****** ****** ****** ****** ****** ****** ******
      ****** ****** ****** ****** ****** ****** ****** ****** ****** ******
      ****** ****** ****** ****** ****** ****** ****** ****** ****** ******
  15  ****** ****** ****** ****** ****** ****** ****** ****** ****** ******
      ****** ****** ****** ****** ****** ****** ****** ****** ****** ******
      ****** ****** ****** ****** ****** ****** ****** ****** ****** ******
  16  ****** ****** ****** ****** ****** ****** ****** ****** ****** ******
      ****** ****** ****** ****** ****** ****** ****** ****** ****** ******
      ****** ****** ****** ****** ****** ****** ****** ****** ****** ******
  17  ****** ****** ****** ****** ****** ****** ****** ****** ****** ******
      ****** ****** ****** ****** ****** ****** ****** ****** ****** ******
      ****** ****** ****** ****** ****** ****** ****** ****** ****** ******
  18  ****** ****** ****** ****** ****** ****** ****** ****** ****** ******
      ****** ****** ****** ****** ****** ****** ****** ****** ****** ******
      ****** ****** ****** ****** ****** ****** ****** ****** ****** ******
  19  ****** ****** ****** ****** ****** ****** ****** ****** ****** ******
      ****** ****** ****** ****** ****** ****** ****** ****** ****** ******
      ****** ****** ****** ****** ****** ****** ****** ****** ****** ******
  20  ****** ****** ****** ****** ****** ****** ****** ****** ****** ******
      ****** ****** ****** ****** ****** ****** ****** ****** ****** ******
      ****** ****** ****** ****** ****** ****** ****** ****** ****** ******
  21  ****** ****** ****** ****** ****** ****** ****** ****** ****** ******
      ****** ****** ****** ****** ****** ****** ****** ****** ****** ******
      ****** ****** ****** ****** ****** ****** ****** ****** ****** ******
  22  ****** ****** ****** ****** ****** ****** ****** ****** ****** ******
      ****** ****** ****** ****** ****** ****** ****** ****** ****** ******
      ****** ****** ****** ****** ****** ****** ****** ****** ****** ******
  23  ****** ****** ****** ****** ****** ****** ****** ****** ****** ******
      ****** ****** ****** ****** ****** ****** ****** ****** ****** ******
      ****** ****** ****** ****** ****** ****** ****** ****** ****** ******
  24  ****** ****** ****** ****** ****** ****** ****** ****** ****** ******
      ****** ****** ****** ****** ****** ****** ****** ****** ****** ******
      ****** ****** ****** ****** ****** ****** ****** ****** ****** ******
  25  ****** ****** ****** ****** ****** ****** ****** ****** ****** ******
      ****** ****** ****** ****** ****** ****** ****** ****** ****** ******
      ****** ****** ****** ****** ****** ****** ****** ****** ****** ******

 HEAD WILL BE SAVED ON UNIT   51 AT END OF TIME STEP    1, STRESS PERIOD    4
1
  VOLUMETRIC BUDGET FOR ENTIRE MODEL AT END OF TIME STEP    1, STRESS PERIOD   4
  ------------------------------------------------------------------------------

     CUMULATIVE VOLUMES      L**3       RATES FOR THIS TIME STEP      L**3/T
     ------------------                 ------------------------

           IN:                                      IN:
           ---                                      ---
             STORAGE =    31272896.1505               STORAGE =       21364.6735
       CONSTANT HEAD =     8419433.9723         CONSTANT HEAD =       31355.4381
               WELLS =           0.0000                 WELLS =           0.0000
            RECHARGE =     8804400.0000              RECHARGE =       27600.0000
      STREAM LEAKAGE =     2263386.2489        STREAM LEAKAGE =        7351.0441

            TOTAL IN =    50760116.3716              TOTAL IN =       87671.1557

          OUT:                                     OUT:
          ----                                     ----
             STORAGE =        1188.9446               STORAGE =          13.0653
       CONSTANT HEAD =           0.0000         CONSTANT HEAD =           0.0000
               WELLS =    11483184.5312                 WELLS =       31460.7795
            RECHARGE =           0.0000              RECHARGE =           0.0000
      STREAM LEAKAGE =    39275744.9114        STREAM LEAKAGE =       56197.3118

           TOTAL OUT =    50760118.3872             TOTAL OUT =       87671.1567

            IN - OUT =          -2.0156              IN - OUT =      -9.8648E-04

 PERCENT DISCREPANCY =          -0.00     PERCENT DISCREPANCY =          -0.00






         TIME SUMMARY AT END OF TIME STEP    1 IN STRESS PERIOD    4
                    SECONDS     MINUTES      HOURS       DAYS        YEARS
                    -----------------------------------------------------------
   TIME STEP LENGTH 7.86240E+06 1.31040E+05  2184.0      91.000     0.24914    
 STRESS PERIOD TIME 7.86240E+06 1.31040E+05  2184.0      91.000     0.24914    
         TOTAL TIME 3.15360E+07 5.25600E+05  8760.0      365.00     0.99932    
1
1
                            STRESS PERIOD NO.    5, LENGTH =   92.00000    
                            -----------------------------------------------

                              NUMBER OF TIME STEPS =     1

                               MULTIPLIER FOR DELT =     1.500

                            INITIAL TIME STEP SIZE =   92.00000    

 WELL NO.  LAYER   ROW   COL   STRESS RATE         
 --------------------------------------------------
      1      1     20     21      -6420.    
      2      1     18     16      -7655.    
      3      1     20     18     -0.1052E+05
      4      1      4      9      -6868.    

      4 WELLS

                 RECHARGE =  5.000000E-04

 REUSING STREAM SEGMENT DATA FROM LAST STRESS PERIOD
 
 SOLVING FOR HEAD 


     7 CALLS TO PCG ROUTINE FOR TIME STEP   1 IN STRESS PERIOD    5
    26 TOTAL ITERATIONS

 OUTPUT CONTROL FOR STRESS PERIOD    5   TIME STEP    1
    SAVE BUDGET
    SAVE HEAD FOR ALL LAYERS
    PRINT HEAD FOR ALL LAYERS
 UBDSV2 SAVING "STREAMFLOW OUT  " ON UNIT  50 AT TIME STEP  1, STRESS PERIOD   5



 STREAM LISTING     PERIOD      5   STEP        1

 LAYER ROW COL. STREAM  RCH.  FLOW INTO     FLOW TO   FLOW OUT OF   OVRLND.     DIRECT     STREAM       STREAM     STREAM     STREAM   STREAMBED  STREAMBED
                SEG.NO.  NO.  STRM. RCH.    AQUIFER    STRM. RCH.    RUNOFF     PRECIP       ET          HEAD       DEPTH      WIDTH   CONDCTNC.   GRADIENT

   1   13    1     1     1    1.0000E+05 -1.7523E+03   1.0175E+05  0.000E+00  0.000E+00  0.000E+00  4.84068E+01  1.454E-01  2.000E+01  2.000E+04 -8.761E-02
   1   13    2     1     2    1.0175E+05 -2.7450E+03   1.0450E+05  0.000E+00  0.000E+00  0.000E+00  4.79314E+01  1.473E-01  2.000E+01  2.000E+04 -1.373E-01
   1   14    3     1     3    1.0450E+05 -4.6583E+02   1.0496E+05  0.000E+00  0.000E+00  0.000E+00  4.74555E+01  1.487E-01  2.000E+01  2.000E+04 -2.329E-02
   1   15    4     1     4    1.0496E+05 -4.3250E+02   1.0540E+05  0.000E+00  0.000E+00  0.000E+00  4.69786E+01  1.491E-01  2.000E+01  2.000E+04 -2.163E-02
   1   16    5     1     5    1.0540E+05 -1.4785E+03   1.0687E+05  0.000E+00  0.000E+00  0.000E+00  4.65022E+01  1.499E-01  2.000E+01  2.000E+04 -7.393E-02
   1   16    6     1     6    1.0687E+05 -9.1606E+02   1.0779E+05  0.000E+00  0.000E+00  0.000E+00  4.60259E+01  1.509E-01  2.000E+01  2.000E+04 -4.580E-02
   1   16    7     1     7    1.0779E+05 -8.6058E+02   1.0865E+05  0.000E+00  0.000E+00  0.000E+00  4.55494E+01  1.517E-01  2.000E+01  2.000E+04 -4.303E-02
   1   16    8     1     8    1.0865E+05 -7.9360E+02   1.0944E+05  0.000E+00  0.000E+00  0.000E+00  4.50728E+01  1.524E-01  2.000E+01  2.000E+04 -3.968E-02
   1   16    9     1     9    1.0944E+05 -6.9109E+02   1.1014E+05  0.000E+00  0.000E+00  0.000E+00  4.45962E+01  1.530E-01  2.000E+01  2.000E+04 -3.455E-02
   1   16   10     1    10    1.1014E+05 -5.3735E+02   1.1067E+05  0.000E+00  0.000E+00  0.000E+00  4.41194E+01  1.535E-01  2.000E+01  2.000E+04 -2.687E-02
   1   16   11     1    11    1.1067E+05 -3.0306E+02   1.1098E+05  0.000E+00  0.000E+00  0.000E+00  4.36425E+01  1.539E-01  2.000E+01  2.000E+04 -1.515E-02
   1   16   12     1    12    1.1098E+05  1.3021E+02   1.1085E+05  0.000E+00  0.000E+00  0.000E+00  4.31653E+01  1.539E-01  2.000E+01  2.000E+04  6.511E-03
   1   15   13     1    13    1.1085E+05  3.1799E+01   1.1081E+05  0.000E+00  0.000E+00  0.000E+00  4.26879E+01  1.539E-01  2.000E+01  2.000E+04  1.590E-03
   1   14   14     1    14    1.1081E+05 -4.4332E+02   1.1126E+05  0.000E+00  0.000E+00  0.000E+00  4.22108E+01  1.540E-01  2.000E+01  2.000E+04 -2.217E-02
   1   13   15     1    15    1.1126E+05 -1.1104E+03   1.1237E+05  0.000E+00  0.000E+00  0.000E+00  4.17342E+01  1.547E-01  2.000E+01  2.000E+04 -5.552E-02
   1   12   16     1    16    1.1237E+05 -2.3686E+03   1.1474E+05  0.000E+00  0.000E+00  0.000E+00  4.12584E+01  1.561E-01  2.000E+01  2.000E+04 -1.184E-01
   1   12   17     1    17    1.1474E+05 -1.2891E+03   1.1603E+05  0.000E+00  0.000E+00  0.000E+00  4.07826E+01  1.576E-01  2.000E+01  2.000E+04 -6.446E-02
   1   12   18     1    18    1.1603E+05 -1.2209E+03   1.1725E+05  0.000E+00  0.000E+00  0.000E+00  4.03064E+01  1.586E-01  2.000E+01  2.000E+04 -6.104E-02
   1   12   19     1    19    1.1725E+05 -1.9335E+03   1.1918E+05  0.000E+00  0.000E+00  0.000E+00  3.98304E+01  1.599E-01  2.000E+01  2.000E+04 -9.668E-02
   1   13   20     1    20    1.1918E+05 -6.0893E+02   1.1979E+05  0.000E+00  0.000E+00  0.000E+00  3.93541E+01  1.610E-01  2.000E+01  2.000E+04 -3.045E-02
   1   14   21     1    21    1.1979E+05  5.2221E+02   1.1927E+05  0.000E+00  0.000E+00  0.000E+00  3.88769E+01  1.610E-01  2.000E+01  2.000E+04  2.611E-02
   1   14   22     1    22    1.1927E+05  5.2035E+03   1.1406E+05  0.000E+00  0.000E+00  0.000E+00  3.83973E+01  1.587E-01  2.000E+01  2.000E+04  2.602E-01
   1    9   30     2     1    5.0000E+04 -6.5163E+02   5.0652E+04  0.000E+00  0.000E+00  0.000E+00  4.02413E+01  1.163E-01  2.000E+01  2.000E+04 -3.258E-02
   1    9   29     2     2    5.0652E+04 -9.5374E+02   5.1605E+04  0.000E+00  0.000E+00  0.000E+00  3.99924E+01  1.174E-01  2.000E+01  2.000E+04 -4.769E-02
   1    9   28     2     3    5.1605E+04 -1.2159E+03   5.2821E+04  0.000E+00  0.000E+00  0.000E+00  3.97439E+01  1.189E-01  2.000E+01  2.000E+04 -6.079E-02
   1    9   27     2     4    5.2821E+04 -2.5118E+03   5.5333E+04  0.000E+00  0.000E+00  0.000E+00  3.94964E+01  1.214E-01  2.000E+01  2.000E+04 -1.256E-01
   1   10   26     2     5    5.5333E+04 -1.6783E+03   5.7011E+04  0.000E+00  0.000E+00  0.000E+00  3.92492E+01  1.242E-01  2.000E+01  2.000E+04 -8.391E-02
   1   11   25     2     6    5.7011E+04 -1.4649E+03   5.8476E+04  0.000E+00  0.000E+00  0.000E+00  3.90013E+01  1.263E-01  2.000E+01  2.000E+04 -7.325E-02
   1   12   24     2     7    5.8476E+04 -1.5311E+03   6.0007E+04  0.000E+00  0.000E+00  0.000E+00  3.87533E+01  1.283E-01  2.000E+01  2.000E+04 -7.655E-02
   1   13   23     2     8    6.0007E+04 -2.3670E+02   6.0244E+04  0.000E+00  0.000E+00  0.000E+00  3.85044E+01  1.294E-01  2.000E+01  2.000E+04 -1.183E-02
   1   14   22     2     9    6.0244E+04  2.3189E+03   5.7925E+04  0.000E+00  0.000E+00  0.000E+00  3.82531E+01  1.281E-01  2.000E+01  2.000E+04  1.159E-01
   1   14   22     3     1    1.7199E+05 -8.2600E+03   1.8025E+05  0.000E+00  0.000E+00  0.000E+00  3.77241E+01  1.686E-01  2.000E+01  2.000E+04 -4.130E-01
   1   15   23     3     2    1.8025E+05 -1.0241E+02   1.8035E+05  0.000E+00  0.000E+00  0.000E+00  3.68376E+01  1.710E-01  2.000E+01  2.000E+04 -5.120E-03
   1   15   24     3     3    1.8035E+05 -1.4362E+02   1.8049E+05  0.000E+00  0.000E+00  0.000E+00  3.59488E+01  1.710E-01  2.000E+01  2.000E+04 -7.181E-03
   1   15   25     3     4    1.8049E+05 -1.7870E+02   1.8067E+05  0.000E+00  0.000E+00  0.000E+00  3.50600E+01  1.711E-01  2.000E+01  2.000E+04 -8.935E-03
   1   15   26     3     5    1.8067E+05 -2.6163E+02   1.8093E+05  0.000E+00  0.000E+00  0.000E+00  3.41712E+01  1.712E-01  2.000E+01  2.000E+04 -1.308E-02
   1   16   27     3     6    1.8093E+05 -2.5905E+02   1.8119E+05  0.000E+00  0.000E+00  0.000E+00  3.32825E+01  1.714E-01  2.000E+01  2.000E+04 -1.295E-02
   1   17   28     3     7    1.8119E+05 -1.1348E+03   1.8233E+05  0.000E+00  0.000E+00  0.000E+00  3.23940E+01  1.718E-01  2.000E+01  2.000E+04 -5.674E-02
   1   18   29     3     8    1.8233E+05 -2.0674E+03   1.8440E+05  0.000E+00  0.000E+00  0.000E+00  3.15060E+01  1.727E-01  2.000E+01  2.000E+04 -1.034E-01
   1   18   30     3     9    1.8440E+05 -2.6646E+03   1.8706E+05  0.000E+00  0.000E+00  0.000E+00  3.06185E+01  1.740E-01  2.000E+01  2.000E+04 -1.332E-01



1
              HEAD IN LAYER   1 AT END OF TIME STEP   1 IN STRESS PERIOD    5
  ---------------------------------------------------------------------------

          1      2      3      4      5      6      7      8      9     10
         11     12     13     14     15     16     17     18     19     20
         21     22     23     24     25     26     27     28     29     30
 .........................................................................
   1  ****** ****** ****** ****** ****** ****** ****** ****** ****** ******
      ****** ****** ****** ****** ****** ****** ****** ****** ****** ******
      ****** ****** ****** ****** ****** ****** ****** ****** ****** ******
   2  ****** ****** ****** ****** ****** ****** ****** ****** ****** ******
      ****** ****** ****** ****** ****** ****** ****** ****** ****** ******
      ****** ****** ****** ****** ****** ****** ****** ****** ****** ******
   3  ****** ****** ****** ****** ****** ****** ****** ****** ****** ******
      ****** ****** ****** ****** ****** ****** ****** ****** ****** ******
      ****** ****** ****** ****** ****** ****** ****** ****** ****** ******
   4  ****** ****** ****** ****** ****** ****** ****** ****** ****** ******
      ****** ****** ****** ****** ****** ****** ****** ****** ****** ******
      ****** ****** ****** ****** ****** ****** ****** ****** ****** ******
   5  ****** ****** ****** ****** ****** ****** ****** ****** ****** ******
      ****** ****** ****** ****** ****** ****** ****** ****** ****** ******
      ****** ****** ****** ****** ****** ****** ****** ****** ****** ******
   6  ****** ****** ****** ****** ****** ****** ****** ****** ****** ******
      ****** ****** ****** ****** ****** ****** ****** ****** ****** ******
      ****** ****** ****** ****** ****** ****** ****** ****** ****** ******
   7  ****** ****** ****** ****** ****** ****** ****** ****** ****** ******
      ****** ****** ****** ****** ****** ****** ****** ****** ****** ******
      ****** ****** ****** ****** ****** ****** ****** ****** ****** ******
   8  ****** ****** ****** ****** ****** ****** ****** ****** ****** ******
      ****** ****** ****** ****** ****** ****** ****** ****** ****** ******
      ****** ****** ****** ****** ****** ****** ****** ****** ****** ******
   9  ****** ****** ****** ****** ****** ****** ****** ****** ****** ******
      ****** ****** ****** ****** ****** ****** ****** ****** ****** ******
      ****** ****** ****** ****** ****** ****** ****** ****** ****** ******
  10  ****** ****** ****** ****** ****** ****** ****** ****** ****** ******
      ****** ****** ****** ****** ****** ****** ****** ****** ****** ******
      ****** ****** ****** ****** ****** ****** ****** ****** ****** ******
  11  ****** ****** ****** ****** ****** ****** ****** ****** ****** ******
      ****** ****** ****** ****** ****** ****** ****** ****** ****** ******
      ****** ****** ****** ****** ****** ****** ****** ****** ****** ******
  12  ****** ****** ****** ****** ****** ****** ****** ****** ****** ******
      ****** ****** ****** ****** ****** ****** ****** ****** ****** ******
      ****** ****** ****** ****** ****** ****** ****** ****** ****** ******
  13  ****** ****** ****** ****** ****** ****** ****** ****** ****** ******
      ****** ****** ****** ****** ****** ****** ****** ****** ****** ******
      ****** ****** ****** ****** ****** ****** ****** ****** ****** ******
  14  ****** ****** ****** ****** ****** ****** ****** ****** ****** ******
      ****** ****** ****** ****** ****** ****** ****** ****** ****** ******
      ****** ****** ****** ****** ****** ****** ****** ****** ****** ******
  15  ****** ****** ****** ****** ****** ****** ****** ****** ****** ******
      ****** ****** ****** ****** ****** ****** ****** ****** ****** ******
      ****** ****** ****** ****** ****** ****** ****** ****** ****** ******
  16  ****** ****** ****** ****** ****** ****** ****** ****** ****** ******
      ****** ****** ****** ****** ****** ****** ****** ****** ****** ******
      ****** ****** ****** ****** ****** ****** ****** ****** ****** ******
  17  ****** ****** ****** ****** ****** ****** ****** ****** ****** ******
      ****** ****** ****** ****** ****** ****** ****** ****** ****** ******
      ****** ****** ****** ****** ****** ****** ****** ****** ****** ******
  18  ****** ****** ****** ****** ****** ****** ****** ****** ****** ******
      ****** ****** ****** ****** ****** ****** ****** ****** ****** ******
      ****** ****** ****** ****** ****** ****** ****** ****** ****** ******
  19  ****** ****** ****** ****** ****** ****** ****** ****** ****** ******
      ****** ****** ****** ****** ****** ****** ****** ****** ****** ******
      ****** ****** ****** ****** ****** ****** ****** ****** ****** ******
  20  ****** ****** ****** ****** ****** ****** ****** ****** ****** ******
      ****** ****** ****** ****** ****** ****** ****** ****** ****** ******
      ****** ****** ****** ****** ****** ****** ****** ****** ****** ******
  21  ****** ****** ****** ****** ****** ****** ****** ****** ****** ******
      ****** ****** ****** ****** ****** ****** ****** ****** ****** ******
      ****** ****** ****** ****** ****** ****** ****** ****** ****** ******
  22  ****** ****** ****** ****** ****** ****** ****** ****** ****** ******
      ****** ****** ****** ****** ****** ****** ****** ****** ****** ******
      ****** ****** ****** ****** ****** ****** ****** ****** ****** ******
  23  ****** ****** ****** ****** ****** ****** ****** ****** ****** ******
      ****** ****** ****** ****** ****** ****** ****** ****** ****** ******
      ****** ****** ****** ****** ****** ****** ****** ****** ****** ******
  24  ****** ****** ****** ****** ****** ****** ****** ****** ****** ******
      ****** ****** ****** ****** ****** ****** ****** ****** ****** ******
      ****** ****** ****** ****** ****** ****** ****** ****** ****** ******
  25  ****** ****** ****** ****** ****** ****** ****** ****** ****** ******
      ****** ****** ****** ****** ****** ****** ****** ****** ****** ******
      ****** ****** ****** ****** ****** ****** ****** ****** ****** ******

 HEAD WILL BE SAVED ON UNIT   51 AT END OF TIME STEP    1, STRESS PERIOD    5
1
  VOLUMETRIC BUDGET FOR ENTIRE MODEL AT END OF TIME STEP    1, STRESS PERIOD   5
  ------------------------------------------------------------------------------

     CUMULATIVE VOLUMES      L**3       RATES FOR THIS TIME STEP      L**3/T
     ------------------                 ------------------------

           IN:                                      IN:
           ---                                      ---
             STORAGE =    33127428.3224               STORAGE =       20157.9584
       CONSTANT HEAD =    11599234.0614         CONSTANT HEAD =       34563.0444
               WELLS =           0.0000                 WELLS =           0.0000
            RECHARGE =    10074000.0000              RECHARGE =       13800.0000
      STREAM LEAKAGE =     3018401.1160        STREAM LEAKAGE =        8206.6833

            TOTAL IN =    57819063.4998              TOTAL IN =       76727.6862

          OUT:                                     OUT:
          ----                                     ----
             STORAGE =        1188.9446               STORAGE =           0.0000
       CONSTANT HEAD =           0.0000         CONSTANT HEAD =           0.0000
               WELLS =    14377576.2487                 WELLS =       31460.7795
            RECHARGE =           0.0000              RECHARGE =           0.0000
      STREAM LEAKAGE =    43440300.6346        STREAM LEAKAGE =       45266.9100

           TOTAL OUT =    57819065.8278             TOTAL OUT =       76727.6896

            IN - OUT =          -2.3280              IN - OUT =      -3.3962E-03

 PERCENT DISCREPANCY =          -0.00     PERCENT DISCREPANCY =          -0.00






         TIME SUMMARY AT END OF TIME STEP    1 IN STRESS PERIOD    5
                    SECONDS     MINUTES      HOURS       DAYS        YEARS
                    -----------------------------------------------------------
   TIME STEP LENGTH 7.94880E+06 1.32480E+05  2208.0      92.000     0.25188    
 STRESS PERIOD TIME 7.94880E+06 1.32480E+05  2208.0      92.000     0.25188    
         TOTAL TIME 3.94848E+07 6.58080E+05  10968.      457.00      1.2512    
1
1
                            STRESS PERIOD NO.    6, LENGTH =   91.00000    
                            -----------------------------------------------

                              NUMBER OF TIME STEPS =     1

                               MULTIPLIER FOR DELT =     1.500

                            INITIAL TIME STEP SIZE =   91.00000    

 WELL NO.  LAYER   ROW   COL   STRESS RATE         
 --------------------------------------------------
      1      1     20     21      -6420.    
      2      1     18     16      -7655.    
      3      1     20     18     -0.1052E+05
      4      1      4      9      -6868.    

      4 WELLS

                 RECHARGE =  2.000000E-03

 REUSING STREAM SEGMENT DATA FROM LAST STRESS PERIOD
 
 SOLVING FOR HEAD 


     7 CALLS TO PCG ROUTINE FOR TIME STEP   1 IN STRESS PERIOD    6
    26 TOTAL ITERATIONS

 OUTPUT CONTROL FOR STRESS PERIOD    6   TIME STEP    1
    SAVE BUDGET
    SAVE HEAD FOR ALL LAYERS
    PRINT HEAD FOR ALL LAYERS
 UBDSV2 SAVING "STREAMFLOW OUT  " ON UNIT  50 AT TIME STEP  1, STRESS PERIOD   6



 STREAM LISTING     PERIOD      6   STEP        1

 LAYER ROW COL. STREAM  RCH.  FLOW INTO     FLOW TO   FLOW OUT OF   OVRLND.     DIRECT     STREAM       STREAM     STREAM     STREAM   STREAMBED  STREAMBED
                SEG.NO.  NO.  STRM. RCH.    AQUIFER    STRM. RCH.    RUNOFF     PRECIP       ET          HEAD       DEPTH      WIDTH   CONDCTNC.   GRADIENT

   1   13    1     1     1    1.0000E+05 -2.0369E+03   1.0204E+05  0.000E+00  0.000E+00  0.000E+00  4.84069E+01  1.455E-01  2.000E+01  2.000E+04 -1.018E-01
   1   13    2     1     2    1.0204E+05 -3.0557E+03   1.0509E+05  0.000E+00  0.000E+00  0.000E+00  4.79318E+01  1.477E-01  2.000E+01  2.000E+04 -1.528E-01
   1   14    3     1     3    1.0509E+05 -6.1584E+02   1.0571E+05  0.000E+00  0.000E+00  0.000E+00  4.74561E+01  1.493E-01  2.000E+01  2.000E+04 -3.079E-02
   1   15    4     1     4    1.0571E+05 -5.9440E+02   1.0630E+05  0.000E+00  0.000E+00  0.000E+00  4.69793E+01  1.498E-01  2.000E+01  2.000E+04 -2.972E-02
   1   16    5     1     5    1.0630E+05 -1.9596E+03   1.0826E+05  0.000E+00  0.000E+00  0.000E+00  4.65032E+01  1.509E-01  2.000E+01  2.000E+04 -9.798E-02
   1   16    6     1     6    1.0826E+05 -1.1970E+03   1.0946E+05  0.000E+00  0.000E+00  0.000E+00  4.60272E+01  1.522E-01  2.000E+01  2.000E+04 -5.985E-02
   1   16    7     1     7    1.0946E+05 -1.1258E+03   1.1059E+05  0.000E+00  0.000E+00  0.000E+00  4.55509E+01  1.532E-01  2.000E+01  2.000E+04 -5.629E-02
   1   16    8     1     8    1.1059E+05 -1.0535E+03   1.1164E+05  0.000E+00  0.000E+00  0.000E+00  4.50745E+01  1.541E-01  2.000E+01  2.000E+04 -5.267E-02
   1   16    9     1     9    1.1164E+05 -9.4955E+02   1.1259E+05  0.000E+00  0.000E+00  0.000E+00  4.45981E+01  1.549E-01  2.000E+01  2.000E+04 -4.748E-02
   1   16   10     1    10    1.1259E+05 -7.9616E+02   1.1338E+05  0.000E+00  0.000E+00  0.000E+00  4.41216E+01  1.556E-01  2.000E+01  2.000E+04 -3.981E-02
   1   16   11     1    11    1.1338E+05 -5.6294E+02   1.1395E+05  0.000E+00  0.000E+00  0.000E+00  4.36448E+01  1.562E-01  2.000E+01  2.000E+04 -2.815E-02
   1   16   12     1    12    1.1395E+05 -2.8223E+02   1.1423E+05  0.000E+00  0.000E+00  0.000E+00  4.31679E+01  1.566E-01  2.000E+01  2.000E+04 -1.411E-02
   1   15   13     1    13    1.1423E+05 -3.9326E+02   1.1462E+05  0.000E+00  0.000E+00  0.000E+00  4.26909E+01  1.568E-01  2.000E+01  2.000E+04 -1.966E-02
   1   14   14     1    14    1.1462E+05 -8.6402E+02   1.1549E+05  0.000E+00  0.000E+00  0.000E+00  4.22142E+01  1.574E-01  2.000E+01  2.000E+04 -4.320E-02
   1   13   15     1    15    1.1549E+05 -1.5138E+03   1.1700E+05  0.000E+00  0.000E+00  0.000E+00  4.17379E+01  1.583E-01  2.000E+01  2.000E+04 -7.569E-02
   1   12   16     1    16    1.1700E+05 -2.7301E+03   1.1973E+05  0.000E+00  0.000E+00  0.000E+00  4.12623E+01  1.601E-01  2.000E+01  2.000E+04 -1.365E-01
   1   12   17     1    17    1.1973E+05 -1.5870E+03   1.2132E+05  0.000E+00  0.000E+00  0.000E+00  4.07868E+01  1.618E-01  2.000E+01  2.000E+04 -7.935E-02
   1   12   18     1    18    1.2132E+05 -1.5242E+03   1.2284E+05  0.000E+00  0.000E+00  0.000E+00  4.03108E+01  1.630E-01  2.000E+01  2.000E+04 -7.621E-02
   1   12   19     1    19    1.2284E+05 -2.3158E+03   1.2516E+05  0.000E+00  0.000E+00  0.000E+00  3.98350E+01  1.646E-01  2.000E+01  2.000E+04 -1.158E-01
   1   13   20     1    20    1.2516E+05 -1.0110E+03   1.2617E+05  0.000E+00  0.000E+00  0.000E+00  3.93591E+01  1.659E-01  2.000E+01  2.000E+04 -5.055E-02
   1   14   21     1    21    1.2617E+05  1.4586E+02   1.2602E+05  0.000E+00  0.000E+00  0.000E+00  3.88822E+01  1.662E-01  2.000E+01  2.000E+04  7.293E-03
   1   14   22     1    22    1.2602E+05  5.1038E+03   1.2092E+05  0.000E+00  0.000E+00  0.000E+00  3.84028E+01  1.642E-01  2.000E+01  2.000E+04  2.552E-01
   1    9   30     2     1    5.0000E+04 -1.0164E+03   5.1016E+04  0.000E+00  0.000E+00  0.000E+00  4.02416E+01  1.166E-01  2.000E+01  2.000E+04 -5.082E-02
   1    9   29     2     2    5.1016E+04 -1.3141E+03   5.2330E+04  0.000E+00  0.000E+00  0.000E+00  3.99932E+01  1.182E-01  2.000E+01  2.000E+04 -6.570E-02
   1    9   28     2     3    5.2330E+04 -1.5694E+03   5.3900E+04  0.000E+00  0.000E+00  0.000E+00  3.97451E+01  1.201E-01  2.000E+01  2.000E+04 -7.847E-02
   1    9   27     2     4    5.3900E+04 -2.9583E+03   5.6858E+04  0.000E+00  0.000E+00  0.000E+00  3.94982E+01  1.232E-01  2.000E+01  2.000E+04 -1.479E-01
   1   10   26     2     5    5.6858E+04 -2.1480E+03   5.9006E+04  0.000E+00  0.000E+00  0.000E+00  3.92516E+01  1.266E-01  2.000E+01  2.000E+04 -1.074E-01
   1   11   25     2     6    5.9006E+04 -1.9195E+03   6.0925E+04  0.000E+00  0.000E+00  0.000E+00  3.90042E+01  1.292E-01  2.000E+01  2.000E+04 -9.597E-02
   1   12   24     2     7    6.0925E+04 -1.9402E+03   6.2866E+04  0.000E+00  0.000E+00  0.000E+00  3.87567E+01  1.317E-01  2.000E+01  2.000E+04 -9.701E-02
   1   13   23     2     8    6.2866E+04 -3.7433E+02   6.3240E+04  0.000E+00  0.000E+00  0.000E+00  3.85082E+01  1.332E-01  2.000E+01  2.000E+04 -1.872E-02
   1   14   22     2     9    6.3240E+04  2.1881E+03   6.1052E+04  0.000E+00  0.000E+00  0.000E+00  3.82570E+01  1.320E-01  2.000E+01  2.000E+04  1.094E-01
   1   14   22     3     1    1.8197E+05 -8.3557E+03   1.9033E+05  0.000E+00  0.000E+00  0.000E+00  3.77298E+01  1.743E-01  2.000E+01  2.000E+04 -4.178E-01
   1   15   23     3     2    1.9033E+05 -2.3078E+02   1.9056E+05  0.000E+00  0.000E+00  0.000E+00  3.68433E+01  1.767E-01  2.000E+01  2.000E+04 -1.154E-02
   1   15   24     3     3    1.9056E+05 -2.6075E+02   1.9082E+05  0.000E+00  0.000E+00  0.000E+00  3.59546E+01  1.768E-01  2.000E+01  2.000E+04 -1.304E-02
   1   15   25     3     4    1.9082E+05 -3.0102E+02   1.9112E+05  0.000E+00  0.000E+00  0.000E+00  3.50658E+01  1.770E-01  2.000E+01  2.000E+04 -1.505E-02
   1   15   26     3     5    1.9112E+05 -4.1042E+02   1.9153E+05  0.000E+00  0.000E+00  0.000E+00  3.41772E+01  1.772E-01  2.000E+01  2.000E+04 -2.052E-02
   1   16   27     3     6    1.9153E+05 -4.2297E+02   1.9195E+05  0.000E+00  0.000E+00  0.000E+00  3.32885E+01  1.774E-01  2.000E+01  2.000E+04 -2.115E-02
   1   17   28     3     7    1.9195E+05 -1.5806E+03   1.9353E+05  0.000E+00  0.000E+00  0.000E+00  3.24002E+01  1.779E-01  2.000E+01  2.000E+04 -7.903E-02
   1   18   29     3     8    1.9353E+05 -2.4703E+03   1.9600E+05  0.000E+00  0.000E+00  0.000E+00  3.15124E+01  1.791E-01  2.000E+01  2.000E+04 -1.235E-01
   1   18   30     3     9    1.9600E+05 -2.9987E+03   1.9900E+05  0.000E+00  0.000E+00  0.000E+00  3.06250E+01  1.806E-01  2.000E+01  2.000E+04 -1.499E-01



1
              HEAD IN LAYER   1 AT END OF TIME STEP   1 IN STRESS PERIOD    6
  ---------------------------------------------------------------------------

          1      2      3      4      5      6      7      8      9     10
         11     12     13     14     15     16     17     18     19     20
         21     22     23     24     25     26     27     28     29     30
 .........................................................................
   1  ****** ****** ****** ****** ****** ****** ****** ****** ****** ******
      ****** ****** ****** ****** ****** ****** ****** ****** ****** ******
      ****** ****** ****** ****** ****** ****** ****** ****** ****** ******
   2  ****** ****** ****** ****** ****** ****** ****** ****** ****** ******
      ****** ****** ****** ****** ****** ****** ****** ****** ****** ******
      ****** ****** ****** ****** ****** ****** ****** ****** ****** ******
   3  ****** ****** ****** ****** ****** ****** ****** ****** ****** ******
      ****** ****** ****** ****** ****** ****** ****** ****** ****** ******
      ****** ****** ****** ****** ****** ****** ****** ****** ****** ******
   4  ****** ****** ****** ****** ****** ****** ****** ****** ****** ******
      ****** ****** ****** ****** ****** ****** ****** ****** ****** ******
      ****** ****** ****** ****** ****** ****** ****** ****** ****** ******
   5  ****** ****** ****** ****** ****** ****** ****** ****** ****** ******
      ****** ****** ****** ****** ****** ****** ****** ****** ****** ******
      ****** ****** ****** ****** ****** ****** ****** ****** ****** ******
   6  ****** ****** ****** ****** ****** ****** ****** ****** ****** ******
      ****** ****** ****** ****** ****** ****** ****** ****** ****** ******
      ****** ****** ****** ****** ****** ****** ****** ****** ****** ******
   7  ****** ****** ****** ****** ****** ****** ****** ****** ****** ******
      ****** ****** ****** ****** ****** ****** ****** ****** ****** ******
      ****** ****** ****** ****** ****** ****** ****** ****** ****** ******
   8  ****** ****** ****** ****** ****** ****** ****** ****** ****** ******
      ****** ****** ****** ****** ****** ****** ****** ****** ****** ******
      ****** ****** ****** ****** ****** ****** ****** ****** ****** ******
   9  ****** ****** ****** ****** ****** ****** ****** ****** ****** ******
      ****** ****** ****** ****** ****** ****** ****** ****** ****** ******
      ****** ****** ****** ****** ****** ****** ****** ****** ****** ******
  10  ****** ****** ****** ****** ****** ****** ****** ****** ****** ******
      ****** ****** ****** ****** ****** ****** ****** ****** ****** ******
      ****** ****** ****** ****** ****** ****** ****** ****** ****** ******
  11  ****** ****** ****** ****** ****** ****** ****** ****** ****** ******
      ****** ****** ****** ****** ****** ****** ****** ****** ****** ******
      ****** ****** ****** ****** ****** ****** ****** ****** ****** ******
  12  ****** ****** ****** ****** ****** ****** ****** ****** ****** ******
      ****** ****** ****** ****** ****** ****** ****** ****** ****** ******
      ****** ****** ****** ****** ****** ****** ****** ****** ****** ******
  13  ****** ****** ****** ****** ****** ****** ****** ****** ****** ******
      ****** ****** ****** ****** ****** ****** ****** ****** ****** ******
      ****** ****** ****** ****** ****** ****** ****** ****** ****** ******
  14  ****** ****** ****** ****** ****** ****** ****** ****** ****** ******
      ****** ****** ****** ****** ****** ****** ****** ****** ****** ******
      ****** ****** ****** ****** ****** ****** ****** ****** ****** ******
  15  ****** ****** ****** ****** ****** ****** ****** ****** ****** ******
      ****** ****** ****** ****** ****** ****** ****** ****** ****** ******
      ****** ****** ****** ****** ****** ****** ****** ****** ****** ******
  16  ****** ****** ****** ****** ****** ****** ****** ****** ****** ******
      ****** ****** ****** ****** ****** ****** ****** ****** ****** ******
      ****** ****** ****** ****** ****** ****** ****** ****** ****** ******
  17  ****** ****** ****** ****** ****** ****** ****** ****** ****** ******
      ****** ****** ****** ****** ****** ****** ****** ****** ****** ******
      ****** ****** ****** ****** ****** ****** ****** ****** ****** ******
  18  ****** ****** ****** ****** ****** ****** ****** ****** ****** ******
      ****** ****** ****** ****** ****** ****** ****** ****** ****** ******
      ****** ****** ****** ****** ****** ****** ****** ****** ****** ******
  19  ****** ****** ****** ****** ****** ****** ****** ****** ****** ******
      ****** ****** ****** ****** ****** ****** ****** ****** ****** ******
      ****** ****** ****** ****** ****** ****** ****** ****** ****** ******
  20  ****** ****** ****** ****** ****** ****** ****** ****** ****** ******
      ****** ****** ****** ****** ****** ****** ****** ****** ****** ******
      ****** ****** ****** ****** ****** ****** ****** ****** ****** ******
  21  ****** ****** ****** ****** ****** ****** ****** ****** ****** ******
      ****** ****** ****** ****** ****** ****** ****** ****** ****** ******
      ****** ****** ****** ****** ****** ****** ****** ****** ****** ******
  22  ****** ****** ****** ****** ****** ****** ****** ****** ****** ******
      ****** ****** ****** ****** ****** ****** ****** ****** ****** ******
      ****** ****** ****** ****** ****** ****** ****** ****** ****** ******
  23  ****** ****** ****** ****** ****** ****** ****** ****** ****** ******
      ****** ****** ****** ****** ****** ****** ****** ****** ****** ******
      ****** ****** ****** ****** ****** ****** ****** ****** ****** ******
  24  ****** ****** ****** ****** ****** ****** ****** ****** ****** ******
      ****** ****** ****** ****** ****** ****** ****** ****** ****** ******
      ****** ****** ****** ****** ****** ****** ****** ****** ****** ******
  25  ****** ****** ****** ****** ****** ****** ****** ****** ****** ******
      ****** ****** ****** ****** ****** ****** ****** ****** ****** ******
      ****** ****** ****** ****** ****** ****** ****** ****** ****** ******

 HEAD WILL BE SAVED ON UNIT   51 AT END OF TIME STEP    1, STRESS PERIOD    6
1
  VOLUMETRIC BUDGET FOR ENTIRE MODEL AT END OF TIME STEP    1, STRESS PERIOD   6
  ------------------------------------------------------------------------------

     CUMULATIVE VOLUMES      L**3       RATES FOR THIS TIME STEP      L**3/T
     ------------------                 ------------------------

           IN:                                      IN:
           ---                                      ---
             STORAGE =    33129501.9582               STORAGE =          22.7872
       CONSTANT HEAD =    14587188.4539         CONSTANT HEAD =       32834.6637
               WELLS =           0.0000                 WELLS =           0.0000
            RECHARGE =    15097200.0000              RECHARGE =       55200.0000
      STREAM LEAKAGE =     3695237.4199        STREAM LEAKAGE =        7437.7616

            TOTAL IN =    66509127.8320              TOTAL IN =       95495.2124

          OUT:                                     OUT:
          ----                                     ----
             STORAGE =      692260.1681               STORAGE =        7594.1893
       CONSTANT HEAD =           0.0000         CONSTANT HEAD =           0.0000
               WELLS =    17240507.1866                 WELLS =       31460.7795
            RECHARGE =           0.0000              RECHARGE =           0.0000
      STREAM LEAKAGE =    48576362.5511        STREAM LEAKAGE =       56440.2408

           TOTAL OUT =    66509129.9058             TOTAL OUT =       95495.2096

            IN - OUT =          -2.0737              IN - OUT =       2.7940E-03

 PERCENT DISCREPANCY =          -0.00     PERCENT DISCREPANCY =           0.00






         TIME SUMMARY AT END OF TIME STEP    1 IN STRESS PERIOD    6
                    SECONDS     MINUTES      HOURS       DAYS        YEARS
                    -----------------------------------------------------------
   TIME STEP LENGTH 7.86240E+06 1.31040E+05  2184.0      91.000     0.24914    
 STRESS PERIOD TIME 7.86240E+06 1.31040E+05  2184.0      91.000     0.24914    
         TOTAL TIME 4.73472E+07 7.89120E+05  13152.      548.00      1.5003    
1
1
                            STRESS PERIOD NO.    7, LENGTH =   91.00000    
                            -----------------------------------------------

                              NUMBER OF TIME STEPS =     1

                               MULTIPLIER FOR DELT =     1.500

                            INITIAL TIME STEP SIZE =   91.00000    

 WELL NO.  LAYER   ROW   COL   STRESS RATE         
 --------------------------------------------------
      1      1     20     21      -6420.    
      2      1     18     16      -7655.    
      3      1     20     18     -0.1052E+05
      4      1      4      9      -6868.    

      4 WELLS

                 RECHARGE =   0.00000    

 REUSING STREAM SEGMENT DATA FROM LAST STRESS PERIOD
 
 SOLVING FOR HEAD 


     7 CALLS TO PCG ROUTINE FOR TIME STEP   1 IN STRESS PERIOD    7
    26 TOTAL ITERATIONS

 OUTPUT CONTROL FOR STRESS PERIOD    7   TIME STEP    1
    SAVE BUDGET
    SAVE HEAD FOR ALL LAYERS
    PRINT HEAD FOR ALL LAYERS
 UBDSV2 SAVING "STREAMFLOW OUT  " ON UNIT  50 AT TIME STEP  1, STRESS PERIOD   7



 STREAM LISTING     PERIOD      7   STEP        1

 LAYER ROW COL. STREAM  RCH.  FLOW INTO     FLOW TO   FLOW OUT OF   OVRLND.     DIRECT     STREAM       STREAM     STREAM     STREAM   STREAMBED  STREAMBED
                SEG.NO.  NO.  STRM. RCH.    AQUIFER    STRM. RCH.    RUNOFF     PRECIP       ET          HEAD       DEPTH      WIDTH   CONDCTNC.   GRADIENT

   1   13    1     1     1    1.0000E+05 -1.3502E+03   1.0135E+05  0.000E+00  0.000E+00  0.000E+00  4.84066E+01  1.452E-01  2.000E+01  2.000E+04 -6.751E-02
   1   13    2     1     2    1.0135E+05 -2.2869E+03   1.0364E+05  0.000E+00  0.000E+00  0.000E+00  4.79309E+01  1.468E-01  2.000E+01  2.000E+04 -1.143E-01
   1   14    3     1     3    1.0364E+05 -3.6035E+02   1.0400E+05  0.000E+00  0.000E+00  0.000E+00  4.74548E+01  1.479E-01  2.000E+01  2.000E+04 -1.802E-02
   1   15    4     1     4    1.0400E+05 -3.2850E+02   1.0433E+05  0.000E+00  0.000E+00  0.000E+00  4.69778E+01  1.482E-01  2.000E+01  2.000E+04 -1.643E-02
   1   16    5     1     5    1.0433E+05 -1.1968E+03   1.0552E+05  0.000E+00  0.000E+00  0.000E+00  4.65012E+01  1.489E-01  2.000E+01  2.000E+04 -5.984E-02
   1   16    6     1     6    1.0552E+05 -7.3623E+02   1.0626E+05  0.000E+00  0.000E+00  0.000E+00  4.60247E+01  1.497E-01  2.000E+01  2.000E+04 -3.681E-02
   1   16    7     1     7    1.0626E+05 -6.8313E+02   1.0694E+05  0.000E+00  0.000E+00  0.000E+00  4.55480E+01  1.503E-01  2.000E+01  2.000E+04 -3.416E-02
   1   16    8     1     8    1.0694E+05 -6.1638E+02   1.0756E+05  0.000E+00  0.000E+00  0.000E+00  4.50713E+01  1.509E-01  2.000E+01  2.000E+04 -3.082E-02
   1   16    9     1     9    1.0756E+05 -5.1520E+02   1.0807E+05  0.000E+00  0.000E+00  0.000E+00  4.45945E+01  1.513E-01  2.000E+01  2.000E+04 -2.576E-02
   1   16   10     1    10    1.0807E+05 -3.6376E+02   1.0844E+05  0.000E+00  0.000E+00  0.000E+00  4.41176E+01  1.517E-01  2.000E+01  2.000E+04 -1.819E-02
   1   16   11     1    11    1.0844E+05 -1.2836E+02   1.0857E+05  0.000E+00  0.000E+00  0.000E+00  4.36405E+01  1.519E-01  2.000E+01  2.000E+04 -6.418E-03
   1   16   12     1    12    1.0857E+05  4.5154E+02   1.0811E+05  0.000E+00  0.000E+00  0.000E+00  4.31631E+01  1.518E-01  2.000E+01  2.000E+04  2.258E-02
   1   15   13     1    13    1.0811E+05  3.9185E+02   1.0772E+05  0.000E+00  0.000E+00  0.000E+00  4.26855E+01  1.514E-01  2.000E+01  2.000E+04  1.959E-02
   1   14   14     1    14    1.0772E+05 -5.0939E+01   1.0777E+05  0.000E+00  0.000E+00  0.000E+00  4.22081E+01  1.513E-01  2.000E+01  2.000E+04 -2.547E-03
   1   13   15     1    15    1.0777E+05 -6.9946E+02   1.0847E+05  0.000E+00  0.000E+00  0.000E+00  4.17311E+01  1.516E-01  2.000E+01  2.000E+04 -3.497E-02
   1   12   16     1    16    1.0847E+05 -1.9235E+03   1.1040E+05  0.000E+00  0.000E+00  0.000E+00  4.12550E+01  1.527E-01  2.000E+01  2.000E+04 -9.617E-02
   1   12   17     1    17    1.1040E+05 -1.0016E+03   1.1140E+05  0.000E+00  0.000E+00  0.000E+00  4.07789E+01  1.539E-01  2.000E+01  2.000E+04 -5.008E-02
   1   12   18     1    18    1.1140E+05 -9.5385E+02   1.1235E+05  0.000E+00  0.000E+00  0.000E+00  4.03025E+01  1.547E-01  2.000E+01  2.000E+04 -4.769E-02
   1   12   19     1    19    1.1235E+05 -1.6216E+03   1.1397E+05  0.000E+00  0.000E+00  0.000E+00  3.98262E+01  1.558E-01  2.000E+01  2.000E+04 -8.108E-02
   1   13   20     1    20    1.1397E+05 -3.3104E+02   1.1430E+05  0.000E+00  0.000E+00  0.000E+00  3.93498E+01  1.566E-01  2.000E+01  2.000E+04 -1.655E-02
   1   14   21     1    21    1.1430E+05  8.2487E+02   1.1348E+05  0.000E+00  0.000E+00  0.000E+00  3.88723E+01  1.564E-01  2.000E+01  2.000E+04  4.124E-02
   1   14   22     1    22    1.1348E+05  5.2604E+03   1.0822E+05  0.000E+00  0.000E+00  0.000E+00  3.83925E+01  1.539E-01  2.000E+01  2.000E+04  2.630E-01
   1    9   30     2     1    5.0000E+04 -5.0301E+02   5.0503E+04  0.000E+00  0.000E+00  0.000E+00  4.02412E+01  1.162E-01  2.000E+01  2.000E+04 -2.515E-02
   1    9   29     2     2    5.0503E+04 -8.0244E+02   5.1305E+04  0.000E+00  0.000E+00  0.000E+00  3.99921E+01  1.171E-01  2.000E+01  2.000E+04 -4.012E-02
   1    9   28     2     3    5.1305E+04 -1.0563E+03   5.2362E+04  0.000E+00  0.000E+00  0.000E+00  3.97434E+01  1.184E-01  2.000E+01  2.000E+04 -5.281E-02
   1    9   27     2     4    5.2362E+04 -2.2605E+03   5.4622E+04  0.000E+00  0.000E+00  0.000E+00  3.94957E+01  1.207E-01  2.000E+01  2.000E+04 -1.130E-01
   1   10   26     2     5    5.4622E+04 -1.4480E+03   5.6070E+04  0.000E+00  0.000E+00  0.000E+00  3.92481E+01  1.231E-01  2.000E+01  2.000E+04 -7.240E-02
   1   11   25     2     6    5.6070E+04 -1.2478E+03   5.7318E+04  0.000E+00  0.000E+00  0.000E+00  3.89999E+01  1.249E-01  2.000E+01  2.000E+04 -6.239E-02
   1   12   24     2     7    5.7318E+04 -1.3275E+03   5.8645E+04  0.000E+00  0.000E+00  0.000E+00  3.87516E+01  1.266E-01  2.000E+01  2.000E+04 -6.637E-02
   1   13   23     2     8    5.8645E+04 -1.8215E+02   5.8828E+04  0.000E+00  0.000E+00  0.000E+00  3.85026E+01  1.276E-01  2.000E+01  2.000E+04 -9.108E-03
   1   14   22     2     9    5.8828E+04  2.4332E+03   5.6394E+04  0.000E+00  0.000E+00  0.000E+00  3.82511E+01  1.261E-01  2.000E+01  2.000E+04  1.217E-01
   1   14   22     3     1    1.6461E+05 -8.1931E+03   1.7281E+05  0.000E+00  0.000E+00  0.000E+00  3.77198E+01  1.643E-01  2.000E+01  2.000E+04 -4.097E-01
   1   15   23     3     2    1.7281E+05 -1.9927E+01   1.7283E+05  0.000E+00  0.000E+00  0.000E+00  3.68333E+01  1.667E-01  2.000E+01  2.000E+04 -9.963E-04
   1   15   24     3     3    1.7283E+05 -8.4675E+01   1.7291E+05  0.000E+00  0.000E+00  0.000E+00  3.59445E+01  1.667E-01  2.000E+01  2.000E+04 -4.234E-03
   1   15   25     3     4    1.7291E+05 -1.2220E+02   1.7303E+05  0.000E+00  0.000E+00  0.000E+00  3.50556E+01  1.668E-01  2.000E+01  2.000E+04 -6.110E-03
   1   15   26     3     5    1.7303E+05 -2.0787E+02   1.7324E+05  0.000E+00  0.000E+00  0.000E+00  3.41669E+01  1.669E-01  2.000E+01  2.000E+04 -1.039E-02
   1   16   27     3     6    1.7324E+05 -1.8814E+02   1.7343E+05  0.000E+00  0.000E+00  0.000E+00  3.32781E+01  1.670E-01  2.000E+01  2.000E+04 -9.407E-03
   1   17   28     3     7    1.7343E+05 -9.3030E+02   1.7436E+05  0.000E+00  0.000E+00  0.000E+00  3.23895E+01  1.673E-01  2.000E+01  2.000E+04 -4.651E-02
   1   18   29     3     8    1.7436E+05 -1.7652E+03   1.7612E+05  0.000E+00  0.000E+00  0.000E+00  3.15014E+01  1.681E-01  2.000E+01  2.000E+04 -8.826E-02
   1   18   30     3     9    1.7612E+05 -2.4587E+03   1.7858E+05  0.000E+00  0.000E+00  0.000E+00  3.06137E+01  1.693E-01  2.000E+01  2.000E+04 -1.229E-01



1
              HEAD IN LAYER   1 AT END OF TIME STEP   1 IN STRESS PERIOD    7
  ---------------------------------------------------------------------------

          1      2      3      4      5      6      7      8      9     10
         11     12     13     14     15     16     17     18     19     20
         21     22     23     24     25     26     27     28     29     30
 .........................................................................
   1  ****** ****** ****** ****** ****** ****** ****** ****** ****** ******
      ****** ****** ****** ****** ****** ****** ****** ****** ****** ******
      ****** ****** ****** ****** ****** ****** ****** ****** ****** ******
   2  ****** ****** ****** ****** ****** ****** ****** ****** ****** ******
      ****** ****** ****** ****** ****** ****** ****** ****** ****** ******
      ****** ****** ****** ****** ****** ****** ****** ****** ****** ******
   3  ****** ****** ****** ****** ****** ****** ****** ****** ****** ******
      ****** ****** ****** ****** ****** ****** ****** ****** ****** ******
      ****** ****** ****** ****** ****** ****** ****** ****** ****** ******
   4  ****** ****** ****** ****** ****** ****** ****** ****** ****** ******
      ****** ****** ****** ****** ****** ****** ****** ****** ****** ******
      ****** ****** ****** ****** ****** ****** ****** ****** ****** ******
   5  ****** ****** ****** ****** ****** ****** ****** ****** ****** ******
      ****** ****** ****** ****** ****** ****** ****** ****** ****** ******
      ****** ****** ****** ****** ****** ****** ****** ****** ****** ******
   6  ****** ****** ****** ****** ****** ****** ****** ****** ****** ******
      ****** ****** ****** ****** ****** ****** ****** ****** ****** ******
      ****** ****** ****** ****** ****** ****** ****** ****** ****** ******
   7  ****** ****** ****** ****** ****** ****** ****** ****** ****** ******
      ****** ****** ****** ****** ****** ****** ****** ****** ****** ******
      ****** ****** ****** ****** ****** ****** ****** ****** ****** ******
   8  ****** ****** ****** ****** ****** ****** ****** ****** ****** ******
      ****** ****** ****** ****** ****** ****** ****** ****** ****** ******
      ****** ****** ****** ****** ****** ****** ****** ****** ****** ******
   9  ****** ****** ****** ****** ****** ****** ****** ****** ****** ******
      ****** ****** ****** ****** ****** ****** ****** ****** ****** ******
      ****** ****** ****** ****** ****** ****** ****** ****** ****** ******
  10  ****** ****** ****** ****** ****** ****** ****** ****** ****** ******
      ****** ****** ****** ****** ****** ****** ****** ****** ****** ******
      ****** ****** ****** ****** ****** ****** ****** ****** ****** ******
  11  ****** ****** ****** ****** ****** ****** ****** ****** ****** ******
      ****** ****** ****** ****** ****** ****** ****** ****** ****** ******
      ****** ****** ****** ****** ****** ****** ****** ****** ****** ******
  12  ****** ****** ****** ****** ****** ****** ****** ****** ****** ******
      ****** ****** ****** ****** ****** ****** ****** ****** ****** ******
      ****** ****** ****** ****** ****** ****** ****** ****** ****** ******
  13  ****** ****** ****** ****** ****** ****** ****** ****** ****** ******
      ****** ****** ****** ****** ****** ****** ****** ****** ****** ******
      ****** ****** ****** ****** ****** ****** ****** ****** ****** ******
  14  ****** ****** ****** ****** ****** ****** ****** ****** ****** ******
      ****** ****** ****** ****** ****** ****** ****** ****** ****** ******
      ****** ****** ****** ****** ****** ****** ****** ****** ****** ******
  15  ****** ****** ****** ****** ****** ****** ****** ****** ****** ******
      ****** ****** ****** ****** ****** ****** ****** ****** ****** ******
      ****** ****** ****** ****** ****** ****** ****** ****** ****** ******
  16  ****** ****** ****** ****** ****** ****** ****** ****** ****** ******
      ****** ****** ****** ****** ****** ****** ****** ****** ****** ******
      ****** ****** ****** ****** ****** ****** ****** ****** ****** ******
  17  ****** ****** ****** ****** ****** ****** ****** ****** ****** ******
      ****** ****** ****** ****** ****** ****** ****** ****** ****** ******
      ****** ****** ****** ****** ****** ****** ****** ****** ****** ******
  18  ****** ****** ****** ****** ****** ****** ****** ****** ****** ******
      ****** ****** ****** ****** ****** ****** ****** ****** ****** ******
      ****** ****** ****** ****** ****** ****** ****** ****** ****** ******
  19  ****** ****** ****** ****** ****** ****** ****** ****** ****** ******
      ****** ****** ****** ****** ****** ****** ****** ****** ****** ******
      ****** ****** ****** ****** ****** ****** ****** ****** ****** ******
  20  ****** ****** ****** ****** ****** ****** ****** ****** ****** ******
      ****** ****** ****** ****** ****** ****** ****** ****** ****** ******
      ****** ****** ****** ****** ****** ****** ****** ****** ****** ******
  21  ****** ****** ****** ****** ****** ****** ****** ****** ****** ******
      ****** ****** ****** ****** ****** ****** ****** ****** ****** ******
      ****** ****** ****** ****** ****** ****** ****** ****** ****** ******
  22  ****** ****** ****** ****** ****** ****** ****** ****** ****** ******
      ****** ****** ****** ****** ****** ****** ****** ****** ****** ******
      ****** ****** ****** ****** ****** ****** ****** ****** ****** ******
  23  ****** ****** ****** ****** ****** ****** ****** ****** ****** ******
      ****** ****** ****** ****** ****** ****** ****** ****** ****** ******
      ****** ****** ****** ****** ****** ****** ****** ****** ****** ******
  24  ****** ****** ****** ****** ****** ****** ****** ****** ****** ******
      ****** ****** ****** ****** ****** ****** ****** ****** ****** ******
      ****** ****** ****** ****** ****** ****** ****** ****** ****** ******
  25  ****** ****** ****** ****** ****** ****** ****** ****** ****** ******
      ****** ****** ****** ****** ****** ****** ****** ****** ****** ******
      ****** ****** ****** ****** ****** ****** ****** ****** ****** ******

 HEAD WILL BE SAVED ON UNIT   51 AT END OF TIME STEP    1, STRESS PERIOD    7
1
  VOLUMETRIC BUDGET FOR ENTIRE MODEL AT END OF TIME STEP    1, STRESS PERIOD   7
  ------------------------------------------------------------------------------

     CUMULATIVE VOLUMES      L**3       RATES FOR THIS TIME STEP      L**3/T
     ------------------                 ------------------------

           IN:                                      IN:
           ---                                      ---
             STORAGE =    35237960.4233               STORAGE =       23169.8732
       CONSTANT HEAD =    17942769.8251         CONSTANT HEAD =       36874.5206
               WELLS =           0.0000                 WELLS =           0.0000
            RECHARGE =    15097200.0000              RECHARGE =           0.0000
      STREAM LEAKAGE =     4547166.4264        STREAM LEAKAGE =        9361.8572

            TOTAL IN =    72825096.6749              TOTAL IN =       69406.2510

          OUT:                                     OUT:
          ----                                     ----
             STORAGE =      692260.1681               STORAGE =           0.0000
       CONSTANT HEAD =           0.0000         CONSTANT HEAD =           0.0000
               WELLS =    20103438.1245                 WELLS =       31460.7795
            RECHARGE =           0.0000              RECHARGE =           0.0000
      STREAM LEAKAGE =    52029400.9655        STREAM LEAKAGE =       37945.4771

           TOTAL OUT =    72825099.2580             TOTAL OUT =       69406.2566

            IN - OUT =          -2.5831              IN - OUT =      -5.5975E-03

 PERCENT DISCREPANCY =          -0.00     PERCENT DISCREPANCY =          -0.00






         TIME SUMMARY AT END OF TIME STEP    1 IN STRESS PERIOD    7
                    SECONDS     MINUTES      HOURS       DAYS        YEARS
                    -----------------------------------------------------------
   TIME STEP LENGTH 7.86240E+06 1.31040E+05  2184.0      91.000     0.24914    
 STRESS PERIOD TIME 7.86240E+06 1.31040E+05  2184.0      91.000     0.24914    
         TOTAL TIME 5.52096E+07 9.20160E+05  15336.      639.00      1.7495    
1
1
                            STRESS PERIOD NO.    8, LENGTH =   91.00000    
                            -----------------------------------------------

                              NUMBER OF TIME STEPS =     1

                               MULTIPLIER FOR DELT =     1.500

                            INITIAL TIME STEP SIZE =   91.00000    

 WELL NO.  LAYER   ROW   COL   STRESS RATE         
 --------------------------------------------------
      1      1     20     21      -6420.    
      2      1     18     16      -7655.    
      3      1     20     18     -0.1052E+05
      4      1      4      9      -6868.    

      4 WELLS

                 RECHARGE =  1.000000E-03

 REUSING STREAM SEGMENT DATA FROM LAST STRESS PERIOD
 
 SOLVING FOR HEAD 


     6 CALLS TO PCG ROUTINE FOR TIME STEP   1 IN STRESS PERIOD    8
    22 TOTAL ITERATIONS

 OUTPUT CONTROL FOR STRESS PERIOD    8   TIME STEP    1
    SAVE BUDGET
    SAVE HEAD FOR ALL LAYERS
    PRINT HEAD FOR ALL LAYERS
 UBDSV2 SAVING "STREAMFLOW OUT  " ON UNIT  50 AT TIME STEP  1, STRESS PERIOD   8



 STREAM LISTING     PERIOD      8   STEP        1

 LAYER ROW COL. STREAM  RCH.  FLOW INTO     FLOW TO   FLOW OUT OF   OVRLND.     DIRECT     STREAM       STREAM     STREAM     STREAM   STREAMBED  STREAMBED
                SEG.NO.  NO.  STRM. RCH.    AQUIFER    STRM. RCH.    RUNOFF     PRECIP       ET          HEAD       DEPTH      WIDTH   CONDCTNC.   GRADIENT

   1   13    1     1     1    1.0000E+05 -1.4094E+03   1.0141E+05  0.000E+00  0.000E+00  0.000E+00  4.84066E+01  1.453E-01  2.000E+01  2.000E+04 -7.047E-02
   1   13    2     1     2    1.0141E+05 -2.3434E+03   1.0375E+05  0.000E+00  0.000E+00  0.000E+00  4.79310E+01  1.469E-01  2.000E+01  2.000E+04 -1.172E-01
   1   14    3     1     3    1.0375E+05 -4.2180E+02   1.0417E+05  0.000E+00  0.000E+00  0.000E+00  4.74549E+01  1.481E-01  2.000E+01  2.000E+04 -2.109E-02
   1   15    4     1     4    1.0417E+05 -3.9489E+02   1.0457E+05  0.000E+00  0.000E+00  0.000E+00  4.69780E+01  1.484E-01  2.000E+01  2.000E+04 -1.974E-02
   1   16    5     1     5    1.0457E+05 -1.3650E+03   1.0593E+05  0.000E+00  0.000E+00  0.000E+00  4.65014E+01  1.492E-01  2.000E+01  2.000E+04 -6.825E-02
   1   16    6     1     6    1.0593E+05 -8.3911E+02   1.0677E+05  0.000E+00  0.000E+00  0.000E+00  4.60251E+01  1.501E-01  2.000E+01  2.000E+04 -4.196E-02
   1   16    7     1     7    1.0677E+05 -7.8086E+02   1.0755E+05  0.000E+00  0.000E+00  0.000E+00  4.55485E+01  1.508E-01  2.000E+01  2.000E+04 -3.904E-02
   1   16    8     1     8    1.0755E+05 -7.1315E+02   1.0827E+05  0.000E+00  0.000E+00  0.000E+00  4.50719E+01  1.514E-01  2.000E+01  2.000E+04 -3.566E-02
   1   16    9     1     9    1.0827E+05 -6.1302E+02   1.0888E+05  0.000E+00  0.000E+00  0.000E+00  4.45952E+01  1.520E-01  2.000E+01  2.000E+04 -3.065E-02
   1   16   10     1    10    1.0888E+05 -4.6398E+02   1.0934E+05  0.000E+00  0.000E+00  0.000E+00  4.41183E+01  1.524E-01  2.000E+01  2.000E+04 -2.320E-02
   1   16   11     1    11    1.0934E+05 -2.3132E+02   1.0958E+05  0.000E+00  0.000E+00  0.000E+00  4.36414E+01  1.527E-01  2.000E+01  2.000E+04 -1.157E-02
   1   16   12     1    12    1.0958E+05  3.0035E+02   1.0928E+05  0.000E+00  0.000E+00  0.000E+00  4.31640E+01  1.527E-01  2.000E+01  2.000E+04  1.502E-02
   1   15   13     1    13    1.0928E+05  2.3440E+02   1.0904E+05  0.000E+00  0.000E+00  0.000E+00  4.26866E+01  1.525E-01  2.000E+01  2.000E+04  1.172E-02
   1   14   14     1    14    1.0904E+05 -2.0055E+02   1.0924E+05  0.000E+00  0.000E+00  0.000E+00  4.22093E+01  1.524E-01  2.000E+01  2.000E+04 -1.003E-02
   1   13   15     1    15    1.0924E+05 -8.3591E+02   1.1008E+05  0.000E+00  0.000E+00  0.000E+00  4.17324E+01  1.529E-01  2.000E+01  2.000E+04 -4.180E-02
   1   12   16     1    16    1.1008E+05 -2.0215E+03   1.1210E+05  0.000E+00  0.000E+00  0.000E+00  4.12563E+01  1.541E-01  2.000E+01  2.000E+04 -1.011E-01
   1   12   17     1    17    1.1210E+05 -1.1050E+03   1.1320E+05  0.000E+00  0.000E+00  0.000E+00  4.07804E+01  1.554E-01  2.000E+01  2.000E+04 -5.525E-02
   1   12   18     1    18    1.1320E+05 -1.0650E+03   1.1427E+05  0.000E+00  0.000E+00  0.000E+00  4.03040E+01  1.563E-01  2.000E+01  2.000E+04 -5.325E-02
   1   12   19     1    19    1.1427E+05 -1.7636E+03   1.1603E+05  0.000E+00  0.000E+00  0.000E+00  3.98279E+01  1.574E-01  2.000E+01  2.000E+04 -8.818E-02
   1   13   20     1    20    1.1603E+05 -5.0205E+02   1.1653E+05  0.000E+00  0.000E+00  0.000E+00  3.93515E+01  1.584E-01  2.000E+01  2.000E+04 -2.510E-02
   1   14   21     1    21    1.1653E+05  6.7682E+02   1.1586E+05  0.000E+00  0.000E+00  0.000E+00  3.88742E+01  1.583E-01  2.000E+01  2.000E+04  3.384E-02
   1   14   22     1    22    1.1586E+05  5.2149E+03   1.1064E+05  0.000E+00  0.000E+00  0.000E+00  3.83945E+01  1.559E-01  2.000E+01  2.000E+04  2.607E-01
   1    9   30     2     1    5.0000E+04 -6.6562E+02   5.0666E+04  0.000E+00  0.000E+00  0.000E+00  4.02413E+01  1.163E-01  2.000E+01  2.000E+04 -3.328E-02
   1    9   29     2     2    5.0666E+04 -9.6217E+02   5.1628E+04  0.000E+00  0.000E+00  0.000E+00  3.99925E+01  1.175E-01  2.000E+01  2.000E+04 -4.811E-02
   1    9   28     2     3    5.1628E+04 -1.2102E+03   5.2838E+04  0.000E+00  0.000E+00  0.000E+00  3.97439E+01  1.189E-01  2.000E+01  2.000E+04 -6.051E-02
   1    9   27     2     4    5.2838E+04 -2.4364E+03   5.5274E+04  0.000E+00  0.000E+00  0.000E+00  3.94964E+01  1.214E-01  2.000E+01  2.000E+04 -1.218E-01
   1   10   26     2     5    5.5274E+04 -1.6510E+03   5.6925E+04  0.000E+00  0.000E+00  0.000E+00  3.92492E+01  1.242E-01  2.000E+01  2.000E+04 -8.255E-02
   1   11   25     2     6    5.6925E+04 -1.4493E+03   5.8375E+04  0.000E+00  0.000E+00  0.000E+00  3.90012E+01  1.262E-01  2.000E+01  2.000E+04 -7.247E-02
   1   12   24     2     7    5.8375E+04 -1.5101E+03   5.9885E+04  0.000E+00  0.000E+00  0.000E+00  3.87531E+01  1.281E-01  2.000E+01  2.000E+04 -7.550E-02
   1   13   23     2     8    5.9885E+04 -2.5604E+02   6.0141E+04  0.000E+00  0.000E+00  0.000E+00  3.85043E+01  1.293E-01  2.000E+01  2.000E+04 -1.280E-02
   1   14   22     2     9    6.0141E+04  2.3829E+03   5.7758E+04  0.000E+00  0.000E+00  0.000E+00  3.82529E+01  1.279E-01  2.000E+01  2.000E+04  1.191E-01
   1   14   22     3     1    1.6840E+05 -8.2341E+03   1.7664E+05  0.000E+00  0.000E+00  0.000E+00  3.77221E+01  1.665E-01  2.000E+01  2.000E+04 -4.117E-01
   1   15   23     3     2    1.7664E+05 -8.1560E+01   1.7672E+05  0.000E+00  0.000E+00  0.000E+00  3.68356E+01  1.689E-01  2.000E+01  2.000E+04 -4.078E-03
   1   15   24     3     3    1.7672E+05 -1.4371E+02   1.7686E+05  0.000E+00  0.000E+00  0.000E+00  3.59467E+01  1.690E-01  2.000E+01  2.000E+04 -7.186E-03
   1   15   25     3     4    1.7686E+05 -1.8314E+02   1.7704E+05  0.000E+00  0.000E+00  0.000E+00  3.50579E+01  1.690E-01  2.000E+01  2.000E+04 -9.157E-03
   1   15   26     3     5    1.7704E+05 -2.8168E+02   1.7733E+05  0.000E+00  0.000E+00  0.000E+00  3.41692E+01  1.692E-01  2.000E+01  2.000E+04 -1.408E-02
   1   16   27     3     6    1.7733E+05 -2.6841E+02   1.7759E+05  0.000E+00  0.000E+00  0.000E+00  3.32805E+01  1.693E-01  2.000E+01  2.000E+04 -1.342E-02
   1   17   28     3     7    1.7759E+05 -1.1286E+03   1.7872E+05  0.000E+00  0.000E+00  0.000E+00  3.23920E+01  1.697E-01  2.000E+01  2.000E+04 -5.643E-02
   1   18   29     3     8    1.7872E+05 -1.9191E+03   1.8064E+05  0.000E+00  0.000E+00  0.000E+00  3.15039E+01  1.706E-01  2.000E+01  2.000E+04 -9.596E-02
   1   18   30     3     9    1.8064E+05 -2.5984E+03   1.8324E+05  0.000E+00  0.000E+00  0.000E+00  3.06163E+01  1.719E-01  2.000E+01  2.000E+04 -1.299E-01



1
              HEAD IN LAYER   1 AT END OF TIME STEP   1 IN STRESS PERIOD    8
  ---------------------------------------------------------------------------

          1      2      3      4      5      6      7      8      9     10
         11     12     13     14     15     16     17     18     19     20
         21     22     23     24     25     26     27     28     29     30
 .........................................................................
   1  ****** ****** ****** ****** ****** ****** ****** ****** ****** ******
      ****** ****** ****** ****** ****** ****** ****** ****** ****** ******
      ****** ****** ****** ****** ****** ****** ****** ****** ****** ******
   2  ****** ****** ****** ****** ****** ****** ****** ****** ****** ******
      ****** ****** ****** ****** ****** ****** ****** ****** ****** ******
      ****** ****** ****** ****** ****** ****** ****** ****** ****** ******
   3  ****** ****** ****** ****** ****** ****** ****** ****** ****** ******
      ****** ****** ****** ****** ****** ****** ****** ****** ****** ******
      ****** ****** ****** ****** ****** ****** ****** ****** ****** ******
   4  ****** ****** ****** ****** ****** ****** ****** ****** ****** ******
      ****** ****** ****** ****** ****** ****** ****** ****** ****** ******
      ****** ****** ****** ****** ****** ****** ****** ****** ****** ******
   5  ****** ****** ****** ****** ****** ****** ****** ****** ****** ******
      ****** ****** ****** ****** ****** ****** ****** ****** ****** ******
      ****** ****** ****** ****** ****** ****** ****** ****** ****** ******
   6  ****** ****** ****** ****** ****** ****** ****** ****** ****** ******
      ****** ****** ****** ****** ****** ****** ****** ****** ****** ******
      ****** ****** ****** ****** ****** ****** ****** ****** ****** ******
   7  ****** ****** ****** ****** ****** ****** ****** ****** ****** ******
      ****** ****** ****** ****** ****** ****** ****** ****** ****** ******
      ****** ****** ****** ****** ****** ****** ****** ****** ****** ******
   8  ****** ****** ****** ****** ****** ****** ****** ****** ****** ******
      ****** ****** ****** ****** ****** ****** ****** ****** ****** ******
      ****** ****** ****** ****** ****** ****** ****** ****** ****** ******
   9  ****** ****** ****** ****** ****** ****** ****** ****** ****** ******
      ****** ****** ****** ****** ****** ****** ****** ****** ****** ******
      ****** ****** ****** ****** ****** ****** ****** ****** ****** ******
  10  ****** ****** ****** ****** ****** ****** ****** ****** ****** ******
      ****** ****** ****** ****** ****** ****** ****** ****** ****** ******
      ****** ****** ****** ****** ****** ****** ****** ****** ****** ******
  11  ****** ****** ****** ****** ****** ****** ****** ****** ****** ******
      ****** ****** ****** ****** ****** ****** ****** ****** ****** ******
      ****** ****** ****** ****** ****** ****** ****** ****** ****** ******
  12  ****** ****** ****** ****** ****** ****** ****** ****** ****** ******
      ****** ****** ****** ****** ****** ****** ****** ****** ****** ******
      ****** ****** ****** ****** ****** ****** ****** ****** ****** ******
  13  ****** ****** ****** ****** ****** ****** ****** ****** ****** ******
      ****** ****** ****** ****** ****** ****** ****** ****** ****** ******
      ****** ****** ****** ****** ****** ****** ****** ****** ****** ******
  14  ****** ****** ****** ****** ****** ****** ****** ****** ****** ******
      ****** ****** ****** ****** ****** ****** ****** ****** ****** ******
      ****** ****** ****** ****** ****** ****** ****** ****** ****** ******
  15  ****** ****** ****** ****** ****** ****** ****** ****** ****** ******
      ****** ****** ****** ****** ****** ****** ****** ****** ****** ******
      ****** ****** ****** ****** ****** ****** ****** ****** ****** ******
  16  ****** ****** ****** ****** ****** ****** ****** ****** ****** ******
      ****** ****** ****** ****** ****** ****** ****** ****** ****** ******
      ****** ****** ****** ****** ****** ****** ****** ****** ****** ******
  17  ****** ****** ****** ****** ****** ****** ****** ****** ****** ******
      ****** ****** ****** ****** ****** ****** ****** ****** ****** ******
      ****** ****** ****** ****** ****** ****** ****** ****** ****** ******
  18  ****** ****** ****** ****** ****** ****** ****** ****** ****** ******
      ****** ****** ****** ****** ****** ****** ****** ****** ****** ******
      ****** ****** ****** ****** ****** ****** ****** ****** ****** ******
  19  ****** ****** ****** ****** ****** ****** ****** ****** ****** ******
      ****** ****** ****** ****** ****** ****** ****** ****** ****** ******
      ****** ****** ****** ****** ****** ****** ****** ****** ****** ******
  20  ****** ****** ****** ****** ****** ****** ****** ****** ****** ******
      ****** ****** ****** ****** ****** ****** ****** ****** ****** ******
      ****** ****** ****** ****** ****** ****** ****** ****** ****** ******
  21  ****** ****** ****** ****** ****** ****** ****** ****** ****** ******
      ****** ****** ****** ****** ****** ****** ****** ****** ****** ******
      ****** ****** ****** ****** ****** ****** ****** ****** ****** ******
  22  ****** ****** ****** ****** ****** ****** ****** ****** ****** ******
      ****** ****** ****** ****** ****** ****** ****** ****** ****** ******
      ****** ****** ****** ****** ****** ****** ****** ****** ****** ******
  23  ****** ****** ****** ****** ****** ****** ****** ****** ****** ******
      ****** ****** ****** ****** ****** ****** ****** ****** ****** ******
      ****** ****** ****** ****** ****** ****** ****** ****** ****** ******
  24  ****** ****** ****** ****** ****** ****** ****** ****** ****** ******
      ****** ****** ****** ****** ****** ****** ****** ****** ****** ******
      ****** ****** ****** ****** ****** ****** ****** ****** ****** ******
  25  ****** ****** ****** ****** ****** ****** ****** ****** ****** ******
      ****** ****** ****** ****** ****** ****** ****** ****** ****** ******
      ****** ****** ****** ****** ****** ****** ****** ****** ****** ******

 HEAD WILL BE SAVED ON UNIT   51 AT END OF TIME STEP    1, STRESS PERIOD    8
1
  VOLUMETRIC BUDGET FOR ENTIRE MODEL AT END OF TIME STEP    1, STRESS PERIOD   8
  ------------------------------------------------------------------------------

     CUMULATIVE VOLUMES      L**3       RATES FOR THIS TIME STEP      L**3/T
     ------------------                 ------------------------

           IN:                                      IN:
           ---                                      ---
             STORAGE =    35402656.2748               STORAGE =        1809.8445
       CONSTANT HEAD =    21278150.8567         CONSTANT HEAD =       36652.5388
               WELLS =           0.0000                 WELLS =           0.0000
            RECHARGE =    17608800.0000              RECHARGE =       27600.0000
      STREAM LEAKAGE =     5348819.3911        STREAM LEAKAGE =        8809.3732

            TOTAL IN =    79638426.5227              TOTAL IN =       74871.7566

          OUT:                                     OUT:
          ----                                     ----
             STORAGE =      816188.6036               STORAGE =        1361.8509
       CONSTANT HEAD =           0.0000         CONSTANT HEAD =           0.0000
               WELLS =    22966369.0624                 WELLS =       31460.7795
            RECHARGE =           0.0000              RECHARGE =           0.0000
      STREAM LEAKAGE =    55855870.7438        STREAM LEAKAGE =       42049.1184

           TOTAL OUT =    79638428.4098             TOTAL OUT =       74871.7489

            IN - OUT =          -1.8872              IN - OUT =       7.6477E-03

 PERCENT DISCREPANCY =          -0.00     PERCENT DISCREPANCY =           0.00






         TIME SUMMARY AT END OF TIME STEP    1 IN STRESS PERIOD    8
                    SECONDS     MINUTES      HOURS       DAYS        YEARS
                    -----------------------------------------------------------
   TIME STEP LENGTH 7.86240E+06 1.31040E+05  2184.0      91.000     0.24914    
 STRESS PERIOD TIME 7.86240E+06 1.31040E+05  2184.0      91.000     0.24914    
         TOTAL TIME 6.30720E+07 1.05120E+06  17520.      730.00      1.9986    
1
1
                            STRESS PERIOD NO.    9, LENGTH =   92.00000    
                            -----------------------------------------------

                              NUMBER OF TIME STEPS =     1

                               MULTIPLIER FOR DELT =     1.500

                            INITIAL TIME STEP SIZE =   92.00000    

 WELL NO.  LAYER   ROW   COL   STRESS RATE         
 --------------------------------------------------
      1      1     20     21      -6420.    
      2      1     18     16      -7655.    
      3      1     20     18     -0.1052E+05
      4      1      4      9      -6868.    

      4 WELLS

                 RECHARGE =  5.000000E-04

 REUSING STREAM SEGMENT DATA FROM LAST STRESS PERIOD
 
 SOLVING FOR HEAD 


     6 CALLS TO PCG ROUTINE FOR TIME STEP   1 IN STRESS PERIOD    9
    23 TOTAL ITERATIONS

 OUTPUT CONTROL FOR STRESS PERIOD    9   TIME STEP    1
    SAVE BUDGET
    SAVE HEAD FOR ALL LAYERS
    PRINT HEAD FOR ALL LAYERS
 UBDSV2 SAVING "STREAMFLOW OUT  " ON UNIT  50 AT TIME STEP  1, STRESS PERIOD   9



 STREAM LISTING     PERIOD      9   STEP        1

 LAYER ROW COL. STREAM  RCH.  FLOW INTO     FLOW TO   FLOW OUT OF   OVRLND.     DIRECT     STREAM       STREAM     STREAM     STREAM   STREAMBED  STREAMBED
                SEG.NO.  NO.  STRM. RCH.    AQUIFER    STRM. RCH.    RUNOFF     PRECIP       ET          HEAD       DEPTH      WIDTH   CONDCTNC.   GRADIENT

   1   13    1     1     1    1.0000E+05 -1.1848E+03   1.0118E+05  0.000E+00  0.000E+00  0.000E+00  4.84065E+01  1.452E-01  2.000E+01  2.000E+04 -5.924E-02
   1   13    2     1     2    1.0118E+05 -2.0888E+03   1.0327E+05  0.000E+00  0.000E+00  0.000E+00  4.79307E+01  1.466E-01  2.000E+01  2.000E+04 -1.044E-01
   1   14    3     1     3    1.0327E+05 -3.4910E+02   1.0362E+05  0.000E+00  0.000E+00  0.000E+00  4.74544E+01  1.476E-01  2.000E+01  2.000E+04 -1.746E-02
   1   15    4     1     4    1.0362E+05 -3.2141E+02   1.0394E+05  0.000E+00  0.000E+00  0.000E+00  4.69775E+01  1.479E-01  2.000E+01  2.000E+04 -1.607E-02
   1   16    5     1     5    1.0394E+05 -1.1691E+03   1.0511E+05  0.000E+00  0.000E+00  0.000E+00  4.65008E+01  1.485E-01  2.000E+01  2.000E+04 -5.846E-02
   1   16    6     1     6    1.0511E+05 -7.1660E+02   1.0583E+05  0.000E+00  0.000E+00  0.000E+00  4.60244E+01  1.494E-01  2.000E+01  2.000E+04 -3.583E-02
   1   16    7     1     7    1.0583E+05 -6.6196E+02   1.0649E+05  0.000E+00  0.000E+00  0.000E+00  4.55477E+01  1.499E-01  2.000E+01  2.000E+04 -3.310E-02
   1   16    8     1     8    1.0649E+05 -5.9572E+02   1.0709E+05  0.000E+00  0.000E+00  0.000E+00  4.50709E+01  1.505E-01  2.000E+01  2.000E+04 -2.979E-02
   1   16    9     1     9    1.0709E+05 -4.9721E+02   1.0758E+05  0.000E+00  0.000E+00  0.000E+00  4.45941E+01  1.509E-01  2.000E+01  2.000E+04 -2.486E-02
   1   16   10     1    10    1.0758E+05 -3.5022E+02   1.0793E+05  0.000E+00  0.000E+00  0.000E+00  4.41172E+01  1.513E-01  2.000E+01  2.000E+04 -1.751E-02
   1   16   11     1    11    1.0793E+05 -1.1849E+02   1.0805E+05  0.000E+00  0.000E+00  0.000E+00  4.36401E+01  1.515E-01  2.000E+01  2.000E+04 -5.924E-03
   1   16   12     1    12    1.0805E+05  4.9442E+02   1.0756E+05  0.000E+00  0.000E+00  0.000E+00  4.31627E+01  1.513E-01  2.000E+01  2.000E+04  2.472E-02
   1   15   13     1    13    1.0756E+05  4.5050E+02   1.0711E+05  0.000E+00  0.000E+00  0.000E+00  4.26850E+01  1.509E-01  2.000E+01  2.000E+04  2.252E-02
   1   14   14     1    14    1.0711E+05  2.9670E+01   1.0708E+05  0.000E+00  0.000E+00  0.000E+00  4.22075E+01  1.507E-01  2.000E+01  2.000E+04  1.483E-03
   1   13   15     1    15    1.0708E+05 -5.9955E+02   1.0768E+05  0.000E+00  0.000E+00  0.000E+00  4.17305E+01  1.510E-01  2.000E+01  2.000E+04 -2.998E-02
   1   12   16     1    16    1.0768E+05 -1.7765E+03   1.0945E+05  0.000E+00  0.000E+00  0.000E+00  4.12542E+01  1.520E-01  2.000E+01  2.000E+04 -8.882E-02
   1   12   17     1    17    1.0945E+05 -9.3764E+02   1.1039E+05  0.000E+00  0.000E+00  0.000E+00  4.07781E+01  1.531E-01  2.000E+01  2.000E+04 -4.688E-02
   1   12   18     1    18    1.1039E+05 -9.0579E+02   1.1130E+05  0.000E+00  0.000E+00  0.000E+00  4.03016E+01  1.539E-01  2.000E+01  2.000E+04 -4.529E-02
   1   12   19     1    19    1.1130E+05 -1.5727E+03   1.1287E+05  0.000E+00  0.000E+00  0.000E+00  3.98254E+01  1.549E-01  2.000E+01  2.000E+04 -7.863E-02
   1   13   20     1    20    1.1287E+05 -3.2465E+02   1.1320E+05  0.000E+00  0.000E+00  0.000E+00  3.93489E+01  1.557E-01  2.000E+01  2.000E+04 -1.623E-02
   1   14   21     1    21    1.1320E+05  8.5390E+02   1.1234E+05  0.000E+00  0.000E+00  0.000E+00  3.88714E+01  1.555E-01  2.000E+01  2.000E+04  4.270E-02
   1   14   22     1    22    1.1234E+05  5.2528E+03   1.0709E+05  0.000E+00  0.000E+00  0.000E+00  3.83916E+01  1.529E-01  2.000E+01  2.000E+04  2.626E-01
   1    9   30     2     1    5.0000E+04 -5.4193E+02   5.0542E+04  0.000E+00  0.000E+00  0.000E+00  4.02412E+01  1.162E-01  2.000E+01  2.000E+04 -2.710E-02
   1    9   29     2     2    5.0542E+04 -8.3821E+02   5.1380E+04  0.000E+00  0.000E+00  0.000E+00  3.99922E+01  1.172E-01  2.000E+01  2.000E+04 -4.191E-02
   1    9   28     2     3    5.1380E+04 -1.0842E+03   5.2464E+04  0.000E+00  0.000E+00  0.000E+00  3.97435E+01  1.185E-01  2.000E+01  2.000E+04 -5.421E-02
   1    9   27     2     4    5.2464E+04 -2.2585E+03   5.4723E+04  0.000E+00  0.000E+00  0.000E+00  3.94958E+01  1.208E-01  2.000E+01  2.000E+04 -1.129E-01
   1   10   26     2     5    5.4723E+04 -1.4761E+03   5.6199E+04  0.000E+00  0.000E+00  0.000E+00  3.92483E+01  1.233E-01  2.000E+01  2.000E+04 -7.380E-02
   1   11   25     2     6    5.6199E+04 -1.2818E+03   5.7481E+04  0.000E+00  0.000E+00  0.000E+00  3.90001E+01  1.251E-01  2.000E+01  2.000E+04 -6.409E-02
   1   12   24     2     7    5.7481E+04 -1.3559E+03   5.8837E+04  0.000E+00  0.000E+00  0.000E+00  3.87519E+01  1.269E-01  2.000E+01  2.000E+04 -6.779E-02
   1   13   23     2     8    5.8837E+04 -2.0868E+02   5.9045E+04  0.000E+00  0.000E+00  0.000E+00  3.85029E+01  1.279E-01  2.000E+01  2.000E+04 -1.043E-02
   1   14   22     2     9    5.9045E+04  2.4500E+03   5.6595E+04  0.000E+00  0.000E+00  0.000E+00  3.82514E+01  1.264E-01  2.000E+01  2.000E+04  1.225E-01
   1   14   22     3     1    1.6368E+05 -8.1926E+03   1.7188E+05  0.000E+00  0.000E+00  0.000E+00  3.77193E+01  1.637E-01  2.000E+01  2.000E+04 -4.096E-01
   1   15   23     3     2    1.7188E+05 -2.7646E+01   1.7190E+05  0.000E+00  0.000E+00  0.000E+00  3.68328E+01  1.661E-01  2.000E+01  2.000E+04 -1.382E-03
   1   15   24     3     3    1.7190E+05 -9.9927E+01   1.7200E+05  0.000E+00  0.000E+00  0.000E+00  3.59439E+01  1.662E-01  2.000E+01  2.000E+04 -4.996E-03
   1   15   25     3     4    1.7200E+05 -1.3918E+02   1.7214E+05  0.000E+00  0.000E+00  0.000E+00  3.50551E+01  1.662E-01  2.000E+01  2.000E+04 -6.959E-03
   1   15   26     3     5    1.7214E+05 -2.3364E+02   1.7238E+05  0.000E+00  0.000E+00  0.000E+00  3.41663E+01  1.663E-01  2.000E+01  2.000E+04 -1.168E-02
   1   16   27     3     6    1.7238E+05 -2.1159E+02   1.7259E+05  0.000E+00  0.000E+00  0.000E+00  3.32776E+01  1.665E-01  2.000E+01  2.000E+04 -1.058E-02
   1   17   28     3     7    1.7259E+05 -9.7226E+02   1.7356E+05  0.000E+00  0.000E+00  0.000E+00  3.23890E+01  1.668E-01  2.000E+01  2.000E+04 -4.861E-02
   1   18   29     3     8    1.7356E+05 -1.7371E+03   1.7530E+05  0.000E+00  0.000E+00  0.000E+00  3.15009E+01  1.676E-01  2.000E+01  2.000E+04 -8.685E-02
   1   18   30     3     9    1.7530E+05 -2.4625E+03   1.7776E+05  0.000E+00  0.000E+00  0.000E+00  3.06133E+01  1.688E-01  2.000E+01  2.000E+04 -1.231E-01



1
              HEAD IN LAYER   1 AT END OF TIME STEP   1 IN STRESS PERIOD    9
  ---------------------------------------------------------------------------

          1      2      3      4      5      6      7      8      9     10
         11     12     13     14     15     16     17     18     19     20
         21     22     23     24     25     26     27     28     29     30
 .........................................................................
   1  ****** ****** ****** ****** ****** ****** ****** ****** ****** ******
      ****** ****** ****** ****** ****** ****** ****** ****** ****** ******
      ****** ****** ****** ****** ****** ****** ****** ****** ****** ******
   2  ****** ****** ****** ****** ****** ****** ****** ****** ****** ******
      ****** ****** ****** ****** ****** ****** ****** ****** ****** ******
      ****** ****** ****** ****** ****** ****** ****** ****** ****** ******
   3  ****** ****** ****** ****** ****** ****** ****** ****** ****** ******
      ****** ****** ****** ****** ****** ****** ****** ****** ****** ******
      ****** ****** ****** ****** ****** ****** ****** ****** ****** ******
   4  ****** ****** ****** ****** ****** ****** ****** ****** ****** ******
      ****** ****** ****** ****** ****** ****** ****** ****** ****** ******
      ****** ****** ****** ****** ****** ****** ****** ****** ****** ******
   5  ****** ****** ****** ****** ****** ****** ****** ****** ****** ******
      ****** ****** ****** ****** ****** ****** ****** ****** ****** ******
      ****** ****** ****** ****** ****** ****** ****** ****** ****** ******
   6  ****** ****** ****** ****** ****** ****** ****** ****** ****** ******
      ****** ****** ****** ****** ****** ****** ****** ****** ****** ******
      ****** ****** ****** ****** ****** ****** ****** ****** ****** ******
   7  ****** ****** ****** ****** ****** ****** ****** ****** ****** ******
      ****** ****** ****** ****** ****** ****** ****** ****** ****** ******
      ****** ****** ****** ****** ****** ****** ****** ****** ****** ******
   8  ****** ****** ****** ****** ****** ****** ****** ****** ****** ******
      ****** ****** ****** ****** ****** ****** ****** ****** ****** ******
      ****** ****** ****** ****** ****** ****** ****** ****** ****** ******
   9  ****** ****** ****** ****** ****** ****** ****** ****** ****** ******
      ****** ****** ****** ****** ****** ****** ****** ****** ****** ******
      ****** ****** ****** ****** ****** ****** ****** ****** ****** ******
  10  ****** ****** ****** ****** ****** ****** ****** ****** ****** ******
      ****** ****** ****** ****** ****** ****** ****** ****** ****** ******
      ****** ****** ****** ****** ****** ****** ****** ****** ****** ******
  11  ****** ****** ****** ****** ****** ****** ****** ****** ****** ******
      ****** ****** ****** ****** ****** ****** ****** ****** ****** ******
      ****** ****** ****** ****** ****** ****** ****** ****** ****** ******
  12  ****** ****** ****** ****** ****** ****** ****** ****** ****** ******
      ****** ****** ****** ****** ****** ****** ****** ****** ****** ******
      ****** ****** ****** ****** ****** ****** ****** ****** ****** ******
  13  ****** ****** ****** ****** ****** ****** ****** ****** ****** ******
      ****** ****** ****** ****** ****** ****** ****** ****** ****** ******
      ****** ****** ****** ****** ****** ****** ****** ****** ****** ******
  14  ****** ****** ****** ****** ****** ****** ****** ****** ****** ******
      ****** ****** ****** ****** ****** ****** ****** ****** ****** ******
      ****** ****** ****** ****** ****** ****** ****** ****** ****** ******
  15  ****** ****** ****** ****** ****** ****** ****** ****** ****** ******
      ****** ****** ****** ****** ****** ****** ****** ****** ****** ******
      ****** ****** ****** ****** ****** ****** ****** ****** ****** ******
  16  ****** ****** ****** ****** ****** ****** ****** ****** ****** ******
      ****** ****** ****** ****** ****** ****** ****** ****** ****** ******
      ****** ****** ****** ****** ****** ****** ****** ****** ****** ******
  17  ****** ****** ****** ****** ****** ****** ****** ****** ****** ******
      ****** ****** ****** ****** ****** ****** ****** ****** ****** ******
      ****** ****** ****** ****** ****** ****** ****** ****** ****** ******
  18  ****** ****** ****** ****** ****** ****** ****** ****** ****** ******
      ****** ****** ****** ****** ****** ****** ****** ****** ****** ******
      ****** ****** ****** ****** ****** ****** ****** ****** ****** ******
  19  ****** ****** ****** ****** ****** ****** ****** ****** ****** ******
      ****** ****** ****** ****** ****** ****** ****** ****** ****** ******
      ****** ****** ****** ****** ****** ****** ****** ****** ****** ******
  20  ****** ****** ****** ****** ****** ****** ****** ****** ****** ******
      ****** ****** ****** ****** ****** ****** ****** ****** ****** ******
      ****** ****** ****** ****** ****** ****** ****** ****** ****** ******
  21  ****** ****** ****** ****** ****** ****** ****** ****** ****** ******
      ****** ****** ****** ****** ****** ****** ****** ****** ****** ******
      ****** ****** ****** ****** ****** ****** ****** ****** ****** ******
  22  ****** ****** ****** ****** ****** ****** ****** ****** ****** ******
      ****** ****** ****** ****** ****** ****** ****** ****** ****** ******
      ****** ****** ****** ****** ****** ****** ****** ****** ****** ******
  23  ****** ****** ****** ****** ****** ****** ****** ****** ****** ******
      ****** ****** ****** ****** ****** ****** ****** ****** ****** ******
      ****** ****** ****** ****** ****** ****** ****** ****** ****** ******
  24  ****** ****** ****** ****** ****** ****** ****** ****** ****** ******
      ****** ****** ****** ****** ****** ****** ****** ****** ****** ******
      ****** ****** ****** ****** ****** ****** ****** ****** ****** ******
  25  ****** ****** ****** ****** ****** ****** ****** ****** ****** ******
      ****** ****** ****** ****** ****** ****** ****** ****** ****** ******
      ****** ****** ****** ****** ****** ****** ****** ****** ****** ******

 HEAD WILL BE SAVED ON UNIT   51 AT END OF TIME STEP    1, STRESS PERIOD    9
1
  VOLUMETRIC BUDGET FOR ENTIRE MODEL AT END OF TIME STEP    1, STRESS PERIOD   9
  ------------------------------------------------------------------------------

     CUMULATIVE VOLUMES      L**3       RATES FOR THIS TIME STEP      L**3/T
     ------------------                 ------------------------

           IN:                                      IN:
           ---                                      ---
             STORAGE =    36097766.3690               STORAGE =        7555.5445
       CONSTANT HEAD =    24761824.9778         CONSTANT HEAD =       37866.0231
               WELLS =           0.0000                 WELLS =           0.0000
            RECHARGE =    18878400.0000              RECHARGE =       13800.0000
      STREAM LEAKAGE =     6225693.0165        STREAM LEAKAGE =        9531.2351

            TOTAL IN =    85963684.3633              TOTAL IN =       68752.8026

          OUT:                                     OUT:
          ----                                     ----
             STORAGE =      816188.6036               STORAGE =           0.0000
       CONSTANT HEAD =           0.0000         CONSTANT HEAD =           0.0000
               WELLS =    25860760.7798                 WELLS =       31460.7795
            RECHARGE =           0.0000              RECHARGE =           0.0000
      STREAM LEAKAGE =    59286736.9415        STREAM LEAKAGE =       37292.0239

           TOTAL OUT =    85963686.3250             TOTAL OUT =       68752.8034

            IN - OUT =          -1.9617              IN - OUT =      -8.0990E-04

 PERCENT DISCREPANCY =          -0.00     PERCENT DISCREPANCY =          -0.00






         TIME SUMMARY AT END OF TIME STEP    1 IN STRESS PERIOD    9
                    SECONDS     MINUTES      HOURS       DAYS        YEARS
                    -----------------------------------------------------------
   TIME STEP LENGTH 7.94880E+06 1.32480E+05  2208.0      92.000     0.25188    
 STRESS PERIOD TIME 7.94880E+06 1.32480E+05  2208.0      92.000     0.25188    
         TOTAL TIME 7.10208E+07 1.18368E+06  19728.      822.00      2.2505    
1
1
                            STRESS PERIOD NO.   10, LENGTH =   91.00000    
                            -----------------------------------------------

                              NUMBER OF TIME STEPS =     1

                               MULTIPLIER FOR DELT =     1.500

                            INITIAL TIME STEP SIZE =   91.00000    

 WELL NO.  LAYER   ROW   COL   STRESS RATE         
 --------------------------------------------------
      1      1     20     21      -6420.    
      2      1     18     16      -7655.    
      3      1     20     18     -0.1052E+05
      4      1      4      9      -6868.    

      4 WELLS

                 RECHARGE =  2.000000E-03

 REUSING STREAM SEGMENT DATA FROM LAST STRESS PERIOD
 
 SOLVING FOR HEAD 


     7 CALLS TO PCG ROUTINE FOR TIME STEP   1 IN STRESS PERIOD   10
    26 TOTAL ITERATIONS

 OUTPUT CONTROL FOR STRESS PERIOD   10   TIME STEP    1
    SAVE BUDGET
    SAVE HEAD FOR ALL LAYERS
    PRINT HEAD FOR ALL LAYERS
 UBDSV2 SAVING "STREAMFLOW OUT  " ON UNIT  50 AT TIME STEP  1, STRESS PERIOD  10



 STREAM LISTING     PERIOD     10   STEP        1

 LAYER ROW COL. STREAM  RCH.  FLOW INTO     FLOW TO   FLOW OUT OF   OVRLND.     DIRECT     STREAM       STREAM     STREAM     STREAM   STREAMBED  STREAMBED
                SEG.NO.  NO.  STRM. RCH.    AQUIFER    STRM. RCH.    RUNOFF     PRECIP       ET          HEAD       DEPTH      WIDTH   CONDCTNC.   GRADIENT

   1   13    1     1     1    1.0000E+05 -1.6302E+03   1.0163E+05  0.000E+00  0.000E+00  0.000E+00  4.84067E+01  1.454E-01  2.000E+01  2.000E+04 -8.151E-02
   1   13    2     1     2    1.0163E+05 -2.5820E+03   1.0421E+05  0.000E+00  0.000E+00  0.000E+00  4.79313E+01  1.472E-01  2.000E+01  2.000E+04 -1.291E-01
   1   14    3     1     3    1.0421E+05 -5.3429E+02   1.0475E+05  0.000E+00  0.000E+00  0.000E+00  4.74553E+01  1.485E-01  2.000E+01  2.000E+04 -2.671E-02
   1   15    4     1     4    1.0475E+05 -5.1969E+02   1.0527E+05  0.000E+00  0.000E+00  0.000E+00  4.69785E+01  1.490E-01  2.000E+01  2.000E+04 -2.598E-02
   1   16    5     1     5    1.0527E+05 -1.7861E+03   1.0705E+05  0.000E+00  0.000E+00  0.000E+00  4.65022E+01  1.499E-01  2.000E+01  2.000E+04 -8.930E-02
   1   16    6     1     6    1.0705E+05 -1.0772E+03   1.0813E+05  0.000E+00  0.000E+00  0.000E+00  4.60261E+01  1.511E-01  2.000E+01  2.000E+04 -5.386E-02
   1   16    7     1     7    1.0813E+05 -1.0047E+03   1.0913E+05  0.000E+00  0.000E+00  0.000E+00  4.55497E+01  1.520E-01  2.000E+01  2.000E+04 -5.023E-02
   1   16    8     1     8    1.0913E+05 -9.3299E+02   1.1007E+05  0.000E+00  0.000E+00  0.000E+00  4.50733E+01  1.528E-01  2.000E+01  2.000E+04 -4.665E-02
   1   16    9     1     9    1.1007E+05 -8.3299E+02   1.1090E+05  0.000E+00  0.000E+00  0.000E+00  4.45968E+01  1.536E-01  2.000E+01  2.000E+04 -4.165E-02
   1   16   10     1    10    1.1090E+05 -6.8624E+02   1.1159E+05  0.000E+00  0.000E+00  0.000E+00  4.41201E+01  1.542E-01  2.000E+01  2.000E+04 -3.431E-02
   1   16   11     1    11    1.1159E+05 -4.5801E+02   1.1204E+05  0.000E+00  0.000E+00  0.000E+00  4.36433E+01  1.547E-01  2.000E+01  2.000E+04 -2.290E-02
   1   16   12     1    12    1.1204E+05 -7.1701E+01   1.1212E+05  0.000E+00  0.000E+00  0.000E+00  4.31663E+01  1.549E-01  2.000E+01  2.000E+04 -3.585E-03
   1   15   13     1    13    1.1212E+05 -1.3189E+02   1.1225E+05  0.000E+00  0.000E+00  0.000E+00  4.26891E+01  1.550E-01  2.000E+01  2.000E+04 -6.595E-03
   1   14   14     1    14    1.1225E+05 -5.5933E+02   1.1281E+05  0.000E+00  0.000E+00  0.000E+00  4.22121E+01  1.553E-01  2.000E+01  2.000E+04 -2.797E-02
   1   13   15     1    15    1.1281E+05 -1.1782E+03   1.1399E+05  0.000E+00  0.000E+00  0.000E+00  4.17355E+01  1.560E-01  2.000E+01  2.000E+04 -5.891E-02
   1   12   16     1    16    1.1399E+05 -2.3331E+03   1.1632E+05  0.000E+00  0.000E+00  0.000E+00  4.12597E+01  1.574E-01  2.000E+01  2.000E+04 -1.167E-01
   1   12   17     1    17    1.1632E+05 -1.3602E+03   1.1768E+05  0.000E+00  0.000E+00  0.000E+00  4.07839E+01  1.589E-01  2.000E+01  2.000E+04 -6.801E-02
   1   12   18     1    18    1.1768E+05 -1.3246E+03   1.1900E+05  0.000E+00  0.000E+00  0.000E+00  4.03078E+01  1.600E-01  2.000E+01  2.000E+04 -6.623E-02
   1   12   19     1    19    1.1900E+05 -2.0886E+03   1.2109E+05  0.000E+00  0.000E+00  0.000E+00  3.98319E+01  1.614E-01  2.000E+01  2.000E+04 -1.044E-01
   1   13   20     1    20    1.2109E+05 -8.4363E+02   1.2194E+05  0.000E+00  0.000E+00  0.000E+00  3.93558E+01  1.626E-01  2.000E+01  2.000E+04 -4.218E-02
   1   14   21     1    21    1.2194E+05  3.3206E+02   1.2160E+05  0.000E+00  0.000E+00  0.000E+00  3.88787E+01  1.628E-01  2.000E+01  2.000E+04  1.660E-02
   1   14   22     1    22    1.2160E+05  5.1292E+03   1.1647E+05  0.000E+00  0.000E+00  0.000E+00  3.83992E+01  1.606E-01  2.000E+01  2.000E+04  2.565E-01
   1    9   30     2     1    5.0000E+04 -9.5586E+02   5.0956E+04  0.000E+00  0.000E+00  0.000E+00  4.02415E+01  1.165E-01  2.000E+01  2.000E+04 -4.779E-02
   1    9   29     2     2    5.0956E+04 -1.2498E+03   5.2206E+04  0.000E+00  0.000E+00  0.000E+00  3.99930E+01  1.180E-01  2.000E+01  2.000E+04 -6.249E-02
   1    9   28     2     3    5.2206E+04 -1.4949E+03   5.3701E+04  0.000E+00  0.000E+00  0.000E+00  3.97449E+01  1.199E-01  2.000E+01  2.000E+04 -7.475E-02
   1    9   27     2     4    5.3701E+04 -2.8105E+03   5.6511E+04  0.000E+00  0.000E+00  0.000E+00  3.94978E+01  1.228E-01  2.000E+01  2.000E+04 -1.405E-01
   1   10   26     2     5    5.6511E+04 -2.0282E+03   5.8539E+04  0.000E+00  0.000E+00  0.000E+00  3.92510E+01  1.260E-01  2.000E+01  2.000E+04 -1.014E-01
   1   11   25     2     6    5.8539E+04 -1.8094E+03   6.0349E+04  0.000E+00  0.000E+00  0.000E+00  3.90035E+01  1.285E-01  2.000E+01  2.000E+04 -9.047E-02
   1   12   24     2     7    6.0349E+04 -1.8333E+03   6.2182E+04  0.000E+00  0.000E+00  0.000E+00  3.87559E+01  1.309E-01  2.000E+01  2.000E+04 -9.166E-02
   1   13   23     2     8    6.2182E+04 -3.5726E+02   6.2539E+04  0.000E+00  0.000E+00  0.000E+00  3.85073E+01  1.323E-01  2.000E+01  2.000E+04 -1.786E-02
   1   14   22     2     9    6.2539E+04  2.2659E+03   6.0273E+04  0.000E+00  0.000E+00  0.000E+00  3.82561E+01  1.311E-01  2.000E+01  2.000E+04  1.133E-01
   1   14   22     3     1    1.7675E+05 -8.3182E+03   1.8507E+05  0.000E+00  0.000E+00  0.000E+00  3.77269E+01  1.713E-01  2.000E+01  2.000E+04 -4.159E-01
   1   15   23     3     2    1.8507E+05 -1.8945E+02   1.8526E+05  0.000E+00  0.000E+00  0.000E+00  3.68404E+01  1.737E-01  2.000E+01  2.000E+04 -9.472E-03
   1   15   24     3     3    1.8526E+05 -2.3667E+02   1.8549E+05  0.000E+00  0.000E+00  0.000E+00  3.59516E+01  1.738E-01  2.000E+01  2.000E+04 -1.183E-02
   1   15   25     3     4    1.8549E+05 -2.7939E+02   1.8577E+05  0.000E+00  0.000E+00  0.000E+00  3.50629E+01  1.740E-01  2.000E+01  2.000E+04 -1.397E-02
   1   15   26     3     5    1.8577E+05 -3.9563E+02   1.8617E+05  0.000E+00  0.000E+00  0.000E+00  3.41742E+01  1.742E-01  2.000E+01  2.000E+04 -1.978E-02
   1   16   27     3     6    1.8617E+05 -3.9699E+02   1.8656E+05  0.000E+00  0.000E+00  0.000E+00  3.32855E+01  1.744E-01  2.000E+01  2.000E+04 -1.985E-02
   1   17   28     3     7    1.8656E+05 -1.4913E+03   1.8806E+05  0.000E+00  0.000E+00  0.000E+00  3.23971E+01  1.749E-01  2.000E+01  2.000E+04 -7.457E-02
   1   18   29     3     8    1.8806E+05 -2.2851E+03   1.9034E+05  0.000E+00  0.000E+00  0.000E+00  3.15093E+01  1.760E-01  2.000E+01  2.000E+04 -1.143E-01
   1   18   30     3     9    1.9034E+05 -2.8858E+03   1.9323E+05  0.000E+00  0.000E+00  0.000E+00  3.06219E+01  1.774E-01  2.000E+01  2.000E+04 -1.443E-01



1
              HEAD IN LAYER   1 AT END OF TIME STEP   1 IN STRESS PERIOD   10
  ---------------------------------------------------------------------------

          1      2      3      4      5      6      7      8      9     10
         11     12     13     14     15     16     17     18     19     20
         21     22     23     24     25     26     27     28     29     30
 .........................................................................
   1  ****** ****** ****** ****** ****** ****** ****** ****** ****** ******
      ****** ****** ****** ****** ****** ****** ****** ****** ****** ******
      ****** ****** ****** ****** ****** ****** ****** ****** ****** ******
   2  ****** ****** ****** ****** ****** ****** ****** ****** ****** ******
      ****** ****** ****** ****** ****** ****** ****** ****** ****** ******
      ****** ****** ****** ****** ****** ****** ****** ****** ****** ******
   3  ****** ****** ****** ****** ****** ****** ****** ****** ****** ******
      ****** ****** ****** ****** ****** ****** ****** ****** ****** ******
      ****** ****** ****** ****** ****** ****** ****** ****** ****** ******
   4  ****** ****** ****** ****** ****** ****** ****** ****** ****** ******
      ****** ****** ****** ****** ****** ****** ****** ****** ****** ******
      ****** ****** ****** ****** ****** ****** ****** ****** ****** ******
   5  ****** ****** ****** ****** ****** ****** ****** ****** ****** ******
      ****** ****** ****** ****** ****** ****** ****** ****** ****** ******
      ****** ****** ****** ****** ****** ****** ****** ****** ****** ******
   6  ****** ****** ****** ****** ****** ****** ****** ****** ****** ******
      ****** ****** ****** ****** ****** ****** ****** ****** ****** ******
      ****** ****** ****** ****** ****** ****** ****** ****** ****** ******
   7  ****** ****** ****** ****** ****** ****** ****** ****** ****** ******
      ****** ****** ****** ****** ****** ****** ****** ****** ****** ******
      ****** ****** ****** ****** ****** ****** ****** ****** ****** ******
   8  ****** ****** ****** ****** ****** ****** ****** ****** ****** ******
      ****** ****** ****** ****** ****** ****** ****** ****** ****** ******
      ****** ****** ****** ****** ****** ****** ****** ****** ****** ******
   9  ****** ****** ****** ****** ****** ****** ****** ****** ****** ******
      ****** ****** ****** ****** ****** ****** ****** ****** ****** ******
      ****** ****** ****** ****** ****** ****** ****** ****** ****** ******
  10  ****** ****** ****** ****** ****** ****** ****** ****** ****** ******
      ****** ****** ****** ****** ****** ****** ****** ****** ****** ******
      ****** ****** ****** ****** ****** ****** ****** ****** ****** ******
  11  ****** ****** ****** ****** ****** ****** ****** ****** ****** ******
      ****** ****** ****** ****** ****** ****** ****** ****** ****** ******
      ****** ****** ****** ****** ****** ****** ****** ****** ****** ******
  12  ****** ****** ****** ****** ****** ****** ****** ****** ****** ******
      ****** ****** ****** ****** ****** ****** ****** ****** ****** ******
      ****** ****** ****** ****** ****** ****** ****** ****** ****** ******
  13  ****** ****** ****** ****** ****** ****** ****** ****** ****** ******
      ****** ****** ****** ****** ****** ****** ****** ****** ****** ******
      ****** ****** ****** ****** ****** ****** ****** ****** ****** ******
  14  ****** ****** ****** ****** ****** ****** ****** ****** ****** ******
      ****** ****** ****** ****** ****** ****** ****** ****** ****** ******
      ****** ****** ****** ****** ****** ****** ****** ****** ****** ******
  15  ****** ****** ****** ****** ****** ****** ****** ****** ****** ******
      ****** ****** ****** ****** ****** ****** ****** ****** ****** ******
      ****** ****** ****** ****** ****** ****** ****** ****** ****** ******
  16  ****** ****** ****** ****** ****** ****** ****** ****** ****** ******
      ****** ****** ****** ****** ****** ****** ****** ****** ****** ******
      ****** ****** ****** ****** ****** ****** ****** ****** ****** ******
  17  ****** ****** ****** ****** ****** ****** ****** ****** ****** ******
      ****** ****** ****** ****** ****** ****** ****** ****** ****** ******
      ****** ****** ****** ****** ****** ****** ****** ****** ****** ******
  18  ****** ****** ****** ****** ****** ****** ****** ****** ****** ******
      ****** ****** ****** ****** ****** ****** ****** ****** ****** ******
      ****** ****** ****** ****** ****** ****** ****** ****** ****** ******
  19  ****** ****** ****** ****** ****** ****** ****** ****** ****** ******
      ****** ****** ****** ****** ****** ****** ****** ****** ****** ******
      ****** ****** ****** ****** ****** ****** ****** ****** ****** ******
  20  ****** ****** ****** ****** ****** ****** ****** ****** ****** ******
      ****** ****** ****** ****** ****** ****** ****** ****** ****** ******
      ****** ****** ****** ****** ****** ****** ****** ****** ****** ******
  21  ****** ****** ****** ****** ****** ****** ****** ****** ****** ******
      ****** ****** ****** ****** ****** ****** ****** ****** ****** ******
      ****** ****** ****** ****** ****** ****** ****** ****** ****** ******
  22  ****** ****** ****** ****** ****** ****** ****** ****** ****** ******
      ****** ****** ****** ****** ****** ****** ****** ****** ****** ******
      ****** ****** ****** ****** ****** ****** ****** ****** ****** ******
  23  ****** ****** ****** ****** ****** ****** ****** ****** ****** ******
      ****** ****** ****** ****** ****** ****** ****** ****** ****** ******
      ****** ****** ****** ****** ****** ****** ****** ****** ****** ******
  24  ****** ****** ****** ****** ****** ****** ****** ****** ****** ******
      ****** ****** ****** ****** ****** ****** ****** ****** ****** ******
      ****** ****** ****** ****** ****** ****** ****** ****** ****** ******
  25  ****** ****** ****** ****** ****** ****** ****** ****** ****** ******
      ****** ****** ****** ****** ****** ****** ****** ****** ****** ******
      ****** ****** ****** ****** ****** ****** ****** ****** ****** ******

 HEAD WILL BE SAVED ON UNIT   51 AT END OF TIME STEP    1, STRESS PERIOD   10
1
  VOLUMETRIC BUDGET FOR ENTIRE MODEL AT END OF TIME STEP    1, STRESS PERIOD  10
  ------------------------------------------------------------------------------

     CUMULATIVE VOLUMES      L**3       RATES FOR THIS TIME STEP      L**3/T
     ------------------                 ------------------------

           IN:                                      IN:
           ---                                      ---
             STORAGE =    36097766.3690               STORAGE =           0.0000
       CONSTANT HEAD =    27941636.5242         CONSTANT HEAD =       34942.9840
               WELLS =           0.0000                 WELLS =           0.0000
            RECHARGE =    23901600.0000              RECHARGE =       55200.0000
      STREAM LEAKAGE =     6928863.6430        STREAM LEAKAGE =        7727.1497

            TOTAL IN =    94869866.5361              TOTAL IN =       97870.1338

          OUT:                                     OUT:
          ----                                     ----
             STORAGE =     2222670.9783               STORAGE =       15455.8503
       CONSTANT HEAD =           0.0000         CONSTANT HEAD =           0.0000
               WELLS =    28723691.7178                 WELLS =       31460.7795
            RECHARGE =           0.0000              RECHARGE =           0.0000
      STREAM LEAKAGE =    63923505.4523        STREAM LEAKAGE =       50953.5001

           TOTAL OUT =    94869868.1484             TOTAL OUT =       97870.1299

            IN - OUT =          -1.6122              IN - OUT =       3.8399E-03

 PERCENT DISCREPANCY =          -0.00     PERCENT DISCREPANCY =           0.00






         TIME SUMMARY AT END OF TIME STEP    1 IN STRESS PERIOD   10
                    SECONDS     MINUTES      HOURS       DAYS        YEARS
                    -----------------------------------------------------------
   TIME STEP LENGTH 7.86240E+06 1.31040E+05  2184.0      91.000     0.24914    
 STRESS PERIOD TIME 7.86240E+06 1.31040E+05  2184.0      91.000     0.24914    
         TOTAL TIME 7.88832E+07 1.31472E+06  21912.      913.00      2.4997    
1
1
                            STRESS PERIOD NO.   11, LENGTH =   91.00000    
                            -----------------------------------------------

                              NUMBER OF TIME STEPS =     1

                               MULTIPLIER FOR DELT =     1.500

                            INITIAL TIME STEP SIZE =   91.00000    

 WELL NO.  LAYER   ROW   COL   STRESS RATE         
 --------------------------------------------------
      1      1     20     21      -6420.    
      2      1     18     16      -7655.    
      3      1     20     18     -0.1052E+05
      4      1      4      9      -6868.    

      4 WELLS

                 RECHARGE =   0.00000    

 REUSING STREAM SEGMENT DATA FROM LAST STRESS PERIOD
 
 SOLVING FOR HEAD 


     7 CALLS TO PCG ROUTINE FOR TIME STEP   1 IN STRESS PERIOD   11
    26 TOTAL ITERATIONS

 OUTPUT CONTROL FOR STRESS PERIOD   11   TIME STEP    1
    SAVE BUDGET
    SAVE HEAD FOR ALL LAYERS
    PRINT HEAD FOR ALL LAYERS
 UBDSV2 SAVING "STREAMFLOW OUT  " ON UNIT  50 AT TIME STEP  1, STRESS PERIOD  11



 STREAM LISTING     PERIOD     11   STEP        1

 LAYER ROW COL. STREAM  RCH.  FLOW INTO     FLOW TO   FLOW OUT OF   OVRLND.     DIRECT     STREAM       STREAM     STREAM     STREAM   STREAMBED  STREAMBED
                SEG.NO.  NO.  STRM. RCH.    AQUIFER    STRM. RCH.    RUNOFF     PRECIP       ET          HEAD       DEPTH      WIDTH   CONDCTNC.   GRADIENT

   1   13    1     1     1    1.0000E+05 -1.0575E+03   1.0106E+05  0.000E+00  0.000E+00  0.000E+00  4.84065E+01  1.451E-01  2.000E+01  2.000E+04 -5.287E-02
   1   13    2     1     2    1.0106E+05 -1.9439E+03   1.0300E+05  0.000E+00  0.000E+00  0.000E+00  4.79305E+01  1.464E-01  2.000E+01  2.000E+04 -9.719E-02
   1   14    3     1     3    1.0300E+05 -3.0243E+02   1.0330E+05  0.000E+00  0.000E+00  0.000E+00  4.74542E+01  1.474E-01  2.000E+01  2.000E+04 -1.512E-02
   1   15    4     1     4    1.0330E+05 -2.7697E+02   1.0358E+05  0.000E+00  0.000E+00  0.000E+00  4.69772E+01  1.476E-01  2.000E+01  2.000E+04 -1.385E-02
   1   16    5     1     5    1.0358E+05 -1.0970E+03   1.0468E+05  0.000E+00  0.000E+00  0.000E+00  4.65005E+01  1.482E-01  2.000E+01  2.000E+04 -5.485E-02
   1   16    6     1     6    1.0468E+05 -6.6186E+02   1.0534E+05  0.000E+00  0.000E+00  0.000E+00  4.60240E+01  1.490E-01  2.000E+01  2.000E+04 -3.309E-02
   1   16    7     1     7    1.0534E+05 -6.0691E+02   1.0595E+05  0.000E+00  0.000E+00  0.000E+00  4.55472E+01  1.495E-01  2.000E+01  2.000E+04 -3.035E-02
   1   16    8     1     8    1.0595E+05 -5.4071E+02   1.0649E+05  0.000E+00  0.000E+00  0.000E+00  4.50704E+01  1.500E-01  2.000E+01  2.000E+04 -2.704E-02
   1   16    9     1     9    1.0649E+05 -4.4298E+02   1.0693E+05  0.000E+00  0.000E+00  0.000E+00  4.45936E+01  1.504E-01  2.000E+01  2.000E+04 -2.215E-02
   1   16   10     1    10    1.0693E+05 -2.9740E+02   1.0723E+05  0.000E+00  0.000E+00  0.000E+00  4.41166E+01  1.507E-01  2.000E+01  2.000E+04 -1.487E-02
   1   16   11     1    11    1.0723E+05 -6.7423E+01   1.0730E+05  0.000E+00  0.000E+00  0.000E+00  4.36395E+01  1.509E-01  2.000E+01  2.000E+04 -3.371E-03
   1   16   12     1    12    1.0730E+05  5.7590E+02   1.0672E+05  0.000E+00  0.000E+00  0.000E+00  4.31620E+01  1.507E-01  2.000E+01  2.000E+04  2.879E-02
   1   15   13     1    13    1.0672E+05  5.5921E+02   1.0616E+05  0.000E+00  0.000E+00  0.000E+00  4.26843E+01  1.502E-01  2.000E+01  2.000E+04  2.796E-02
   1   14   14     1    14    1.0616E+05  1.4997E+02   1.0601E+05  0.000E+00  0.000E+00  0.000E+00  4.22067E+01  1.499E-01  2.000E+01  2.000E+04  7.499E-03
   1   13   15     1    15    1.0601E+05 -4.7420E+02   1.0648E+05  0.000E+00  0.000E+00  0.000E+00  4.17296E+01  1.500E-01  2.000E+01  2.000E+04 -2.371E-02
   1   12   16     1    16    1.0648E+05 -1.6521E+03   1.0814E+05  0.000E+00  0.000E+00  0.000E+00  4.12532E+01  1.509E-01  2.000E+01  2.000E+04 -8.260E-02
   1   12   17     1    17    1.0814E+05 -8.5147E+02   1.0899E+05  0.000E+00  0.000E+00  0.000E+00  4.07770E+01  1.520E-01  2.000E+01  2.000E+04 -4.257E-02
   1   12   18     1    18    1.0899E+05 -8.2392E+02   1.0981E+05  0.000E+00  0.000E+00  0.000E+00  4.03004E+01  1.527E-01  2.000E+01  2.000E+04 -4.120E-02
   1   12   19     1    19    1.0981E+05 -1.4742E+03   1.1129E+05  0.000E+00  0.000E+00  0.000E+00  3.98241E+01  1.536E-01  2.000E+01  2.000E+04 -7.371E-02
   1   13   20     1    20    1.1129E+05 -2.3001E+02   1.1152E+05  0.000E+00  0.000E+00  0.000E+00  3.93475E+01  1.543E-01  2.000E+01  2.000E+04 -1.150E-02
   1   14   21     1    21    1.1152E+05  9.3045E+02   1.1059E+05  0.000E+00  0.000E+00  0.000E+00  3.88700E+01  1.540E-01  2.000E+01  2.000E+04  4.652E-02
   1   14   22     1    22    1.1059E+05  5.2723E+03   1.0531E+05  0.000E+00  0.000E+00  0.000E+00  3.83901E+01  1.514E-01  2.000E+01  2.000E+04  2.636E-01
   1    9   30     2     1    5.0000E+04 -4.6761E+02   5.0468E+04  0.000E+00  0.000E+00  0.000E+00  4.02412E+01  1.162E-01  2.000E+01  2.000E+04 -2.338E-02
   1    9   29     2     2    5.0468E+04 -7.6459E+02   5.1232E+04  0.000E+00  0.000E+00  0.000E+00  3.99920E+01  1.170E-01  2.000E+01  2.000E+04 -3.823E-02
   1    9   28     2     3    5.1232E+04 -1.0118E+03   5.2244E+04  0.000E+00  0.000E+00  0.000E+00  3.97433E+01  1.183E-01  2.000E+01  2.000E+04 -5.059E-02
   1    9   27     2     4    5.2244E+04 -2.1700E+03   5.4414E+04  0.000E+00  0.000E+00  0.000E+00  3.94954E+01  1.204E-01  2.000E+01  2.000E+04 -1.085E-01
   1   10   26     2     5    5.4414E+04 -1.3733E+03   5.5787E+04  0.000E+00  0.000E+00  0.000E+00  3.92478E+01  1.228E-01  2.000E+01  2.000E+04 -6.867E-02
   1   11   25     2     6    5.5787E+04 -1.1784E+03   5.6966E+04  0.000E+00  0.000E+00  0.000E+00  3.89995E+01  1.245E-01  2.000E+01  2.000E+04 -5.892E-02
   1   12   24     2     7    5.6966E+04 -1.2592E+03   5.8225E+04  0.000E+00  0.000E+00  0.000E+00  3.87511E+01  1.261E-01  2.000E+01  2.000E+04 -6.296E-02
   1   13   23     2     8    5.8225E+04 -1.7124E+02   5.8396E+04  0.000E+00  0.000E+00  0.000E+00  3.85021E+01  1.271E-01  2.000E+01  2.000E+04 -8.562E-03
   1   14   22     2     9    5.8396E+04  2.4817E+03   5.5914E+04  0.000E+00  0.000E+00  0.000E+00  3.82505E+01  1.255E-01  2.000E+01  2.000E+04  1.241E-01
   1   14   22     3     1    1.6123E+05 -8.1724E+03   1.6940E+05  0.000E+00  0.000E+00  0.000E+00  3.77178E+01  1.623E-01  2.000E+01  2.000E+04 -4.086E-01
   1   15   23     3     2    1.6940E+05  2.9794E+00   1.6940E+05  0.000E+00  0.000E+00  0.000E+00  3.68313E+01  1.647E-01  2.000E+01  2.000E+04  1.490E-04
   1   15   24     3     3    1.6940E+05 -7.1321E+01   1.6947E+05  0.000E+00  0.000E+00  0.000E+00  3.59425E+01  1.647E-01  2.000E+01  2.000E+04 -3.566E-03
   1   15   25     3     4    1.6947E+05 -1.1023E+02   1.6958E+05  0.000E+00  0.000E+00  0.000E+00  3.50536E+01  1.648E-01  2.000E+01  2.000E+04 -5.511E-03
   1   15   26     3     5    1.6958E+05 -1.9981E+02   1.6978E+05  0.000E+00  0.000E+00  0.000E+00  3.41648E+01  1.648E-01  2.000E+01  2.000E+04 -9.991E-03
   1   16   27     3     6    1.6978E+05 -1.7374E+02   1.6995E+05  0.000E+00  0.000E+00  0.000E+00  3.32761E+01  1.650E-01  2.000E+01  2.000E+04 -8.687E-03
   1   17   28     3     7    1.6995E+05 -8.8077E+02   1.7083E+05  0.000E+00  0.000E+00  0.000E+00  3.23875E+01  1.653E-01  2.000E+01  2.000E+04 -4.404E-02
   1   18   29     3     8    1.7083E+05 -1.6614E+03   1.7249E+05  0.000E+00  0.000E+00  0.000E+00  3.14993E+01  1.660E-01  2.000E+01  2.000E+04 -8.307E-02
   1   18   30     3     9    1.7249E+05 -2.3956E+03   1.7489E+05  0.000E+00  0.000E+00  0.000E+00  3.06116E+01  1.672E-01  2.000E+01  2.000E+04 -1.198E-01



1
              HEAD IN LAYER   1 AT END OF TIME STEP   1 IN STRESS PERIOD   11
  ---------------------------------------------------------------------------

          1      2      3      4      5      6      7      8      9     10
         11     12     13     14     15     16     17     18     19     20
         21     22     23     24     25     26     27     28     29     30
 .........................................................................
   1  ****** ****** ****** ****** ****** ****** ****** ****** ****** ******
      ****** ****** ****** ****** ****** ****** ****** ****** ****** ******
      ****** ****** ****** ****** ****** ****** ****** ****** ****** ******
   2  ****** ****** ****** ****** ****** ****** ****** ****** ****** ******
      ****** ****** ****** ****** ****** ****** ****** ****** ****** ******
      ****** ****** ****** ****** ****** ****** ****** ****** ****** ******
   3  ****** ****** ****** ****** ****** ****** ****** ****** ****** ******
      ****** ****** ****** ****** ****** ****** ****** ****** ****** ******
      ****** ****** ****** ****** ****** ****** ****** ****** ****** ******
   4  ****** ****** ****** ****** ****** ****** ****** ****** ****** ******
      ****** ****** ****** ****** ****** ****** ****** ****** ****** ******
      ****** ****** ****** ****** ****** ****** ****** ****** ****** ******
   5  ****** ****** ****** ****** ****** ****** ****** ****** ****** ******
      ****** ****** ****** ****** ****** ****** ****** ****** ****** ******
      ****** ****** ****** ****** ****** ****** ****** ****** ****** ******
   6  ****** ****** ****** ****** ****** ****** ****** ****** ****** ******
      ****** ****** ****** ****** ****** ****** ****** ****** ****** ******
      ****** ****** ****** ****** ****** ****** ****** ****** ****** ******
   7  ****** ****** ****** ****** ****** ****** ****** ****** ****** ******
      ****** ****** ****** ****** ****** ****** ****** ****** ****** ******
      ****** ****** ****** ****** ****** ****** ****** ****** ****** ******
   8  ****** ****** ****** ****** ****** ****** ****** ****** ****** ******
      ****** ****** ****** ****** ****** ****** ****** ****** ****** ******
      ****** ****** ****** ****** ****** ****** ****** ****** ****** ******
   9  ****** ****** ****** ****** ****** ****** ****** ****** ****** ******
      ****** ****** ****** ****** ****** ****** ****** ****** ****** ******
      ****** ****** ****** ****** ****** ****** ****** ****** ****** ******
  10  ****** ****** ****** ****** ****** ****** ****** ****** ****** ******
      ****** ****** ****** ****** ****** ****** ****** ****** ****** ******
      ****** ****** ****** ****** ****** ****** ****** ****** ****** ******
  11  ****** ****** ****** ****** ****** ****** ****** ****** ****** ******
      ****** ****** ****** ****** ****** ****** ****** ****** ****** ******
      ****** ****** ****** ****** ****** ****** ****** ****** ****** ******
  12  ****** ****** ****** ****** ****** ****** ****** ****** ****** ******
      ****** ****** ****** ****** ****** ****** ****** ****** ****** ******
      ****** ****** ****** ****** ****** ****** ****** ****** ****** ******
  13  ****** ****** ****** ****** ****** ****** ****** ****** ****** ******
      ****** ****** ****** ****** ****** ****** ****** ****** ****** ******
      ****** ****** ****** ****** ****** ****** ****** ****** ****** ******
  14  ****** ****** ****** ****** ****** ****** ****** ****** ****** ******
      ****** ****** ****** ****** ****** ****** ****** ****** ****** ******
      ****** ****** ****** ****** ****** ****** ****** ****** ****** ******
  15  ****** ****** ****** ****** ****** ****** ****** ****** ****** ******
      ****** ****** ****** ****** ****** ****** ****** ****** ****** ******
      ****** ****** ****** ****** ****** ****** ****** ****** ****** ******
  16  ****** ****** ****** ****** ****** ****** ****** ****** ****** ******
      ****** ****** ****** ****** ****** ****** ****** ****** ****** ******
      ****** ****** ****** ****** ****** ****** ****** ****** ****** ******
  17  ****** ****** ****** ****** ****** ****** ****** ****** ****** ******
      ****** ****** ****** ****** ****** ****** ****** ****** ****** ******
      ****** ****** ****** ****** ****** ****** ****** ****** ****** ******
  18  ****** ****** ****** ****** ****** ****** ****** ****** ****** ******
      ****** ****** ****** ****** ****** ****** ****** ****** ****** ******
      ****** ****** ****** ****** ****** ****** ****** ****** ****** ******
  19  ****** ****** ****** ****** ****** ****** ****** ****** ****** ******
      ****** ****** ****** ****** ****** ****** ****** ****** ****** ******
      ****** ****** ****** ****** ****** ****** ****** ****** ****** ******
  20  ****** ****** ****** ****** ****** ****** ****** ****** ****** ******
      ****** ****** ****** ****** ****** ****** ****** ****** ****** ******
      ****** ****** ****** ****** ****** ****** ****** ****** ****** ******
  21  ****** ****** ****** ****** ****** ****** ****** ****** ****** ******
      ****** ****** ****** ****** ****** ****** ****** ****** ****** ******
      ****** ****** ****** ****** ****** ****** ****** ****** ****** ******
  22  ****** ****** ****** ****** ****** ****** ****** ****** ****** ******
      ****** ****** ****** ****** ****** ****** ****** ****** ****** ******
      ****** ****** ****** ****** ****** ****** ****** ****** ****** ******
  23  ****** ****** ****** ****** ****** ****** ****** ****** ****** ******
      ****** ****** ****** ****** ****** ****** ****** ****** ****** ******
      ****** ****** ****** ****** ****** ****** ****** ****** ****** ******
  24  ****** ****** ****** ****** ****** ****** ****** ****** ****** ******
      ****** ****** ****** ****** ****** ****** ****** ****** ****** ******
      ****** ****** ****** ****** ****** ****** ****** ****** ****** ******
  25  ****** ****** ****** ****** ****** ****** ****** ****** ****** ******
      ****** ****** ****** ****** ****** ****** ****** ****** ****** ******
      ****** ****** ****** ****** ****** ****** ****** ****** ****** ******

 HEAD WILL BE SAVED ON UNIT   51 AT END OF TIME STEP    1, STRESS PERIOD   11
1
  VOLUMETRIC BUDGET FOR ENTIRE MODEL AT END OF TIME STEP    1, STRESS PERIOD  11
  ------------------------------------------------------------------------------

     CUMULATIVE VOLUMES      L**3       RATES FOR THIS TIME STEP      L**3/T
     ------------------                 ------------------------

           IN:                                      IN:
           ---                                      ---
             STORAGE =    37745040.2165               STORAGE =       18101.9104
       CONSTANT HEAD =    31422272.8156         CONSTANT HEAD =       38248.7505
               WELLS =           0.0000                 WELLS =           0.0000
            RECHARGE =    23901600.0000              RECHARGE =           0.0000
      STREAM LEAKAGE =     7836361.4975        STREAM LEAKAGE =        9972.5039

            TOTAL IN =   100905274.5296              TOTAL IN =       66323.1648

          OUT:                                     OUT:
          ----                                     ----
             STORAGE =     2222670.9783               STORAGE =           0.0000
       CONSTANT HEAD =           0.0000         CONSTANT HEAD =           0.0000
               WELLS =    31586622.6557                 WELLS =       31460.7795
            RECHARGE =           0.0000              RECHARGE =           0.0000
      STREAM LEAKAGE =    67095982.9599        STREAM LEAKAGE =       34862.3902

           TOTAL OUT =   100905276.5939             TOTAL OUT =       66323.1697

            IN - OUT =          -2.0643              IN - OUT =      -4.9679E-03

 PERCENT DISCREPANCY =          -0.00     PERCENT DISCREPANCY =          -0.00






         TIME SUMMARY AT END OF TIME STEP    1 IN STRESS PERIOD   11
                    SECONDS     MINUTES      HOURS       DAYS        YEARS
                    -----------------------------------------------------------
   TIME STEP LENGTH 7.86240E+06 1.31040E+05  2184.0      91.000     0.24914    
 STRESS PERIOD TIME 7.86240E+06 1.31040E+05  2184.0      91.000     0.24914    
         TOTAL TIME 8.67456E+07 1.44576E+06  24096.      1004.0      2.7488    
1
1
                            STRESS PERIOD NO.   12, LENGTH =   91.00000    
                            -----------------------------------------------

                              NUMBER OF TIME STEPS =     1

                               MULTIPLIER FOR DELT =     1.500

                            INITIAL TIME STEP SIZE =   91.00000    

 WELL NO.  LAYER   ROW   COL   STRESS RATE         
 --------------------------------------------------
      1      1     20     21      -6420.    
      2      1     18     16      -7655.    
      3      1     20     18     -0.1052E+05
      4      1      4      9      -6868.    

      4 WELLS

                 RECHARGE =  1.000000E-03

 REUSING STREAM SEGMENT DATA FROM LAST STRESS PERIOD
 
 SOLVING FOR HEAD 


     7 CALLS TO PCG ROUTINE FOR TIME STEP   1 IN STRESS PERIOD   12
    24 TOTAL ITERATIONS

 OUTPUT CONTROL FOR STRESS PERIOD   12   TIME STEP    1
    SAVE BUDGET
    SAVE HEAD FOR ALL LAYERS
    PRINT HEAD FOR ALL LAYERS
 UBDSV2 SAVING "STREAMFLOW OUT  " ON UNIT  50 AT TIME STEP  1, STRESS PERIOD  12



 STREAM LISTING     PERIOD     12   STEP        1

 LAYER ROW COL. STREAM  RCH.  FLOW INTO     FLOW TO   FLOW OUT OF   OVRLND.     DIRECT     STREAM       STREAM     STREAM     STREAM   STREAMBED  STREAMBED
                SEG.NO.  NO.  STRM. RCH.    AQUIFER    STRM. RCH.    RUNOFF     PRECIP       ET          HEAD       DEPTH      WIDTH   CONDCTNC.   GRADIENT

   1   13    1     1     1    1.0000E+05 -1.1981E+03   1.0120E+05  0.000E+00  0.000E+00  0.000E+00  4.84065E+01  1.452E-01  2.000E+01  2.000E+04 -5.991E-02
   1   13    2     1     2    1.0120E+05 -2.0947E+03   1.0329E+05  0.000E+00  0.000E+00  0.000E+00  4.79307E+01  1.466E-01  2.000E+01  2.000E+04 -1.047E-01
   1   14    3     1     3    1.0329E+05 -3.8030E+02   1.0367E+05  0.000E+00  0.000E+00  0.000E+00  4.74545E+01  1.477E-01  2.000E+01  2.000E+04 -1.901E-02
   1   15    4     1     4    1.0367E+05 -3.5875E+02   1.0403E+05  0.000E+00  0.000E+00  0.000E+00  4.69775E+01  1.480E-01  2.000E+01  2.000E+04 -1.794E-02
   1   16    5     1     5    1.0403E+05 -1.3060E+03   1.0534E+05  0.000E+00  0.000E+00  0.000E+00  4.65010E+01  1.487E-01  2.000E+01  2.000E+04 -6.530E-02
   1   16    6     1     6    1.0534E+05 -7.9161E+02   1.0613E+05  0.000E+00  0.000E+00  0.000E+00  4.60246E+01  1.496E-01  2.000E+01  2.000E+04 -3.958E-02
   1   16    7     1     7    1.0613E+05 -7.3154E+02   1.0686E+05  0.000E+00  0.000E+00  0.000E+00  4.55479E+01  1.502E-01  2.000E+01  2.000E+04 -3.658E-02
   1   16    8     1     8    1.0686E+05 -6.6430E+02   1.0753E+05  0.000E+00  0.000E+00  0.000E+00  4.50713E+01  1.508E-01  2.000E+01  2.000E+04 -3.322E-02
   1   16    9     1     9    1.0753E+05 -5.6704E+02   1.0809E+05  0.000E+00  0.000E+00  0.000E+00  4.45945E+01  1.513E-01  2.000E+01  2.000E+04 -2.835E-02
   1   16   10     1    10    1.0809E+05 -4.2285E+02   1.0852E+05  0.000E+00  0.000E+00  0.000E+00  4.41177E+01  1.517E-01  2.000E+01  2.000E+04 -2.114E-02
   1   16   11     1    11    1.0852E+05 -1.9516E+02   1.0871E+05  0.000E+00  0.000E+00  0.000E+00  4.36406E+01  1.520E-01  2.000E+01  2.000E+04 -9.758E-03
   1   16   12     1    12    1.0871E+05  3.7540E+02   1.0833E+05  0.000E+00  0.000E+00  0.000E+00  4.31633E+01  1.519E-01  2.000E+01  2.000E+04  1.877E-02
   1   15   13     1    13    1.0833E+05  3.4398E+02   1.0799E+05  0.000E+00  0.000E+00  0.000E+00  4.26857E+01  1.516E-01  2.000E+01  2.000E+04  1.720E-02
   1   14   14     1    14    1.0799E+05 -6.5468E+01   1.0806E+05  0.000E+00  0.000E+00  0.000E+00  4.22083E+01  1.515E-01  2.000E+01  2.000E+04 -3.273E-03
   1   13   15     1    15    1.0806E+05 -6.8209E+02   1.0874E+05  0.000E+00  0.000E+00  0.000E+00  4.17314E+01  1.518E-01  2.000E+01  2.000E+04 -3.410E-02
   1   12   16     1    16    1.0874E+05 -1.8331E+03   1.1057E+05  0.000E+00  0.000E+00  0.000E+00  4.12551E+01  1.529E-01  2.000E+01  2.000E+04 -9.166E-02
   1   12   17     1    17    1.1057E+05 -1.0036E+03   1.1158E+05  0.000E+00  0.000E+00  0.000E+00  4.07791E+01  1.541E-01  2.000E+01  2.000E+04 -5.018E-02
   1   12   18     1    18    1.1158E+05 -9.7846E+02   1.1255E+05  0.000E+00  0.000E+00  0.000E+00  4.03026E+01  1.549E-01  2.000E+01  2.000E+04 -4.892E-02
   1   12   19     1    19    1.1255E+05 -1.6655E+03   1.1422E+05  0.000E+00  0.000E+00  0.000E+00  3.98264E+01  1.560E-01  2.000E+01  2.000E+04 -8.327E-02
   1   13   20     1    20    1.1422E+05 -4.3954E+02   1.1466E+05  0.000E+00  0.000E+00  0.000E+00  3.93500E+01  1.568E-01  2.000E+01  2.000E+04 -2.198E-02
   1   14   21     1    21    1.1466E+05  7.3738E+02   1.1392E+05  0.000E+00  0.000E+00  0.000E+00  3.88726E+01  1.567E-01  2.000E+01  2.000E+04  3.687E-02
   1   14   22     1    22    1.1392E+05  5.2206E+03   1.0870E+05  0.000E+00  0.000E+00  0.000E+00  3.83929E+01  1.543E-01  2.000E+01  2.000E+04  2.610E-01
   1    9   30     2     1    5.0000E+04 -6.4387E+02   5.0644E+04  0.000E+00  0.000E+00  0.000E+00  4.02413E+01  1.163E-01  2.000E+01  2.000E+04 -3.219E-02
   1    9   29     2     2    5.0644E+04 -9.3878E+02   5.1583E+04  0.000E+00  0.000E+00  0.000E+00  3.99924E+01  1.174E-01  2.000E+01  2.000E+04 -4.694E-02
   1    9   28     2     3    5.1583E+04 -1.1824E+03   5.2765E+04  0.000E+00  0.000E+00  0.000E+00  3.97439E+01  1.189E-01  2.000E+01  2.000E+04 -5.912E-02
   1    9   27     2     4    5.2765E+04 -2.3787E+03   5.5144E+04  0.000E+00  0.000E+00  0.000E+00  3.94963E+01  1.213E-01  2.000E+01  2.000E+04 -1.189E-01
   1   10   26     2     5    5.5144E+04 -1.6027E+03   5.6746E+04  0.000E+00  0.000E+00  0.000E+00  3.92489E+01  1.239E-01  2.000E+01  2.000E+04 -8.013E-02
   1   11   25     2     6    5.6746E+04 -1.4038E+03   5.8150E+04  0.000E+00  0.000E+00  0.000E+00  3.90009E+01  1.259E-01  2.000E+01  2.000E+04 -7.019E-02
   1   12   24     2     7    5.8150E+04 -1.4649E+03   5.9615E+04  0.000E+00  0.000E+00  0.000E+00  3.87528E+01  1.278E-01  2.000E+01  2.000E+04 -7.325E-02
   1   13   23     2     8    5.9615E+04 -2.4882E+02   5.9864E+04  0.000E+00  0.000E+00  0.000E+00  3.85039E+01  1.289E-01  2.000E+01  2.000E+04 -1.244E-02
   1   14   22     2     9    5.9864E+04  2.4130E+03   5.7451E+04  0.000E+00  0.000E+00  0.000E+00  3.82525E+01  1.275E-01  2.000E+01  2.000E+04  1.207E-01
   1   14   22     3     1    1.6615E+05 -8.2225E+03   1.7437E+05  0.000E+00  0.000E+00  0.000E+00  3.77207E+01  1.652E-01  2.000E+01  2.000E+04 -4.111E-01
   1   15   23     3     2    1.7437E+05 -6.8835E+01   1.7444E+05  0.000E+00  0.000E+00  0.000E+00  3.68343E+01  1.676E-01  2.000E+01  2.000E+04 -3.442E-03
   1   15   24     3     3    1.7444E+05 -1.3628E+02   1.7458E+05  0.000E+00  0.000E+00  0.000E+00  3.59454E+01  1.676E-01  2.000E+01  2.000E+04 -6.814E-03
   1   15   25     3     4    1.7458E+05 -1.7647E+02   1.7476E+05  0.000E+00  0.000E+00  0.000E+00  3.50566E+01  1.677E-01  2.000E+01  2.000E+04 -8.824E-03
   1   15   26     3     5    1.7476E+05 -2.7722E+02   1.7503E+05  0.000E+00  0.000E+00  0.000E+00  3.41679E+01  1.679E-01  2.000E+01  2.000E+04 -1.386E-02
   1   16   27     3     6    1.7503E+05 -2.6039E+02   1.7529E+05  0.000E+00  0.000E+00  0.000E+00  3.32791E+01  1.680E-01  2.000E+01  2.000E+04 -1.302E-02
   1   17   28     3     7    1.7529E+05 -1.1010E+03   1.7639E+05  0.000E+00  0.000E+00  0.000E+00  3.23906E+01  1.684E-01  2.000E+01  2.000E+04 -5.505E-02
   1   18   29     3     8    1.7639E+05 -1.8611E+03   1.7826E+05  0.000E+00  0.000E+00  0.000E+00  3.15026E+01  1.693E-01  2.000E+01  2.000E+04 -9.305E-02
   1   18   30     3     9    1.7826E+05 -2.5631E+03   1.8082E+05  0.000E+00  0.000E+00  0.000E+00  3.06150E+01  1.705E-01  2.000E+01  2.000E+04 -1.282E-01



1
              HEAD IN LAYER   1 AT END OF TIME STEP   1 IN STRESS PERIOD   12
  ---------------------------------------------------------------------------

          1      2      3      4      5      6      7      8      9     10
         11     12     13     14     15     16     17     18     19     20
         21     22     23     24     25     26     27     28     29     30
 .........................................................................
   1  ****** ****** ****** ****** ****** ****** ****** ****** ****** ******
      ****** ****** ****** ****** ****** ****** ****** ****** ****** ******
      ****** ****** ****** ****** ****** ****** ****** ****** ****** ******
   2  ****** ****** ****** ****** ****** ****** ****** ****** ****** ******
      ****** ****** ****** ****** ****** ****** ****** ****** ****** ******
      ****** ****** ****** ****** ****** ****** ****** ****** ****** ******
   3  ****** ****** ****** ****** ****** ****** ****** ****** ****** ******
      ****** ****** ****** ****** ****** ****** ****** ****** ****** ******
      ****** ****** ****** ****** ****** ****** ****** ****** ****** ******
   4  ****** ****** ****** ****** ****** ****** ****** ****** ****** ******
      ****** ****** ****** ****** ****** ****** ****** ****** ****** ******
      ****** ****** ****** ****** ****** ****** ****** ****** ****** ******
   5  ****** ****** ****** ****** ****** ****** ****** ****** ****** ******
      ****** ****** ****** ****** ****** ****** ****** ****** ****** ******
      ****** ****** ****** ****** ****** ****** ****** ****** ****** ******
   6  ****** ****** ****** ****** ****** ****** ****** ****** ****** ******
      ****** ****** ****** ****** ****** ****** ****** ****** ****** ******
      ****** ****** ****** ****** ****** ****** ****** ****** ****** ******
   7  ****** ****** ****** ****** ****** ****** ****** ****** ****** ******
      ****** ****** ****** ****** ****** ****** ****** ****** ****** ******
      ****** ****** ****** ****** ****** ****** ****** ****** ****** ******
   8  ****** ****** ****** ****** ****** ****** ****** ****** ****** ******
      ****** ****** ****** ****** ****** ****** ****** ****** ****** ******
      ****** ****** ****** ****** ****** ****** ****** ****** ****** ******
   9  ****** ****** ****** ****** ****** ****** ****** ****** ****** ******
      ****** ****** ****** ****** ****** ****** ****** ****** ****** ******
      ****** ****** ****** ****** ****** ****** ****** ****** ****** ******
  10  ****** ****** ****** ****** ****** ****** ****** ****** ****** ******
      ****** ****** ****** ****** ****** ****** ****** ****** ****** ******
      ****** ****** ****** ****** ****** ****** ****** ****** ****** ******
  11  ****** ****** ****** ****** ****** ****** ****** ****** ****** ******
      ****** ****** ****** ****** ****** ****** ****** ****** ****** ******
      ****** ****** ****** ****** ****** ****** ****** ****** ****** ******
  12  ****** ****** ****** ****** ****** ****** ****** ****** ****** ******
      ****** ****** ****** ****** ****** ****** ****** ****** ****** ******
      ****** ****** ****** ****** ****** ****** ****** ****** ****** ******
  13  ****** ****** ****** ****** ****** ****** ****** ****** ****** ******
      ****** ****** ****** ****** ****** ****** ****** ****** ****** ******
      ****** ****** ****** ****** ****** ****** ****** ****** ****** ******
  14  ****** ****** ****** ****** ****** ****** ****** ****** ****** ******
      ****** ****** ****** ****** ****** ****** ****** ****** ****** ******
      ****** ****** ****** ****** ****** ****** ****** ****** ****** ******
  15  ****** ****** ****** ****** ****** ****** ****** ****** ****** ******
      ****** ****** ****** ****** ****** ****** ****** ****** ****** ******
      ****** ****** ****** ****** ****** ****** ****** ****** ****** ******
  16  ****** ****** ****** ****** ****** ****** ****** ****** ****** ******
      ****** ****** ****** ****** ****** ****** ****** ****** ****** ******
      ****** ****** ****** ****** ****** ****** ****** ****** ****** ******
  17  ****** ****** ****** ****** ****** ****** ****** ****** ****** ******
      ****** ****** ****** ****** ****** ****** ****** ****** ****** ******
      ****** ****** ****** ****** ****** ****** ****** ****** ****** ******
  18  ****** ****** ****** ****** ****** ****** ****** ****** ****** ******
      ****** ****** ****** ****** ****** ****** ****** ****** ****** ******
      ****** ****** ****** ****** ****** ****** ****** ****** ****** ******
  19  ****** ****** ****** ****** ****** ****** ****** ****** ****** ******
      ****** ****** ****** ****** ****** ****** ****** ****** ****** ******
      ****** ****** ****** ****** ****** ****** ****** ****** ****** ******
  20  ****** ****** ****** ****** ****** ****** ****** ****** ****** ******
      ****** ****** ****** ****** ****** ****** ****** ****** ****** ******
      ****** ****** ****** ****** ****** ****** ****** ****** ****** ******
  21  ****** ****** ****** ****** ****** ****** ****** ****** ****** ******
      ****** ****** ****** ****** ****** ****** ****** ****** ****** ******
      ****** ****** ****** ****** ****** ****** ****** ****** ****** ******
  22  ****** ****** ****** ****** ****** ****** ****** ****** ****** ******
      ****** ****** ****** ****** ****** ****** ****** ****** ****** ******
      ****** ****** ****** ****** ****** ****** ****** ****** ****** ******
  23  ****** ****** ****** ****** ****** ****** ****** ****** ****** ******
      ****** ****** ****** ****** ****** ****** ****** ****** ****** ******
      ****** ****** ****** ****** ****** ****** ****** ****** ****** ******
  24  ****** ****** ****** ****** ****** ****** ****** ****** ****** ******
      ****** ****** ****** ****** ****** ****** ****** ****** ****** ******
      ****** ****** ****** ****** ****** ****** ****** ****** ****** ******
  25  ****** ****** ****** ****** ****** ****** ****** ****** ****** ******
      ****** ****** ****** ****** ****** ****** ****** ****** ****** ******
      ****** ****** ****** ****** ****** ****** ****** ****** ****** ******

 HEAD WILL BE SAVED ON UNIT   51 AT END OF TIME STEP    1, STRESS PERIOD   12
1
  VOLUMETRIC BUDGET FOR ENTIRE MODEL AT END OF TIME STEP    1, STRESS PERIOD  12
  ------------------------------------------------------------------------------

     CUMULATIVE VOLUMES      L**3       RATES FOR THIS TIME STEP      L**3/T
     ------------------                 ------------------------

           IN:                                      IN:
           ---                                      ---
             STORAGE =    37748091.7145               STORAGE =          33.5329
       CONSTANT HEAD =    34840799.9068         CONSTANT HEAD =       37566.2318
               WELLS =           0.0000                 WELLS =           0.0000
            RECHARGE =    26413200.0000              RECHARGE =       27600.0000
      STREAM LEAKAGE =     8663586.0211        STREAM LEAKAGE =        9090.3794

            TOTAL IN =   107665677.6424              TOTAL IN =       74290.1441

          OUT:                                     OUT:
          ----                                     ----
             STORAGE =     2488416.7024               STORAGE =        2920.2827
       CONSTANT HEAD =           0.0000         CONSTANT HEAD =           0.0000
               WELLS =    34449553.5936                 WELLS =       31460.7795
            RECHARGE =           0.0000              RECHARGE =           0.0000
      STREAM LEAKAGE =    70727709.3248        STREAM LEAKAGE =       39909.0809

           TOTAL OUT =   107665679.6208             TOTAL OUT =       74290.1432

            IN - OUT =          -1.9783              IN - OUT =       9.4485E-04

 PERCENT DISCREPANCY =          -0.00     PERCENT DISCREPANCY =           0.00






         TIME SUMMARY AT END OF TIME STEP    1 IN STRESS PERIOD   12
                    SECONDS     MINUTES      HOURS       DAYS        YEARS
                    -----------------------------------------------------------
   TIME STEP LENGTH 7.86240E+06 1.31040E+05  2184.0      91.000     0.24914    
 STRESS PERIOD TIME 7.86240E+06 1.31040E+05  2184.0      91.000     0.24914    
         TOTAL TIME 9.46080E+07 1.57680E+06  26280.      1095.0      2.9979    
1

 Run end date and time (yyyy/mm/dd hh:mm:ss): 2019/08/27 21:01:18
 Elapsed run time:  0.043 Seconds

