                                  MODFLOW-2005     
      U.S. GEOLOGICAL SURVEY MODULAR FINITE-DIFFERENCE GROUND-WATER FLOW MODEL
                            VERSION 1.11.00 8/8/2013

 LIST FILE: supply2.lst
                         UNIT   10

 OPENING ..\data\supply.dis
 FILE TYPE:DIS   UNIT   11   STATUS:OLD    
 FORMAT:FORMATTED              ACCESS:SEQUENTIAL          

 OPENING ..\data\supply.ba6
 FILE TYPE:BAS6   UNIT   12   STATUS:OLD    
 FORMAT:FORMATTED              ACCESS:SEQUENTIAL          

 OPENING ..\data\supply_het.bc6
 FILE TYPE:BCF6   UNIT   13   STATUS:OLD    
 FORMAT:FORMATTED              ACCESS:SEQUENTIAL          

 OPENING ..\data\supply.rch
 FILE TYPE:RCH   UNIT   15   STATUS:OLD    
 FORMAT:FORMATTED              ACCESS:SEQUENTIAL          

 OPENING ..\data\supply2.sfr
 FILE TYPE:SFR   UNIT   16   STATUS:OLD    
 FORMAT:FORMATTED              ACCESS:SEQUENTIAL          

 OPENING ..\data\supply.oc
 FILE TYPE:OC   UNIT   17   STATUS:OLD    
 FORMAT:FORMATTED              ACCESS:SEQUENTIAL          

 OPENING ..\data\supply.pcg
 FILE TYPE:PCG   UNIT   18   STATUS:OLD    
 FORMAT:FORMATTED              ACCESS:SEQUENTIAL          

 OPENING supply2.wel
 FILE TYPE:WEL   UNIT   19   STATUS:OLD    
 FORMAT:FORMATTED              ACCESS:SEQUENTIAL          

 OPENING supply2sf.cbc
 FILE TYPE:DATA(BINARY)   UNIT   50   STATUS:UNKNOWN
 FORMAT:BINARY                 ACCESS:SEQUENTIAL          

 OPENING supply2hd.bhd
 FILE TYPE:DATA(BINARY)   UNIT   51   STATUS:UNKNOWN
 FORMAT:BINARY                 ACCESS:SEQUENTIAL          

 BAS -- BASIC PACKAGE, VERSION 7, 5/2/2005 INPUT READ FROM UNIT   12
 
 MODFLOW was compiled using uniform precision
 Precision of REAL and DOUBLE PRECISION variables:          15

 DISCRETIZATION INPUT DATA READ FROM UNIT   11
    1 LAYERS        25 ROWS        30 COLUMNS
   12 STRESS PERIOD(S) IN SIMULATION
 MODEL TIME UNIT IS DAYS
 MODEL LENGTH UNIT IS UNDEFINED
  Confining bed flag for each layer:
   0

                     DELR =   200.000    

                     DELC =   200.000    

 TOP ELEVATION OF LAYER 1 =  100.0000    

   MODEL LAYER BOTTOM EL. =   0.00000     FOR LAYER   1


 STRESS PERIOD     LENGTH       TIME STEPS     MULTIPLIER FOR DELT    SS FLAG
 ----------------------------------------------------------------------------
        1         92.00000          1                    1.500         TR
        2         91.00000          1                    1.500         TR
        3         91.00000          1                    1.500         TR
        4         91.00000          1                    1.500         TR
        5         92.00000          1                    1.500         TR
        6         91.00000          1                    1.500         TR
        7         91.00000          1                    1.500         TR
        8         91.00000          1                    1.500         TR
        9         92.00000          1                    1.500         TR
       10         91.00000          1                    1.500         TR
       11         91.00000          1                    1.500         TR
       12         91.00000          1                    1.500         TR

 TRANSIENT SIMULATION



 
 #MODOFC transient water supply sample problem                                   
 #                                                                               
 THE FREE FORMAT OPTION HAS BEEN SELECTED



                     BOUNDARY ARRAY FOR LAYER   1
 READING ON UNIT   12 WITH FORMAT: (20I4)              

 AQUIFER HEAD WILL BE SET TO   0.0000     AT ALL NO-FLOW NODES (IBOUND=0).



                       INITIAL HEAD FOR LAYER   1
 READING ON UNIT   12 WITH FORMAT: (10F13.0)           

 OUTPUT CONTROL IS SPECIFIED ONLY AT TIME STEPS FOR WHICH OUTPUT IS DESIRED
 COMPACT CELL-BY-CELL BUDGET FILES WILL BE WRITTEN
 HEAD PRINT FORMAT CODE IS  18    DRAWDOWN PRINT FORMAT CODE IS   0
 HEADS WILL BE SAVED ON UNIT   51    DRAWDOWNS WILL BE SAVED ON UNIT    0

 BCF -- BLOCK-CENTERED FLOW PACKAGE, VERSION 7, 5/2/2005
         INPUT READ FROM UNIT 13
 TRANSIENT SIMULATION
 HEAD AT CELLS THAT CONVERT TO DRY=   0.0000    
 WETTING CAPABILITY IS NOT ACTIVE
      LAYER  LAYER-TYPE CODE     INTERBLOCK T
      --------------------------------------------
         1            0          0 -- HARMONIC    

 COLUMN TO ROW ANISOTROPY =  1.000000    

     PRIMARY STORAGE COEF =  5.000000E-02 FOR LAYER   1



               TRANSMIS. ALONG ROWS FOR LAYER   1
 READING ON UNIT   13 WITH FORMAT: (FREE)              

 WEL -- WELL PACKAGE, VERSION 7, 5/2/2005 INPUT READ FROM UNIT   19
 # Well package input file written by MMProc
 No named parameters
 MAXIMUM OF      4 ACTIVE WELLS AT ONE TIME


     0 Well parameters

 RCH -- RECHARGE PACKAGE, VERSION 7, 5/2/2005 INPUT READ FROM UNIT   15
 No named parameters
 OPTION 1 -- RECHARGE TO TOP LAYER


     0 Recharge parameters

 SFR7 -- STREAMFLOW ROUTING PACKAGE, VERSION 1.0.7, 2013-01-15
         INPUT READ FROM UNIT  16
 #  Supply2 test problem for GWM-VI
 #  The eighth entry in the first data line is ISTCB2 -
 #    Setting this to a negative number indicates that
 #    streamflows out of the reach will be saved to a
 #    binary file.  The absolute value of ISTCB2 is the
 #    unit to which unformatted flows will be written.
 #
 No named parameters
 Segment information will not be 
 read by reach
 No named parameters
 No specifed inflow files


 NUMBER OF STREAM REACHES IS   40

 NUMBER OF STREAM SEGMENTS IS    3

 NUMBER OF STREAM PARAMETERS IS    0

 NUMBER OF STREAM SEGMENTS DEFINED USING PARAMETERS IS              0

 MAXIMUM ERROR FOR STREAM LEAKAGE RATES IS  1.00E-04

 CONSTANT FOR MANNINGS EQUATION IS  1.2839E+05





   STREAM NETWORK DESCRIPTION: 

   LAYER    ROW    COL   SEGMENT   REACH     LENGTH
                          NUMBER   NUMBER    IN CELL        
   --------------------------------------------------
      1     13      1       1        1    2.0000E+02
      1     13      2       1        2    2.0000E+02
      1     14      3       1        3    2.0000E+02
      1     15      4       1        4    2.0000E+02
      1     16      5       1        5    2.0000E+02
      1     16      6       1        6    2.0000E+02
      1     16      7       1        7    2.0000E+02
      1     16      8       1        8    2.0000E+02
      1     16      9       1        9    2.0000E+02
      1     16     10       1       10    2.0000E+02
      1     16     11       1       11    2.0000E+02
      1     16     12       1       12    2.0000E+02
      1     15     13       1       13    2.0000E+02
      1     14     14       1       14    2.0000E+02
      1     13     15       1       15    2.0000E+02
      1     12     16       1       16    2.0000E+02
      1     12     17       1       17    2.0000E+02
      1     12     18       1       18    2.0000E+02
      1     12     19       1       19    2.0000E+02
      1     13     20       1       20    2.0000E+02
      1     14     21       1       21    2.0000E+02
      1     14     22       1       22    2.0000E+02
      1      9     30       2        1    2.0000E+02
      1      9     29       2        2    2.0000E+02
      1      9     28       2        3    2.0000E+02
      1      9     27       2        4    2.0000E+02
      1     10     26       2        5    2.0000E+02
      1     11     25       2        6    2.0000E+02
      1     12     24       2        7    2.0000E+02
      1     13     23       2        8    2.0000E+02
      1     14     22       2        9    2.0000E+02
      1     14     22       3        1    2.0000E+02
      1     15     23       3        2    2.0000E+02
      1     15     24       3        3    2.0000E+02
      1     15     25       3        4    2.0000E+02
      1     15     26       3        5    2.0000E+02
      1     16     27       3        6    2.0000E+02
      1     17     28       3        7    2.0000E+02
      1     18     29       3        8    2.0000E+02
      1     18     30       3        9    2.0000E+02




 PCG -- CONJUGATE-GRADIENT SOLUTION PACKAGE, VERSION 7, 5/2/2005
 MAXIMUM OF    500 CALLS OF SOLUTION ROUTINE
 MAXIMUM OF      5 INTERNAL ITERATIONS PER CALL TO SOLUTION ROUTINE
 MATRIX PRECONDITIONING TYPE :    1



                                    SOLUTION BY THE CONJUGATE-GRADIENT METHOD
                                   -------------------------------------------
                    MAXIMUM NUMBER OF CALLS TO PCG ROUTINE =      500
                        MAXIMUM ITERATIONS PER CALL TO PCG =        5
                               MATRIX PRECONDITIONING TYPE =        1
        RELAXATION FACTOR (ONLY USED WITH PRECOND. TYPE 1) =    0.10000E+01
 PARAMETER OF POLYNOMIAL PRECOND. = 2 (2) OR IS CALCULATED :        0
                         HEAD CHANGE CRITERION FOR CLOSURE =    0.10000E-05
                     RESIDUAL CHANGE CRITERION FOR CLOSURE =    0.10000E+01
            PCG HEAD AND RESIDUAL CHANGE PRINTOUT INTERVAL =        1
     PRINTING FROM SOLVER IS LIMITED(1) OR SUPPRESSED (>1) =        1
                            STEADY-STATE DAMPING PARAMETER =    0.10000E+01
                               TRANSIENT DAMPING PARAMETER =    0.10000E+01
1
                            STRESS PERIOD NO.    1, LENGTH =   92.00000    
                            -----------------------------------------------

                              NUMBER OF TIME STEPS =     1

                               MULTIPLIER FOR DELT =     1.500

                            INITIAL TIME STEP SIZE =   92.00000    

 WELL NO.  LAYER   ROW   COL   STRESS RATE         
 --------------------------------------------------
      1      1     20     21      -6420.    
      2      1     18     16      -7655.    
      3      1     20     18      -5517.    
      4      1      4      9     -0.1187E+05

      4 WELLS

                 RECHARGE =  5.000000E-04



 CLASSIFICATION & COUNT OF STREAM SEGMENTS BASED ON SOURCE OF INFLOW:

                HEADWATER     DIVERSION     RECEIVES TRIBUTARY FLOW
                ---------     ---------     -----------------------
                     2              0               1



                    INPUT DATA FOR EACH STREAM SEGMENT
 ---------------------------------------------------------------------------------------------

 SEGMENT    SEG.     INFLOW   OVERLAND   STREAM    STREAM   ICALC  OUTFLOW  DIVERSION PRIORITY
    NO.    LENGTH     RATE     RUNOFF      ET       PPT.    METH.  TO SEG.  FROM SEG.    NO.

      1  4.400E+03 1.000E+05 0.000E+00 0.000E+00 0.000E+00    1        3        0        0
      2  1.800E+03 5.000E+04 0.000E+00 0.000E+00 0.000E+00    1        3        0        0
      3  1.800E+03 0.000E+00 0.000E+00 0.000E+00 0.000E+00    1        0        0        0


         STREAMBED PROPERTIES AND STREAM DIMENSIONS

 SEGMENT     BED HYD. COND.      BED THICKNESS     ELEV.-TOP OF BED     WIDTH OF STREAM     DEPTH OF STREAM    STREAM ROUGHNESS
    No.     UPPER     LOWER     UPPER     LOWER     UPPER     LOWER     UPPER     LOWER     UPPER     LOWER   CHANNEL      BANK

     1  5.000E+00 5.000E+00 1.000E+00 1.000E+00 4.850E+01 3.800E+01 2.000E+01 2.000E+01                     5.000E-02
     2  5.000E+00 5.000E+00 1.000E+00 1.000E+00 4.025E+01 3.800E+01 2.000E+01 2.000E+01                     5.000E-02
     3  5.000E+00 5.000E+00 1.000E+00 1.000E+00 3.800E+01 3.000E+01 2.000E+01 2.000E+01                     5.000E-02



 
 SOLVING FOR HEAD 


     9 CALLS TO PCG ROUTINE FOR TIME STEP   1 IN STRESS PERIOD    1
    36 TOTAL ITERATIONS

 OUTPUT CONTROL FOR STRESS PERIOD    1   TIME STEP    1
    SAVE BUDGET
    SAVE HEAD FOR ALL LAYERS
    PRINT HEAD FOR ALL LAYERS
 UBDSV2 SAVING "STREAMFLOW OUT  " ON UNIT  50 AT TIME STEP  1, STRESS PERIOD   1



 STREAM LISTING     PERIOD      1   STEP        1

 LAYER ROW COL. STREAM  RCH.  FLOW INTO     FLOW TO   FLOW OUT OF   OVRLND.     DIRECT     STREAM       STREAM     STREAM     STREAM   STREAMBED  STREAMBED
                SEG.NO.  NO.  STRM. RCH.    AQUIFER    STRM. RCH.    RUNOFF     PRECIP       ET          HEAD       DEPTH      WIDTH   CONDCTNC.   GRADIENT

   1   13    1     1     1    1.0000E+05 -6.0020E+03   1.0600E+05  0.000E+00  0.000E+00  0.000E+00  4.84086E+01  1.472E-01  2.000E+01  2.000E+04 -3.001E-01
   1   13    2     1     2    1.0600E+05 -7.4676E+03   1.1347E+05  0.000E+00  0.000E+00  0.000E+00  4.79370E+01  1.529E-01  2.000E+01  2.000E+04 -3.734E-01
   1   14    3     1     3    1.1347E+05 -2.1919E+03   1.1566E+05  0.000E+00  0.000E+00  0.000E+00  4.74638E+01  1.569E-01  2.000E+01  2.000E+04 -1.096E-01
   1   15    4     1     4    1.1566E+05 -2.2641E+03   1.1793E+05  0.000E+00  0.000E+00  0.000E+00  4.69883E+01  1.588E-01  2.000E+01  2.000E+04 -1.132E-01
   1   16    5     1     5    1.1793E+05 -7.1403E+03   1.2507E+05  0.000E+00  0.000E+00  0.000E+00  4.65149E+01  1.626E-01  2.000E+01  2.000E+04 -3.570E-01
   1   16    6     1     6    1.2507E+05 -4.2636E+03   1.2933E+05  0.000E+00  0.000E+00  0.000E+00  4.60421E+01  1.671E-01  2.000E+01  2.000E+04 -2.132E-01
   1   16    7     1     7    1.2933E+05 -4.0842E+03   1.3341E+05  0.000E+00  0.000E+00  0.000E+00  4.55681E+01  1.704E-01  2.000E+01  2.000E+04 -2.042E-01
   1   16    8     1     8    1.3341E+05 -4.0207E+03   1.3743E+05  0.000E+00  0.000E+00  0.000E+00  4.50940E+01  1.735E-01  2.000E+01  2.000E+04 -2.010E-01
   1   16    9     1     9    1.3743E+05 -3.9748E+03   1.4141E+05  0.000E+00  0.000E+00  0.000E+00  4.46198E+01  1.766E-01  2.000E+01  2.000E+04 -1.987E-01
   1   16   10     1    10    1.4141E+05 -3.9153E+03   1.4532E+05  0.000E+00  0.000E+00  0.000E+00  4.41455E+01  1.796E-01  2.000E+01  2.000E+04 -1.958E-01
   1   16   11     1    11    1.4532E+05 -3.8454E+03   1.4917E+05  0.000E+00  0.000E+00  0.000E+00  4.36711E+01  1.825E-01  2.000E+01  2.000E+04 -1.923E-01
   1   16   12     1    12    1.4917E+05 -6.1710E+03   1.5534E+05  0.000E+00  0.000E+00  0.000E+00  4.31975E+01  1.862E-01  2.000E+01  2.000E+04 -3.085E-01
   1   15   13     1    13    1.5534E+05 -6.4915E+03   1.6183E+05  0.000E+00  0.000E+00  0.000E+00  4.27248E+01  1.908E-01  2.000E+01  2.000E+04 -3.246E-01
   1   14   14     1    14    1.6183E+05 -7.0595E+03   1.6889E+05  0.000E+00  0.000E+00  0.000E+00  4.22524E+01  1.956E-01  2.000E+01  2.000E+04 -3.530E-01
   1   13   15     1    15    1.6889E+05 -7.5739E+03   1.7647E+05  0.000E+00  0.000E+00  0.000E+00  4.17803E+01  2.008E-01  2.000E+01  2.000E+04 -3.787E-01
   1   12   16     1    16    1.7647E+05 -8.4922E+03   1.8496E+05  0.000E+00  0.000E+00  0.000E+00  4.13086E+01  2.063E-01  2.000E+01  2.000E+04 -4.246E-01
   1   12   17     1    17    1.8496E+05 -5.9824E+03   1.9094E+05  0.000E+00  0.000E+00  0.000E+00  4.08362E+01  2.112E-01  2.000E+01  2.000E+04 -2.991E-01
   1   12   18     1    18    1.9094E+05 -5.8579E+03   1.9680E+05  0.000E+00  0.000E+00  0.000E+00  4.03629E+01  2.152E-01  2.000E+01  2.000E+04 -2.929E-01
   1   12   19     1    19    1.9680E+05 -7.5240E+03   2.0432E+05  0.000E+00  0.000E+00  0.000E+00  3.98901E+01  2.196E-01  2.000E+01  2.000E+04 -3.762E-01
   1   13   20     1    20    2.0432E+05 -6.3616E+03   2.1068E+05  0.000E+00  0.000E+00  0.000E+00  3.94173E+01  2.242E-01  2.000E+01  2.000E+04 -3.181E-01
   1   14   21     1    21    2.1068E+05 -5.5640E+03   2.1625E+05  0.000E+00  0.000E+00  0.000E+00  3.89439E+01  2.280E-01  2.000E+01  2.000E+04 -2.782E-01
   1   14   22     1    22    2.1625E+05  3.7840E+03   2.1246E+05  0.000E+00  0.000E+00  0.000E+00  3.84672E+01  2.286E-01  2.000E+01  2.000E+04  1.892E-01
   1    9   30     2     1    5.0000E+04 -4.8559E+03   5.4856E+04  0.000E+00  0.000E+00  0.000E+00  4.02442E+01  1.192E-01  2.000E+01  2.000E+04 -2.428E-01
   1    9   29     2     2    5.4856E+04 -5.1514E+03   6.0007E+04  0.000E+00  0.000E+00  0.000E+00  4.00009E+01  1.259E-01  2.000E+01  2.000E+04 -2.576E-01
   1    9   28     2     3    6.0007E+04 -5.4366E+03   6.5444E+04  0.000E+00  0.000E+00  0.000E+00  3.97578E+01  1.328E-01  2.000E+01  2.000E+04 -2.718E-01
   1    9   27     2     4    6.5444E+04 -8.2930E+03   7.3737E+04  0.000E+00  0.000E+00  0.000E+00  3.95163E+01  1.413E-01  2.000E+01  2.000E+04 -4.146E-01
   1   10   26     2     5    7.3737E+04 -7.3327E+03   8.1070E+04  0.000E+00  0.000E+00  0.000E+00  3.92756E+01  1.506E-01  2.000E+01  2.000E+04 -3.666E-01
   1   11   25     2     6    8.1070E+04 -6.7891E+03   8.7859E+04  0.000E+00  0.000E+00  0.000E+00  3.90337E+01  1.587E-01  2.000E+01  2.000E+04 -3.395E-01
   1   12   24     2     7    8.7859E+04 -6.3020E+03   9.4161E+04  0.000E+00  0.000E+00  0.000E+00  3.87910E+01  1.660E-01  2.000E+01  2.000E+04 -3.151E-01
   1   13   23     2     8    9.4161E+04 -1.6519E+03   9.5813E+04  0.000E+00  0.000E+00  0.000E+00  3.85453E+01  1.703E-01  2.000E+01  2.000E+04 -8.260E-02
   1   14   22     2     9    9.5813E+04  3.5952E+02   9.5453E+04  0.000E+00  0.000E+00  0.000E+00  3.82960E+01  1.710E-01  2.000E+01  2.000E+04  1.798E-02
   1   14   22     3     1    3.0792E+05 -9.6905E+03   3.1761E+05  0.000E+00  0.000E+00  0.000E+00  3.77935E+01  2.379E-01  2.000E+01  2.000E+04 -4.845E-01
   1   15   23     3     2    3.1761E+05 -1.8309E+03   3.1944E+05  0.000E+00  0.000E+00  0.000E+00  3.69072E+01  2.405E-01  2.000E+01  2.000E+04 -9.154E-02
   1   15   24     3     3    3.1944E+05 -1.4984E+03   3.2094E+05  0.000E+00  0.000E+00  0.000E+00  3.60191E+01  2.413E-01  2.000E+01  2.000E+04 -7.492E-02
   1   15   25     3     4    3.2094E+05 -1.5632E+03   3.2250E+05  0.000E+00  0.000E+00  0.000E+00  3.51309E+01  2.420E-01  2.000E+01  2.000E+04 -7.816E-02
   1   15   26     3     5    3.2250E+05 -1.8751E+03   3.2437E+05  0.000E+00  0.000E+00  0.000E+00  3.42428E+01  2.428E-01  2.000E+01  2.000E+04 -9.375E-02
   1   16   27     3     6    3.2437E+05 -2.1496E+03   3.2652E+05  0.000E+00  0.000E+00  0.000E+00  3.33548E+01  2.437E-01  2.000E+01  2.000E+04 -1.075E-01
   1   17   28     3     7    3.2652E+05 -6.4947E+03   3.3302E+05  0.000E+00  0.000E+00  0.000E+00  3.24678E+01  2.456E-01  2.000E+01  2.000E+04 -3.247E-01
   1   18   29     3     8    3.3302E+05 -7.7875E+03   3.4081E+05  0.000E+00  0.000E+00  0.000E+00  3.15821E+01  2.488E-01  2.000E+01  2.000E+04 -3.894E-01
   1   18   30     3     9    3.4081E+05 -7.0559E+03   3.4786E+05  0.000E+00  0.000E+00  0.000E+00  3.06965E+01  2.521E-01  2.000E+01  2.000E+04 -3.528E-01



1
              HEAD IN LAYER   1 AT END OF TIME STEP   1 IN STRESS PERIOD    1
  ---------------------------------------------------------------------------

          1      2      3      4      5      6      7      8      9     10
         11     12     13     14     15     16     17     18     19     20
         21     22     23     24     25     26     27     28     29     30
 .........................................................................
   1  ****** ****** ****** ****** ****** ****** ****** ****** ****** ******
      ****** ****** ****** ****** ****** ****** ****** ****** ****** ******
      ****** ****** ****** ****** ****** ****** ****** ****** ****** ******
   2  ****** ****** ****** ****** ****** ****** ****** ****** ****** ******
      ****** ****** ****** ****** ****** ****** ****** ****** ****** ******
      ****** ****** ****** ****** ****** ****** ****** ****** ****** ******
   3  ****** ****** ****** ****** ****** ****** ****** ****** ****** ******
      ****** ****** ****** ****** ****** ****** ****** ****** ****** ******
      ****** ****** ****** ****** ****** ****** ****** ****** ****** ******
   4  ****** ****** ****** ****** ****** ****** ****** ****** ****** ******
      ****** ****** ****** ****** ****** ****** ****** ****** ****** ******
      ****** ****** ****** ****** ****** ****** ****** ****** ****** ******
   5  ****** ****** ****** ****** ****** ****** ****** ****** ****** ******
      ****** ****** ****** ****** ****** ****** ****** ****** ****** ******
      ****** ****** ****** ****** ****** ****** ****** ****** ****** ******
   6  ****** ****** ****** ****** ****** ****** ****** ****** ****** ******
      ****** ****** ****** ****** ****** ****** ****** ****** ****** ******
      ****** ****** ****** ****** ****** ****** ****** ****** ****** ******
   7  ****** ****** ****** ****** ****** ****** ****** ****** ****** ******
      ****** ****** ****** ****** ****** ****** ****** ****** ****** ******
      ****** ****** ****** ****** ****** ****** ****** ****** ****** ******
   8  ****** ****** ****** ****** ****** ****** ****** ****** ****** ******
      ****** ****** ****** ****** ****** ****** ****** ****** ****** ******
      ****** ****** ****** ****** ****** ****** ****** ****** ****** ******
   9  ****** ****** ****** ****** ****** ****** ****** ****** ****** ******
      ****** ****** ****** ****** ****** ****** ****** ****** ****** ******
      ****** ****** ****** ****** ****** ****** ****** ****** ****** ******
  10  ****** ****** ****** ****** ****** ****** ****** ****** ****** ******
      ****** ****** ****** ****** ****** ****** ****** ****** ****** ******
      ****** ****** ****** ****** ****** ****** ****** ****** ****** ******
  11  ****** ****** ****** ****** ****** ****** ****** ****** ****** ******
      ****** ****** ****** ****** ****** ****** ****** ****** ****** ******
      ****** ****** ****** ****** ****** ****** ****** ****** ****** ******
  12  ****** ****** ****** ****** ****** ****** ****** ****** ****** ******
      ****** ****** ****** ****** ****** ****** ****** ****** ****** ******
      ****** ****** ****** ****** ****** ****** ****** ****** ****** ******
  13  ****** ****** ****** ****** ****** ****** ****** ****** ****** ******
      ****** ****** ****** ****** ****** ****** ****** ****** ****** ******
      ****** ****** ****** ****** ****** ****** ****** ****** ****** ******
  14  ****** ****** ****** ****** ****** ****** ****** ****** ****** ******
      ****** ****** ****** ****** ****** ****** ****** ****** ****** ******
      ****** ****** ****** ****** ****** ****** ****** ****** ****** ******
  15  ****** ****** ****** ****** ****** ****** ****** ****** ****** ******
      ****** ****** ****** ****** ****** ****** ****** ****** ****** ******
      ****** ****** ****** ****** ****** ****** ****** ****** ****** ******
  16  ****** ****** ****** ****** ****** ****** ****** ****** ****** ******
      ****** ****** ****** ****** ****** ****** ****** ****** ****** ******
      ****** ****** ****** ****** ****** ****** ****** ****** ****** ******
  17  ****** ****** ****** ****** ****** ****** ****** ****** ****** ******
      ****** ****** ****** ****** ****** ****** ****** ****** ****** ******
      ****** ****** ****** ****** ****** ****** ****** ****** ****** ******
  18  ****** ****** ****** ****** ****** ****** ****** ****** ****** ******
      ****** ****** ****** ****** ****** ****** ****** ****** ****** ******
      ****** ****** ****** ****** ****** ****** ****** ****** ****** ******
  19  ****** ****** ****** ****** ****** ****** ****** ****** ****** ******
      ****** ****** ****** ****** ****** ****** ****** ****** ****** ******
      ****** ****** ****** ****** ****** ****** ****** ****** ****** ******
  20  ****** ****** ****** ****** ****** ****** ****** ****** ****** ******
      ****** ****** ****** ****** ****** ****** ****** ****** ****** ******
      ****** ****** ****** ****** ****** ****** ****** ****** ****** ******
  21  ****** ****** ****** ****** ****** ****** ****** ****** ****** ******
      ****** ****** ****** ****** ****** ****** ****** ****** ****** ******
      ****** ****** ****** ****** ****** ****** ****** ****** ****** ******
  22  ****** ****** ****** ****** ****** ****** ****** ****** ****** ******
      ****** ****** ****** ****** ****** ****** ****** ****** ****** ******
      ****** ****** ****** ****** ****** ****** ****** ****** ****** ******
  23  ****** ****** ****** ****** ****** ****** ****** ****** ****** ******
      ****** ****** ****** ****** ****** ****** ****** ****** ****** ******
      ****** ****** ****** ****** ****** ****** ****** ****** ****** ******
  24  ****** ****** ****** ****** ****** ****** ****** ****** ****** ******
      ****** ****** ****** ****** ****** ****** ****** ****** ****** ******
      ****** ****** ****** ****** ****** ****** ****** ****** ****** ******
  25  ****** ****** ****** ****** ****** ****** ****** ****** ****** ******
      ****** ****** ****** ****** ****** ****** ****** ****** ****** ******
      ****** ****** ****** ****** ****** ****** ****** ****** ****** ******

 HEAD WILL BE SAVED ON UNIT   51 AT END OF TIME STEP    1, STRESS PERIOD    1
1
  VOLUMETRIC BUDGET FOR ENTIRE MODEL AT END OF TIME STEP    1, STRESS PERIOD   1
  ------------------------------------------------------------------------------

     CUMULATIVE VOLUMES      L**3       RATES FOR THIS TIME STEP      L**3/T
     ------------------                 ------------------------

           IN:                                      IN:
           ---                                      ---
             STORAGE =    18557506.9590               STORAGE =      201712.0322
       CONSTANT HEAD =     1270654.9636         CONSTANT HEAD =       13811.4670
               WELLS =           0.0000                 WELLS =           0.0000
            RECHARGE =     1269600.0000              RECHARGE =       13800.0000
      STREAM LEAKAGE =      381200.5009        STREAM LEAKAGE =        4143.4837

            TOTAL IN =    21478962.4235              TOTAL IN =      233466.9829

          OUT:                                     OUT:
          ----                                     ----
             STORAGE =           0.0000               STORAGE =           0.0000
       CONSTANT HEAD =           0.0000         CONSTANT HEAD =           0.0000
               WELLS =     2894391.7175                 WELLS =       31460.7795
            RECHARGE =           0.0000              RECHARGE =           0.0000
      STREAM LEAKAGE =    18584570.9908        STREAM LEAKAGE =      202006.2064

           TOTAL OUT =    21478962.7082             TOTAL OUT =      233466.9860

            IN - OUT =          -0.2847              IN - OUT =      -3.0946E-03

 PERCENT DISCREPANCY =          -0.00     PERCENT DISCREPANCY =          -0.00






         TIME SUMMARY AT END OF TIME STEP    1 IN STRESS PERIOD    1
                    SECONDS     MINUTES      HOURS       DAYS        YEARS
                    -----------------------------------------------------------
   TIME STEP LENGTH 7.94880E+06 1.32480E+05  2208.0      92.000     0.25188    
 STRESS PERIOD TIME 7.94880E+06 1.32480E+05  2208.0      92.000     0.25188    
         TOTAL TIME 7.94880E+06 1.32480E+05  2208.0      92.000     0.25188    
1
1
                            STRESS PERIOD NO.    2, LENGTH =   91.00000    
                            -----------------------------------------------

                              NUMBER OF TIME STEPS =     1

                               MULTIPLIER FOR DELT =     1.500

                            INITIAL TIME STEP SIZE =   91.00000    

 WELL NO.  LAYER   ROW   COL   STRESS RATE         
 --------------------------------------------------
      1      1     20     21      -6420.    
      2      1     18     16      -7655.    
      3      1     20     18      -5517.    
      4      1      4      9     -0.1187E+05

      4 WELLS

                 RECHARGE =  2.000000E-03

 REUSING STREAM SEGMENT DATA FROM LAST STRESS PERIOD
 
 SOLVING FOR HEAD 


     7 CALLS TO PCG ROUTINE FOR TIME STEP   1 IN STRESS PERIOD    2
    27 TOTAL ITERATIONS

 OUTPUT CONTROL FOR STRESS PERIOD    2   TIME STEP    1
    SAVE BUDGET
    SAVE HEAD FOR ALL LAYERS
    PRINT HEAD FOR ALL LAYERS
 UBDSV2 SAVING "STREAMFLOW OUT  " ON UNIT  50 AT TIME STEP  1, STRESS PERIOD   2



 STREAM LISTING     PERIOD      2   STEP        1

 LAYER ROW COL. STREAM  RCH.  FLOW INTO     FLOW TO   FLOW OUT OF   OVRLND.     DIRECT     STREAM       STREAM     STREAM     STREAM   STREAMBED  STREAMBED
                SEG.NO.  NO.  STRM. RCH.    AQUIFER    STRM. RCH.    RUNOFF     PRECIP       ET          HEAD       DEPTH      WIDTH   CONDCTNC.   GRADIENT

   1   13    1     1     1    1.0000E+05 -3.7273E+03   1.0373E+05  0.000E+00  0.000E+00  0.000E+00  4.84076E+01  1.463E-01  2.000E+01  2.000E+04 -1.864E-01
   1   13    2     1     2    1.0373E+05 -4.9761E+03   1.0870E+05  0.000E+00  0.000E+00  0.000E+00  4.79341E+01  1.500E-01  2.000E+01  2.000E+04 -2.488E-01
   1   14    3     1     3    1.0870E+05 -1.0965E+03   1.0980E+05  0.000E+00  0.000E+00  0.000E+00  4.74594E+01  1.525E-01  2.000E+01  2.000E+04 -5.482E-02
   1   15    4     1     4    1.0980E+05 -1.1273E+03   1.1093E+05  0.000E+00  0.000E+00  0.000E+00  4.69830E+01  1.535E-01  2.000E+01  2.000E+04 -5.636E-02
   1   16    5     1     5    1.1093E+05 -4.1533E+03   1.1508E+05  0.000E+00  0.000E+00  0.000E+00  4.65079E+01  1.557E-01  2.000E+01  2.000E+04 -2.077E-01
   1   16    6     1     6    1.1508E+05 -2.4236E+03   1.1750E+05  0.000E+00  0.000E+00  0.000E+00  4.60334E+01  1.584E-01  2.000E+01  2.000E+04 -1.212E-01
   1   16    7     1     7    1.1750E+05 -2.3048E+03   1.1981E+05  0.000E+00  0.000E+00  0.000E+00  4.55580E+01  1.603E-01  2.000E+01  2.000E+04 -1.152E-01
   1   16    8     1     8    1.1981E+05 -2.2378E+03   1.2205E+05  0.000E+00  0.000E+00  0.000E+00  4.50826E+01  1.621E-01  2.000E+01  2.000E+04 -1.119E-01
   1   16    9     1     9    1.2205E+05 -2.1608E+03   1.2421E+05  0.000E+00  0.000E+00  0.000E+00  4.46071E+01  1.639E-01  2.000E+01  2.000E+04 -1.080E-01
   1   16   10     1    10    1.2421E+05 -2.0496E+03   1.2626E+05  0.000E+00  0.000E+00  0.000E+00  4.41315E+01  1.656E-01  2.000E+01  2.000E+04 -1.025E-01
   1   16   11     1    11    1.2626E+05 -1.9011E+03   1.2816E+05  0.000E+00  0.000E+00  0.000E+00  4.36558E+01  1.671E-01  2.000E+01  2.000E+04 -9.506E-02
   1   16   12     1    12    1.2816E+05 -2.8718E+03   1.3103E+05  0.000E+00  0.000E+00  0.000E+00  4.31804E+01  1.690E-01  2.000E+01  2.000E+04 -1.436E-01
   1   15   13     1    13    1.3103E+05 -2.8737E+03   1.3390E+05  0.000E+00  0.000E+00  0.000E+00  4.27053E+01  1.712E-01  2.000E+01  2.000E+04 -1.437E-01
   1   14   14     1    14    1.3390E+05 -3.3432E+03   1.3725E+05  0.000E+00  0.000E+00  0.000E+00  4.22305E+01  1.736E-01  2.000E+01  2.000E+04 -1.672E-01
   1   13   15     1    15    1.3725E+05 -3.9140E+03   1.4116E+05  0.000E+00  0.000E+00  0.000E+00  4.17560E+01  1.764E-01  2.000E+01  2.000E+04 -1.957E-01
   1   12   16     1    16    1.4116E+05 -5.1260E+03   1.4629E+05  0.000E+00  0.000E+00  0.000E+00  4.12821E+01  1.798E-01  2.000E+01  2.000E+04 -2.563E-01
   1   12   17     1    17    1.4629E+05 -3.3188E+03   1.4961E+05  0.000E+00  0.000E+00  0.000E+00  4.08080E+01  1.830E-01  2.000E+01  2.000E+04 -1.659E-01
   1   12   18     1    18    1.4961E+05 -3.2105E+03   1.5282E+05  0.000E+00  0.000E+00  0.000E+00  4.03331E+01  1.854E-01  2.000E+01  2.000E+04 -1.605E-01
   1   12   19     1    19    1.5282E+05 -4.3079E+03   1.5712E+05  0.000E+00  0.000E+00  0.000E+00  3.98586E+01  1.881E-01  2.000E+01  2.000E+04 -2.154E-01
   1   13   20     1    20    1.5712E+05 -3.0159E+03   1.6014E+05  0.000E+00  0.000E+00  0.000E+00  3.93840E+01  1.908E-01  2.000E+01  2.000E+04 -1.508E-01
   1   14   21     1    21    1.6014E+05 -2.3893E+03   1.6253E+05  0.000E+00  0.000E+00  0.000E+00  3.89086E+01  1.927E-01  2.000E+01  2.000E+04 -1.195E-01
   1   14   22     1    22    1.6253E+05  4.6061E+03   1.5792E+05  0.000E+00  0.000E+00  0.000E+00  3.84306E+01  1.919E-01  2.000E+01  2.000E+04  2.303E-01
   1    9   30     2     1    5.0000E+04 -2.1486E+03   5.2149E+04  0.000E+00  0.000E+00  0.000E+00  4.02424E+01  1.174E-01  2.000E+01  2.000E+04 -1.074E-01
   1    9   29     2     2    5.2149E+04 -2.4584E+03   5.4607E+04  0.000E+00  0.000E+00  0.000E+00  3.99955E+01  1.205E-01  2.000E+01  2.000E+04 -1.229E-01
   1    9   28     2     3    5.4607E+04 -2.7626E+03   5.7370E+04  0.000E+00  0.000E+00  0.000E+00  3.97490E+01  1.240E-01  2.000E+01  2.000E+04 -1.381E-01
   1    9   27     2     4    5.7370E+04 -4.8591E+03   6.2229E+04  0.000E+00  0.000E+00  0.000E+00  3.95040E+01  1.290E-01  2.000E+01  2.000E+04 -2.430E-01
   1   10   26     2     5    6.2229E+04 -3.7586E+03   6.5987E+04  0.000E+00  0.000E+00  0.000E+00  3.92595E+01  1.345E-01  2.000E+01  2.000E+04 -1.879E-01
   1   11   25     2     6    6.5987E+04 -3.3703E+03   6.9358E+04  0.000E+00  0.000E+00  0.000E+00  3.90139E+01  1.389E-01  2.000E+01  2.000E+04 -1.685E-01
   1   12   24     2     7    6.9358E+04 -3.2363E+03   7.2594E+04  0.000E+00  0.000E+00  0.000E+00  3.87680E+01  1.430E-01  2.000E+01  2.000E+04 -1.618E-01
   1   13   23     2     8    7.2594E+04 -6.1222E+02   7.3206E+04  0.000E+00  0.000E+00  0.000E+00  3.85203E+01  1.453E-01  2.000E+01  2.000E+04 -3.061E-02
   1   14   22     2     9    7.3206E+04  1.3909E+03   7.1815E+04  0.000E+00  0.000E+00  0.000E+00  3.82698E+01  1.448E-01  2.000E+01  2.000E+04  6.955E-02
   1   14   22     3     1    2.2974E+05 -8.8942E+03   2.3863E+05  0.000E+00  0.000E+00  0.000E+00  3.77556E+01  2.000E-01  2.000E+01  2.000E+04 -4.447E-01
   1   15   23     3     2    2.3863E+05 -7.9436E+02   2.3943E+05  0.000E+00  0.000E+00  0.000E+00  3.68691E+01  2.025E-01  2.000E+01  2.000E+04 -3.972E-02
   1   15   24     3     3    2.3943E+05 -6.0260E+02   2.4003E+05  0.000E+00  0.000E+00  0.000E+00  3.59806E+01  2.028E-01  2.000E+01  2.000E+04 -3.013E-02
   1   15   25     3     4    2.4003E+05 -6.3535E+02   2.4066E+05  0.000E+00  0.000E+00  0.000E+00  3.50920E+01  2.031E-01  2.000E+01  2.000E+04 -3.177E-02
   1   15   26     3     5    2.4066E+05 -7.5469E+02   2.4142E+05  0.000E+00  0.000E+00  0.000E+00  3.42035E+01  2.035E-01  2.000E+01  2.000E+04 -3.773E-02
   1   16   27     3     6    2.4142E+05 -8.6388E+02   2.4228E+05  0.000E+00  0.000E+00  0.000E+00  3.33150E+01  2.039E-01  2.000E+01  2.000E+04 -4.319E-02
   1   17   28     3     7    2.4228E+05 -3.0808E+03   2.4536E+05  0.000E+00  0.000E+00  0.000E+00  3.24271E+01  2.049E-01  2.000E+01  2.000E+04 -1.540E-01
   1   18   29     3     8    2.4536E+05 -4.6339E+03   2.5000E+05  0.000E+00  0.000E+00  0.000E+00  3.15402E+01  2.068E-01  2.000E+01  2.000E+04 -2.317E-01
   1   18   30     3     9    2.5000E+05 -4.4393E+03   2.5444E+05  0.000E+00  0.000E+00  0.000E+00  3.06535E+01  2.091E-01  2.000E+01  2.000E+04 -2.220E-01



1
              HEAD IN LAYER   1 AT END OF TIME STEP   1 IN STRESS PERIOD    2
  ---------------------------------------------------------------------------

          1      2      3      4      5      6      7      8      9     10
         11     12     13     14     15     16     17     18     19     20
         21     22     23     24     25     26     27     28     29     30
 .........................................................................
   1  ****** ****** ****** ****** ****** ****** ****** ****** ****** ******
      ****** ****** ****** ****** ****** ****** ****** ****** ****** ******
      ****** ****** ****** ****** ****** ****** ****** ****** ****** ******
   2  ****** ****** ****** ****** ****** ****** ****** ****** ****** ******
      ****** ****** ****** ****** ****** ****** ****** ****** ****** ******
      ****** ****** ****** ****** ****** ****** ****** ****** ****** ******
   3  ****** ****** ****** ****** ****** ****** ****** ****** ****** ******
      ****** ****** ****** ****** ****** ****** ****** ****** ****** ******
      ****** ****** ****** ****** ****** ****** ****** ****** ****** ******
   4  ****** ****** ****** ****** ****** ****** ****** ****** ****** ******
      ****** ****** ****** ****** ****** ****** ****** ****** ****** ******
      ****** ****** ****** ****** ****** ****** ****** ****** ****** ******
   5  ****** ****** ****** ****** ****** ****** ****** ****** ****** ******
      ****** ****** ****** ****** ****** ****** ****** ****** ****** ******
      ****** ****** ****** ****** ****** ****** ****** ****** ****** ******
   6  ****** ****** ****** ****** ****** ****** ****** ****** ****** ******
      ****** ****** ****** ****** ****** ****** ****** ****** ****** ******
      ****** ****** ****** ****** ****** ****** ****** ****** ****** ******
   7  ****** ****** ****** ****** ****** ****** ****** ****** ****** ******
      ****** ****** ****** ****** ****** ****** ****** ****** ****** ******
      ****** ****** ****** ****** ****** ****** ****** ****** ****** ******
   8  ****** ****** ****** ****** ****** ****** ****** ****** ****** ******
      ****** ****** ****** ****** ****** ****** ****** ****** ****** ******
      ****** ****** ****** ****** ****** ****** ****** ****** ****** ******
   9  ****** ****** ****** ****** ****** ****** ****** ****** ****** ******
      ****** ****** ****** ****** ****** ****** ****** ****** ****** ******
      ****** ****** ****** ****** ****** ****** ****** ****** ****** ******
  10  ****** ****** ****** ****** ****** ****** ****** ****** ****** ******
      ****** ****** ****** ****** ****** ****** ****** ****** ****** ******
      ****** ****** ****** ****** ****** ****** ****** ****** ****** ******
  11  ****** ****** ****** ****** ****** ****** ****** ****** ****** ******
      ****** ****** ****** ****** ****** ****** ****** ****** ****** ******
      ****** ****** ****** ****** ****** ****** ****** ****** ****** ******
  12  ****** ****** ****** ****** ****** ****** ****** ****** ****** ******
      ****** ****** ****** ****** ****** ****** ****** ****** ****** ******
      ****** ****** ****** ****** ****** ****** ****** ****** ****** ******
  13  ****** ****** ****** ****** ****** ****** ****** ****** ****** ******
      ****** ****** ****** ****** ****** ****** ****** ****** ****** ******
      ****** ****** ****** ****** ****** ****** ****** ****** ****** ******
  14  ****** ****** ****** ****** ****** ****** ****** ****** ****** ******
      ****** ****** ****** ****** ****** ****** ****** ****** ****** ******
      ****** ****** ****** ****** ****** ****** ****** ****** ****** ******
  15  ****** ****** ****** ****** ****** ****** ****** ****** ****** ******
      ****** ****** ****** ****** ****** ****** ****** ****** ****** ******
      ****** ****** ****** ****** ****** ****** ****** ****** ****** ******
  16  ****** ****** ****** ****** ****** ****** ****** ****** ****** ******
      ****** ****** ****** ****** ****** ****** ****** ****** ****** ******
      ****** ****** ****** ****** ****** ****** ****** ****** ****** ******
  17  ****** ****** ****** ****** ****** ****** ****** ****** ****** ******
      ****** ****** ****** ****** ****** ****** ****** ****** ****** ******
      ****** ****** ****** ****** ****** ****** ****** ****** ****** ******
  18  ****** ****** ****** ****** ****** ****** ****** ****** ****** ******
      ****** ****** ****** ****** ****** ****** ****** ****** ****** ******
      ****** ****** ****** ****** ****** ****** ****** ****** ****** ******
  19  ****** ****** ****** ****** ****** ****** ****** ****** ****** ******
      ****** ****** ****** ****** ****** ****** ****** ****** ****** ******
      ****** ****** ****** ****** ****** ****** ****** ****** ****** ******
  20  ****** ****** ****** ****** ****** ****** ****** ****** ****** ******
      ****** ****** ****** ****** ****** ****** ****** ****** ****** ******
      ****** ****** ****** ****** ****** ****** ****** ****** ****** ******
  21  ****** ****** ****** ****** ****** ****** ****** ****** ****** ******
      ****** ****** ****** ****** ****** ****** ****** ****** ****** ******
      ****** ****** ****** ****** ****** ****** ****** ****** ****** ******
  22  ****** ****** ****** ****** ****** ****** ****** ****** ****** ******
      ****** ****** ****** ****** ****** ****** ****** ****** ****** ******
      ****** ****** ****** ****** ****** ****** ****** ****** ****** ******
  23  ****** ****** ****** ****** ****** ****** ****** ****** ****** ******
      ****** ****** ****** ****** ****** ****** ****** ****** ****** ******
      ****** ****** ****** ****** ****** ****** ****** ****** ****** ******
  24  ****** ****** ****** ****** ****** ****** ****** ****** ****** ******
      ****** ****** ****** ****** ****** ****** ****** ****** ****** ******
      ****** ****** ****** ****** ****** ****** ****** ****** ****** ******
  25  ****** ****** ****** ****** ****** ****** ****** ****** ****** ******
      ****** ****** ****** ****** ****** ****** ****** ****** ****** ******
      ****** ****** ****** ****** ****** ****** ****** ****** ****** ******

 HEAD WILL BE SAVED ON UNIT   51 AT END OF TIME STEP    1, STRESS PERIOD    2
1
  VOLUMETRIC BUDGET FOR ENTIRE MODEL AT END OF TIME STEP    1, STRESS PERIOD   2
  ------------------------------------------------------------------------------

     CUMULATIVE VOLUMES      L**3       RATES FOR THIS TIME STEP      L**3/T
     ------------------                 ------------------------

           IN:                                      IN:
           ---                                      ---
             STORAGE =    24132380.0027               STORAGE =       61262.3411
       CONSTANT HEAD =     3039288.7920         CONSTANT HEAD =       19435.5366
               WELLS =           0.0000                 WELLS =           0.0000
            RECHARGE =     6292800.0000              RECHARGE =       55200.0000
      STREAM LEAKAGE =      926929.6272        STREAM LEAKAGE =        5997.0234

            TOTAL IN =    34391398.4220              TOTAL IN =      141894.9011

          OUT:                                     OUT:
          ----                                     ----
             STORAGE =           0.0000               STORAGE =           0.0000
       CONSTANT HEAD =           0.0000         CONSTANT HEAD =           0.0000
               WELLS =     5757322.6554                 WELLS =       31460.7795
            RECHARGE =           0.0000              RECHARGE =           0.0000
      STREAM LEAKAGE =    28634077.0117        STREAM LEAKAGE =      110434.1321

           TOTAL OUT =    34391399.6671             TOTAL OUT =      141894.9116

            IN - OUT =          -1.2451              IN - OUT =      -1.0554E-02

 PERCENT DISCREPANCY =          -0.00     PERCENT DISCREPANCY =          -0.00






         TIME SUMMARY AT END OF TIME STEP    1 IN STRESS PERIOD    2
                    SECONDS     MINUTES      HOURS       DAYS        YEARS
                    -----------------------------------------------------------
   TIME STEP LENGTH 7.86240E+06 1.31040E+05  2184.0      91.000     0.24914    
 STRESS PERIOD TIME 7.86240E+06 1.31040E+05  2184.0      91.000     0.24914    
         TOTAL TIME 1.58112E+07 2.63520E+05  4392.0      183.00     0.50103    
1
1
                            STRESS PERIOD NO.    3, LENGTH =   91.00000    
                            -----------------------------------------------

                              NUMBER OF TIME STEPS =     1

                               MULTIPLIER FOR DELT =     1.500

                            INITIAL TIME STEP SIZE =   91.00000    

 WELL NO.  LAYER   ROW   COL   STRESS RATE         
 --------------------------------------------------
      1      1     20     21      -6420.    
      2      1     18     16      -7655.    
      3      1     20     18      -5517.    
      4      1      4      9     -0.1187E+05

      4 WELLS

                 RECHARGE =   0.00000    

 REUSING STREAM SEGMENT DATA FROM LAST STRESS PERIOD
 
 SOLVING FOR HEAD 


     7 CALLS TO PCG ROUTINE FOR TIME STEP   1 IN STRESS PERIOD    3
    27 TOTAL ITERATIONS

 OUTPUT CONTROL FOR STRESS PERIOD    3   TIME STEP    1
    SAVE BUDGET
    SAVE HEAD FOR ALL LAYERS
    PRINT HEAD FOR ALL LAYERS
 UBDSV2 SAVING "STREAMFLOW OUT  " ON UNIT  50 AT TIME STEP  1, STRESS PERIOD   3



 STREAM LISTING     PERIOD      3   STEP        1

 LAYER ROW COL. STREAM  RCH.  FLOW INTO     FLOW TO   FLOW OUT OF   OVRLND.     DIRECT     STREAM       STREAM     STREAM     STREAM   STREAMBED  STREAMBED
                SEG.NO.  NO.  STRM. RCH.    AQUIFER    STRM. RCH.    RUNOFF     PRECIP       ET          HEAD       DEPTH      WIDTH   CONDCTNC.   GRADIENT

   1   13    1     1     1    1.0000E+05 -2.3369E+03   1.0234E+05  0.000E+00  0.000E+00  0.000E+00  4.84070E+01  1.457E-01  2.000E+01  2.000E+04 -1.168E-01
   1   13    2     1     2    1.0234E+05 -3.4206E+03   1.0576E+05  0.000E+00  0.000E+00  0.000E+00  4.79322E+01  1.481E-01  2.000E+01  2.000E+04 -1.710E-01
   1   14    3     1     3    1.0576E+05 -6.2160E+02   1.0638E+05  0.000E+00  0.000E+00  0.000E+00  4.74567E+01  1.499E-01  2.000E+01  2.000E+04 -3.108E-02
   1   15    4     1     4    1.0638E+05 -6.1079E+02   1.0699E+05  0.000E+00  0.000E+00  0.000E+00  4.69799E+01  1.504E-01  2.000E+01  2.000E+04 -3.054E-02
   1   16    5     1     5    1.0699E+05 -2.3128E+03   1.0930E+05  0.000E+00  0.000E+00  0.000E+00  4.65039E+01  1.516E-01  2.000E+01  2.000E+04 -1.156E-01
   1   16    6     1     6    1.0930E+05 -1.3866E+03   1.1069E+05  0.000E+00  0.000E+00  0.000E+00  4.60282E+01  1.532E-01  2.000E+01  2.000E+04 -6.933E-02
   1   16    7     1     7    1.1069E+05 -1.3207E+03   1.1201E+05  0.000E+00  0.000E+00  0.000E+00  4.55520E+01  1.543E-01  2.000E+01  2.000E+04 -6.604E-02
   1   16    8     1     8    1.1201E+05 -1.2643E+03   1.1327E+05  0.000E+00  0.000E+00  0.000E+00  4.50758E+01  1.554E-01  2.000E+01  2.000E+04 -6.321E-02
   1   16    9     1     9    1.1327E+05 -1.1819E+03   1.1446E+05  0.000E+00  0.000E+00  0.000E+00  4.45996E+01  1.564E-01  2.000E+01  2.000E+04 -5.909E-02
   1   16   10     1    10    1.1446E+05 -1.0581E+03   1.1551E+05  0.000E+00  0.000E+00  0.000E+00  4.41232E+01  1.573E-01  2.000E+01  2.000E+04 -5.291E-02
   1   16   11     1    11    1.1551E+05 -8.8362E+02   1.1640E+05  0.000E+00  0.000E+00  0.000E+00  4.36467E+01  1.581E-01  2.000E+01  2.000E+04 -4.418E-02
   1   16   12     1    12    1.1640E+05 -1.0559E+03   1.1745E+05  0.000E+00  0.000E+00  0.000E+00  4.31702E+01  1.589E-01  2.000E+01  2.000E+04 -5.280E-02
   1   15   13     1    13    1.1745E+05 -1.0291E+03   1.1848E+05  0.000E+00  0.000E+00  0.000E+00  4.26938E+01  1.597E-01  2.000E+01  2.000E+04 -5.145E-02
   1   14   14     1    14    1.1848E+05 -1.4514E+03   1.1993E+05  0.000E+00  0.000E+00  0.000E+00  4.22176E+01  1.607E-01  2.000E+01  2.000E+04 -7.257E-02
   1   13   15     1    15    1.1993E+05 -2.0289E+03   1.2196E+05  0.000E+00  0.000E+00  0.000E+00  4.17417E+01  1.621E-01  2.000E+01  2.000E+04 -1.014E-01
   1   12   16     1    16    1.2196E+05 -3.2077E+03   1.2517E+05  0.000E+00  0.000E+00  0.000E+00  4.12665E+01  1.642E-01  2.000E+01  2.000E+04 -1.604E-01
   1   12   17     1    17    1.2517E+05 -1.9392E+03   1.2711E+05  0.000E+00  0.000E+00  0.000E+00  4.07913E+01  1.663E-01  2.000E+01  2.000E+04 -9.696E-02
   1   12   18     1    18    1.2711E+05 -1.8631E+03   1.2897E+05  0.000E+00  0.000E+00  0.000E+00  4.03155E+01  1.678E-01  2.000E+01  2.000E+04 -9.315E-02
   1   12   19     1    19    1.2897E+05 -2.6559E+03   1.3163E+05  0.000E+00  0.000E+00  0.000E+00  3.98400E+01  1.695E-01  2.000E+01  2.000E+04 -1.328E-01
   1   13   20     1    20    1.3163E+05 -1.4445E+03   1.3307E+05  0.000E+00  0.000E+00  0.000E+00  3.93643E+01  1.711E-01  2.000E+01  2.000E+04 -7.222E-02
   1   14   21     1    21    1.3307E+05 -7.0107E+02   1.3377E+05  0.000E+00  0.000E+00  0.000E+00  3.88879E+01  1.720E-01  2.000E+01  2.000E+04 -3.505E-02
   1   14   22     1    22    1.3377E+05  4.9883E+03   1.2879E+05  0.000E+00  0.000E+00  0.000E+00  3.84089E+01  1.703E-01  2.000E+01  2.000E+04  2.494E-01
   1    9   30     2     1    5.0000E+04 -9.5539E+02   5.0955E+04  0.000E+00  0.000E+00  0.000E+00  4.02415E+01  1.165E-01  2.000E+01  2.000E+04 -4.777E-02
   1    9   29     2     2    5.0955E+04 -1.2668E+03   5.2222E+04  0.000E+00  0.000E+00  0.000E+00  3.99931E+01  1.181E-01  2.000E+01  2.000E+04 -6.334E-02
   1    9   28     2     3    5.2222E+04 -1.5578E+03   5.3780E+04  0.000E+00  0.000E+00  0.000E+00  3.97450E+01  1.200E-01  2.000E+01  2.000E+04 -7.789E-02
   1    9   27     2     4    5.3780E+04 -3.1240E+03   5.6904E+04  0.000E+00  0.000E+00  0.000E+00  3.94981E+01  1.231E-01  2.000E+01  2.000E+04 -1.562E-01
   1   10   26     2     5    5.6904E+04 -2.1359E+03   5.9040E+04  0.000E+00  0.000E+00  0.000E+00  3.92516E+01  1.266E-01  2.000E+01  2.000E+04 -1.068E-01
   1   11   25     2     6    5.9040E+04 -1.8563E+03   6.0896E+04  0.000E+00  0.000E+00  0.000E+00  3.90042E+01  1.292E-01  2.000E+01  2.000E+04 -9.282E-02
   1   12   24     2     7    6.0896E+04 -1.8798E+03   6.2776E+04  0.000E+00  0.000E+00  0.000E+00  3.87566E+01  1.316E-01  2.000E+01  2.000E+04 -9.399E-02
   1   13   23     2     8    6.2776E+04 -2.7550E+02   6.3052E+04  0.000E+00  0.000E+00  0.000E+00  3.85080E+01  1.330E-01  2.000E+01  2.000E+04 -1.378E-02
   1   14   22     2     9    6.3052E+04  1.9479E+03   6.1104E+04  0.000E+00  0.000E+00  0.000E+00  3.82569E+01  1.319E-01  2.000E+01  2.000E+04  9.740E-02
   1   14   22     3     1    1.8989E+05 -8.5051E+03   1.9839E+05  0.000E+00  0.000E+00  0.000E+00  3.77343E+01  1.787E-01  2.000E+01  2.000E+04 -4.253E-01
   1   15   23     3     2    1.9839E+05 -3.5344E+02   1.9875E+05  0.000E+00  0.000E+00  0.000E+00  3.68478E+01  1.812E-01  2.000E+01  2.000E+04 -1.767E-02
   1   15   24     3     3    1.9875E+05 -2.6062E+02   1.9901E+05  0.000E+00  0.000E+00  0.000E+00  3.59591E+01  1.813E-01  2.000E+01  2.000E+04 -1.303E-02
   1   15   25     3     4    1.9901E+05 -2.8227E+02   1.9929E+05  0.000E+00  0.000E+00  0.000E+00  3.50704E+01  1.815E-01  2.000E+01  2.000E+04 -1.411E-02
   1   15   26     3     5    1.9929E+05 -3.4288E+02   1.9963E+05  0.000E+00  0.000E+00  0.000E+00  3.41816E+01  1.816E-01  2.000E+01  2.000E+04 -1.714E-02
   1   16   27     3     6    1.9963E+05 -3.8313E+02   2.0002E+05  0.000E+00  0.000E+00  0.000E+00  3.32930E+01  1.818E-01  2.000E+01  2.000E+04 -1.916E-02
   1   17   28     3     7    2.0002E+05 -1.6052E+03   2.0162E+05  0.000E+00  0.000E+00  0.000E+00  3.24046E+01  1.824E-01  2.000E+01  2.000E+04 -8.026E-02
   1   18   29     3     8    2.0162E+05 -2.9717E+03   2.0459E+05  0.000E+00  0.000E+00  0.000E+00  3.15170E+01  1.836E-01  2.000E+01  2.000E+04 -1.486E-01
   1   18   30     3     9    2.0459E+05 -3.2162E+03   2.0781E+05  0.000E+00  0.000E+00  0.000E+00  3.06297E+01  1.853E-01  2.000E+01  2.000E+04 -1.608E-01



1
              HEAD IN LAYER   1 AT END OF TIME STEP   1 IN STRESS PERIOD    3
  ---------------------------------------------------------------------------

          1      2      3      4      5      6      7      8      9     10
         11     12     13     14     15     16     17     18     19     20
         21     22     23     24     25     26     27     28     29     30
 .........................................................................
   1  ****** ****** ****** ****** ****** ****** ****** ****** ****** ******
      ****** ****** ****** ****** ****** ****** ****** ****** ****** ******
      ****** ****** ****** ****** ****** ****** ****** ****** ****** ******
   2  ****** ****** ****** ****** ****** ****** ****** ****** ****** ******
      ****** ****** ****** ****** ****** ****** ****** ****** ****** ******
      ****** ****** ****** ****** ****** ****** ****** ****** ****** ******
   3  ****** ****** ****** ****** ****** ****** ****** ****** ****** ******
      ****** ****** ****** ****** ****** ****** ****** ****** ****** ******
      ****** ****** ****** ****** ****** ****** ****** ****** ****** ******
   4  ****** ****** ****** ****** ****** ****** ****** ****** ****** ******
      ****** ****** ****** ****** ****** ****** ****** ****** ****** ******
      ****** ****** ****** ****** ****** ****** ****** ****** ****** ******
   5  ****** ****** ****** ****** ****** ****** ****** ****** ****** ******
      ****** ****** ****** ****** ****** ****** ****** ****** ****** ******
      ****** ****** ****** ****** ****** ****** ****** ****** ****** ******
   6  ****** ****** ****** ****** ****** ****** ****** ****** ****** ******
      ****** ****** ****** ****** ****** ****** ****** ****** ****** ******
      ****** ****** ****** ****** ****** ****** ****** ****** ****** ******
   7  ****** ****** ****** ****** ****** ****** ****** ****** ****** ******
      ****** ****** ****** ****** ****** ****** ****** ****** ****** ******
      ****** ****** ****** ****** ****** ****** ****** ****** ****** ******
   8  ****** ****** ****** ****** ****** ****** ****** ****** ****** ******
      ****** ****** ****** ****** ****** ****** ****** ****** ****** ******
      ****** ****** ****** ****** ****** ****** ****** ****** ****** ******
   9  ****** ****** ****** ****** ****** ****** ****** ****** ****** ******
      ****** ****** ****** ****** ****** ****** ****** ****** ****** ******
      ****** ****** ****** ****** ****** ****** ****** ****** ****** ******
  10  ****** ****** ****** ****** ****** ****** ****** ****** ****** ******
      ****** ****** ****** ****** ****** ****** ****** ****** ****** ******
      ****** ****** ****** ****** ****** ****** ****** ****** ****** ******
  11  ****** ****** ****** ****** ****** ****** ****** ****** ****** ******
      ****** ****** ****** ****** ****** ****** ****** ****** ****** ******
      ****** ****** ****** ****** ****** ****** ****** ****** ****** ******
  12  ****** ****** ****** ****** ****** ****** ****** ****** ****** ******
      ****** ****** ****** ****** ****** ****** ****** ****** ****** ******
      ****** ****** ****** ****** ****** ****** ****** ****** ****** ******
  13  ****** ****** ****** ****** ****** ****** ****** ****** ****** ******
      ****** ****** ****** ****** ****** ****** ****** ****** ****** ******
      ****** ****** ****** ****** ****** ****** ****** ****** ****** ******
  14  ****** ****** ****** ****** ****** ****** ****** ****** ****** ******
      ****** ****** ****** ****** ****** ****** ****** ****** ****** ******
      ****** ****** ****** ****** ****** ****** ****** ****** ****** ******
  15  ****** ****** ****** ****** ****** ****** ****** ****** ****** ******
      ****** ****** ****** ****** ****** ****** ****** ****** ****** ******
      ****** ****** ****** ****** ****** ****** ****** ****** ****** ******
  16  ****** ****** ****** ****** ****** ****** ****** ****** ****** ******
      ****** ****** ****** ****** ****** ****** ****** ****** ****** ******
      ****** ****** ****** ****** ****** ****** ****** ****** ****** ******
  17  ****** ****** ****** ****** ****** ****** ****** ****** ****** ******
      ****** ****** ****** ****** ****** ****** ****** ****** ****** ******
      ****** ****** ****** ****** ****** ****** ****** ****** ****** ******
  18  ****** ****** ****** ****** ****** ****** ****** ****** ****** ******
      ****** ****** ****** ****** ****** ****** ****** ****** ****** ******
      ****** ****** ****** ****** ****** ****** ****** ****** ****** ******
  19  ****** ****** ****** ****** ****** ****** ****** ****** ****** ******
      ****** ****** ****** ****** ****** ****** ****** ****** ****** ******
      ****** ****** ****** ****** ****** ****** ****** ****** ****** ******
  20  ****** ****** ****** ****** ****** ****** ****** ****** ****** ******
      ****** ****** ****** ****** ****** ****** ****** ****** ****** ******
      ****** ****** ****** ****** ****** ****** ****** ****** ****** ******
  21  ****** ****** ****** ****** ****** ****** ****** ****** ****** ******
      ****** ****** ****** ****** ****** ****** ****** ****** ****** ******
      ****** ****** ****** ****** ****** ****** ****** ****** ****** ******
  22  ****** ****** ****** ****** ****** ****** ****** ****** ****** ******
      ****** ****** ****** ****** ****** ****** ****** ****** ****** ******
      ****** ****** ****** ****** ****** ****** ****** ****** ****** ******
  23  ****** ****** ****** ****** ****** ****** ****** ****** ****** ******
      ****** ****** ****** ****** ****** ****** ****** ****** ****** ******
      ****** ****** ****** ****** ****** ****** ****** ****** ****** ******
  24  ****** ****** ****** ****** ****** ****** ****** ****** ****** ******
      ****** ****** ****** ****** ****** ****** ****** ****** ****** ******
      ****** ****** ****** ****** ****** ****** ****** ****** ****** ******
  25  ****** ****** ****** ****** ****** ****** ****** ****** ****** ******
      ****** ****** ****** ****** ****** ****** ****** ****** ****** ******
      ****** ****** ****** ****** ****** ****** ****** ****** ****** ******

 HEAD WILL BE SAVED ON UNIT   51 AT END OF TIME STEP    1, STRESS PERIOD    3
1
  VOLUMETRIC BUDGET FOR ENTIRE MODEL AT END OF TIME STEP    1, STRESS PERIOD   3
  ------------------------------------------------------------------------------

     CUMULATIVE VOLUMES      L**3       RATES FOR THIS TIME STEP      L**3/T
     ------------------                 ------------------------

           IN:                                      IN:
           ---                                      ---
             STORAGE =    29637185.3964               STORAGE =       60492.3670
       CONSTANT HEAD =     5658146.6007         CONSTANT HEAD =       28778.6572
               WELLS =           0.0000                 WELLS =           0.0000
            RECHARGE =     6292800.0000              RECHARGE =           0.0000
      STREAM LEAKAGE =     1558129.3160        STREAM LEAKAGE =        6936.2603

            TOTAL IN =    43146261.3132              TOTAL IN =       96207.2845

          OUT:                                     OUT:
          ----                                     ----
             STORAGE =           0.0000               STORAGE =           0.0000
       CONSTANT HEAD =           0.0000         CONSTANT HEAD =           0.0000
               WELLS =     8620253.5933                 WELLS =       31460.7795
            RECHARGE =           0.0000              RECHARGE =           0.0000
      STREAM LEAKAGE =    34526009.6568        STREAM LEAKAGE =       64746.5126

           TOTAL OUT =    43146263.2501             TOTAL OUT =       96207.2921

            IN - OUT =          -1.9369              IN - OUT =      -7.6021E-03

 PERCENT DISCREPANCY =          -0.00     PERCENT DISCREPANCY =          -0.00






         TIME SUMMARY AT END OF TIME STEP    1 IN STRESS PERIOD    3
                    SECONDS     MINUTES      HOURS       DAYS        YEARS
                    -----------------------------------------------------------
   TIME STEP LENGTH 7.86240E+06 1.31040E+05  2184.0      91.000     0.24914    
 STRESS PERIOD TIME 7.86240E+06 1.31040E+05  2184.0      91.000     0.24914    
         TOTAL TIME 2.36736E+07 3.94560E+05  6576.0      274.00     0.75017    
1
1
                            STRESS PERIOD NO.    4, LENGTH =   91.00000    
                            -----------------------------------------------

                              NUMBER OF TIME STEPS =     1

                               MULTIPLIER FOR DELT =     1.500

                            INITIAL TIME STEP SIZE =   91.00000    

 WELL NO.  LAYER   ROW   COL   STRESS RATE         
 --------------------------------------------------
      1      1     20     21      -6420.    
      2      1     18     16      -7655.    
      3      1     20     18      -5517.    
      4      1      4      9     -0.1187E+05

      4 WELLS

                 RECHARGE =  1.000000E-03

 REUSING STREAM SEGMENT DATA FROM LAST STRESS PERIOD
 
 SOLVING FOR HEAD 


     6 CALLS TO PCG ROUTINE FOR TIME STEP   1 IN STRESS PERIOD    4
    23 TOTAL ITERATIONS

 OUTPUT CONTROL FOR STRESS PERIOD    4   TIME STEP    1
    SAVE BUDGET
    SAVE HEAD FOR ALL LAYERS
    PRINT HEAD FOR ALL LAYERS
 UBDSV2 SAVING "STREAMFLOW OUT  " ON UNIT  50 AT TIME STEP  1, STRESS PERIOD   4



 STREAM LISTING     PERIOD      4   STEP        1

 LAYER ROW COL. STREAM  RCH.  FLOW INTO     FLOW TO   FLOW OUT OF   OVRLND.     DIRECT     STREAM       STREAM     STREAM     STREAM   STREAMBED  STREAMBED
                SEG.NO.  NO.  STRM. RCH.    AQUIFER    STRM. RCH.    RUNOFF     PRECIP       ET          HEAD       DEPTH      WIDTH   CONDCTNC.   GRADIENT

   1   13    1     1     1    1.0000E+05 -1.9935E+03   1.0199E+05  0.000E+00  0.000E+00  0.000E+00  4.84069E+01  1.455E-01  2.000E+01  2.000E+04 -9.967E-02
   1   13    2     1     2    1.0199E+05 -3.0276E+03   1.0502E+05  0.000E+00  0.000E+00  0.000E+00  4.79318E+01  1.477E-01  2.000E+01  2.000E+04 -1.514E-01
   1   14    3     1     3    1.0502E+05 -5.8029E+02   1.0560E+05  0.000E+00  0.000E+00  0.000E+00  4.74560E+01  1.492E-01  2.000E+01  2.000E+04 -2.901E-02
   1   15    4     1     4    1.0560E+05 -5.6213E+02   1.0616E+05  0.000E+00  0.000E+00  0.000E+00  4.69792E+01  1.497E-01  2.000E+01  2.000E+04 -2.811E-02
   1   16    5     1     5    1.0616E+05 -1.9795E+03   1.0814E+05  0.000E+00  0.000E+00  0.000E+00  4.65030E+01  1.508E-01  2.000E+01  2.000E+04 -9.898E-02
   1   16    6     1     6    1.0814E+05 -1.2153E+03   1.0936E+05  0.000E+00  0.000E+00  0.000E+00  4.60271E+01  1.521E-01  2.000E+01  2.000E+04 -6.076E-02
   1   16    7     1     7    1.0936E+05 -1.1583E+03   1.1052E+05  0.000E+00  0.000E+00  0.000E+00  4.55508E+01  1.531E-01  2.000E+01  2.000E+04 -5.792E-02
   1   16    8     1     8    1.1052E+05 -1.1030E+03   1.1162E+05  0.000E+00  0.000E+00  0.000E+00  4.50745E+01  1.541E-01  2.000E+01  2.000E+04 -5.515E-02
   1   16    9     1     9    1.1162E+05 -1.0197E+03   1.1264E+05  0.000E+00  0.000E+00  0.000E+00  4.45981E+01  1.549E-01  2.000E+01  2.000E+04 -5.098E-02
   1   16   10     1    10    1.1264E+05 -8.9457E+02   1.1353E+05  0.000E+00  0.000E+00  0.000E+00  4.41216E+01  1.557E-01  2.000E+01  2.000E+04 -4.473E-02
   1   16   11     1    11    1.1353E+05 -7.1243E+02   1.1425E+05  0.000E+00  0.000E+00  0.000E+00  4.36450E+01  1.564E-01  2.000E+01  2.000E+04 -3.562E-02
   1   16   12     1    12    1.1425E+05 -6.9212E+02   1.1494E+05  0.000E+00  0.000E+00  0.000E+00  4.31683E+01  1.570E-01  2.000E+01  2.000E+04 -3.461E-02
   1   15   13     1    13    1.1494E+05 -6.8444E+02   1.1562E+05  0.000E+00  0.000E+00  0.000E+00  4.26916E+01  1.575E-01  2.000E+01  2.000E+04 -3.422E-02
   1   14   14     1    14    1.1562E+05 -1.0802E+03   1.1670E+05  0.000E+00  0.000E+00  0.000E+00  4.22151E+01  1.583E-01  2.000E+01  2.000E+04 -5.401E-02
   1   13   15     1    15    1.1670E+05 -1.6336E+03   1.1834E+05  0.000E+00  0.000E+00  0.000E+00  4.17389E+01  1.594E-01  2.000E+01  2.000E+04 -8.168E-02
   1   12   16     1    16    1.1834E+05 -2.7217E+03   1.2106E+05  0.000E+00  0.000E+00  0.000E+00  4.12634E+01  1.611E-01  2.000E+01  2.000E+04 -1.361E-01
   1   12   17     1    17    1.2106E+05 -1.6471E+03   1.2271E+05  0.000E+00  0.000E+00  0.000E+00  4.07879E+01  1.629E-01  2.000E+01  2.000E+04 -8.236E-02
   1   12   18     1    18    1.2271E+05 -1.5962E+03   1.2430E+05  0.000E+00  0.000E+00  0.000E+00  4.03119E+01  1.642E-01  2.000E+01  2.000E+04 -7.981E-02
   1   12   19     1    19    1.2430E+05 -2.3431E+03   1.2664E+05  0.000E+00  0.000E+00  0.000E+00  3.98362E+01  1.658E-01  2.000E+01  2.000E+04 -1.172E-01
   1   13   20     1    20    1.2664E+05 -1.2131E+03   1.2786E+05  0.000E+00  0.000E+00  0.000E+00  3.93603E+01  1.672E-01  2.000E+01  2.000E+04 -6.066E-02
   1   14   21     1    21    1.2786E+05 -3.6952E+02   1.2823E+05  0.000E+00  0.000E+00  0.000E+00  3.88837E+01  1.678E-01  2.000E+01  2.000E+04 -1.848E-02
   1   14   22     1    22    1.2823E+05  5.0366E+03   1.2319E+05  0.000E+00  0.000E+00  0.000E+00  3.84046E+01  1.659E-01  2.000E+01  2.000E+04  2.518E-01
   1    9   30     2     1    5.0000E+04 -8.6947E+02   5.0869E+04  0.000E+00  0.000E+00  0.000E+00  4.02415E+01  1.165E-01  2.000E+01  2.000E+04 -4.347E-02
   1    9   29     2     2    5.0869E+04 -1.1736E+03   5.2043E+04  0.000E+00  0.000E+00  0.000E+00  3.99929E+01  1.179E-01  2.000E+01  2.000E+04 -5.868E-02
   1    9   28     2     3    5.2043E+04 -1.4435E+03   5.3487E+04  0.000E+00  0.000E+00  0.000E+00  3.97447E+01  1.197E-01  2.000E+01  2.000E+04 -7.218E-02
   1    9   27     2     4    5.3487E+04 -2.8558E+03   5.6342E+04  0.000E+00  0.000E+00  0.000E+00  3.94976E+01  1.226E-01  2.000E+01  2.000E+04 -1.428E-01
   1   10   26     2     5    5.6342E+04 -1.9764E+03   5.8319E+04  0.000E+00  0.000E+00  0.000E+00  3.92508E+01  1.258E-01  2.000E+01  2.000E+04 -9.882E-02
   1   11   25     2     6    5.8319E+04 -1.7351E+03   6.0054E+04  0.000E+00  0.000E+00  0.000E+00  3.90032E+01  1.282E-01  2.000E+01  2.000E+04 -8.675E-02
   1   12   24     2     7    6.0054E+04 -1.7736E+03   6.1827E+04  0.000E+00  0.000E+00  0.000E+00  3.87555E+01  1.305E-01  2.000E+01  2.000E+04 -8.868E-02
   1   13   23     2     8    6.1827E+04 -2.9945E+02   6.2127E+04  0.000E+00  0.000E+00  0.000E+00  3.85068E+01  1.318E-01  2.000E+01  2.000E+04 -1.497E-02
   1   14   22     2     9    6.2127E+04  2.0585E+03   6.0068E+04  0.000E+00  0.000E+00  0.000E+00  3.82557E+01  1.307E-01  2.000E+01  2.000E+04  1.029E-01
   1   14   22     3     1    1.8326E+05 -8.4435E+03   1.9170E+05  0.000E+00  0.000E+00  0.000E+00  3.77306E+01  1.750E-01  2.000E+01  2.000E+04 -4.222E-01
   1   15   23     3     2    1.9170E+05 -3.0564E+02   1.9201E+05  0.000E+00  0.000E+00  0.000E+00  3.68441E+01  1.775E-01  2.000E+01  2.000E+04 -1.528E-02
   1   15   24     3     3    1.9201E+05 -2.4858E+02   1.9226E+05  0.000E+00  0.000E+00  0.000E+00  3.59554E+01  1.776E-01  2.000E+01  2.000E+04 -1.243E-02
   1   15   25     3     4    1.9226E+05 -2.7255E+02   1.9253E+05  0.000E+00  0.000E+00  0.000E+00  3.50666E+01  1.778E-01  2.000E+01  2.000E+04 -1.363E-02
   1   15   26     3     5    1.9253E+05 -3.4658E+02   1.9288E+05  0.000E+00  0.000E+00  0.000E+00  3.41779E+01  1.779E-01  2.000E+01  2.000E+04 -1.733E-02
   1   16   27     3     6    1.9288E+05 -3.7336E+02   1.9325E+05  0.000E+00  0.000E+00  0.000E+00  3.32892E+01  1.781E-01  2.000E+01  2.000E+04 -1.867E-02
   1   17   28     3     7    1.9325E+05 -1.5028E+03   1.9475E+05  0.000E+00  0.000E+00  0.000E+00  3.24009E+01  1.786E-01  2.000E+01  2.000E+04 -7.514E-02
   1   18   29     3     8    1.9475E+05 -2.6680E+03   1.9742E+05  0.000E+00  0.000E+00  0.000E+00  3.15131E+01  1.798E-01  2.000E+01  2.000E+04 -1.334E-01
   1   18   30     3     9    1.9742E+05 -3.0565E+03   2.0048E+05  0.000E+00  0.000E+00  0.000E+00  3.06258E+01  1.814E-01  2.000E+01  2.000E+04 -1.528E-01



1
              HEAD IN LAYER   1 AT END OF TIME STEP   1 IN STRESS PERIOD    4
  ---------------------------------------------------------------------------

          1      2      3      4      5      6      7      8      9     10
         11     12     13     14     15     16     17     18     19     20
         21     22     23     24     25     26     27     28     29     30
 .........................................................................
   1  ****** ****** ****** ****** ****** ****** ****** ****** ****** ******
      ****** ****** ****** ****** ****** ****** ****** ****** ****** ******
      ****** ****** ****** ****** ****** ****** ****** ****** ****** ******
   2  ****** ****** ****** ****** ****** ****** ****** ****** ****** ******
      ****** ****** ****** ****** ****** ****** ****** ****** ****** ******
      ****** ****** ****** ****** ****** ****** ****** ****** ****** ******
   3  ****** ****** ****** ****** ****** ****** ****** ****** ****** ******
      ****** ****** ****** ****** ****** ****** ****** ****** ****** ******
      ****** ****** ****** ****** ****** ****** ****** ****** ****** ******
   4  ****** ****** ****** ****** ****** ****** ****** ****** ****** ******
      ****** ****** ****** ****** ****** ****** ****** ****** ****** ******
      ****** ****** ****** ****** ****** ****** ****** ****** ****** ******
   5  ****** ****** ****** ****** ****** ****** ****** ****** ****** ******
      ****** ****** ****** ****** ****** ****** ****** ****** ****** ******
      ****** ****** ****** ****** ****** ****** ****** ****** ****** ******
   6  ****** ****** ****** ****** ****** ****** ****** ****** ****** ******
      ****** ****** ****** ****** ****** ****** ****** ****** ****** ******
      ****** ****** ****** ****** ****** ****** ****** ****** ****** ******
   7  ****** ****** ****** ****** ****** ****** ****** ****** ****** ******
      ****** ****** ****** ****** ****** ****** ****** ****** ****** ******
      ****** ****** ****** ****** ****** ****** ****** ****** ****** ******
   8  ****** ****** ****** ****** ****** ****** ****** ****** ****** ******
      ****** ****** ****** ****** ****** ****** ****** ****** ****** ******
      ****** ****** ****** ****** ****** ****** ****** ****** ****** ******
   9  ****** ****** ****** ****** ****** ****** ****** ****** ****** ******
      ****** ****** ****** ****** ****** ****** ****** ****** ****** ******
      ****** ****** ****** ****** ****** ****** ****** ****** ****** ******
  10  ****** ****** ****** ****** ****** ****** ****** ****** ****** ******
      ****** ****** ****** ****** ****** ****** ****** ****** ****** ******
      ****** ****** ****** ****** ****** ****** ****** ****** ****** ******
  11  ****** ****** ****** ****** ****** ****** ****** ****** ****** ******
      ****** ****** ****** ****** ****** ****** ****** ****** ****** ******
      ****** ****** ****** ****** ****** ****** ****** ****** ****** ******
  12  ****** ****** ****** ****** ****** ****** ****** ****** ****** ******
      ****** ****** ****** ****** ****** ****** ****** ****** ****** ******
      ****** ****** ****** ****** ****** ****** ****** ****** ****** ******
  13  ****** ****** ****** ****** ****** ****** ****** ****** ****** ******
      ****** ****** ****** ****** ****** ****** ****** ****** ****** ******
      ****** ****** ****** ****** ****** ****** ****** ****** ****** ******
  14  ****** ****** ****** ****** ****** ****** ****** ****** ****** ******
      ****** ****** ****** ****** ****** ****** ****** ****** ****** ******
      ****** ****** ****** ****** ****** ****** ****** ****** ****** ******
  15  ****** ****** ****** ****** ****** ****** ****** ****** ****** ******
      ****** ****** ****** ****** ****** ****** ****** ****** ****** ******
      ****** ****** ****** ****** ****** ****** ****** ****** ****** ******
  16  ****** ****** ****** ****** ****** ****** ****** ****** ****** ******
      ****** ****** ****** ****** ****** ****** ****** ****** ****** ******
      ****** ****** ****** ****** ****** ****** ****** ****** ****** ******
  17  ****** ****** ****** ****** ****** ****** ****** ****** ****** ******
      ****** ****** ****** ****** ****** ****** ****** ****** ****** ******
      ****** ****** ****** ****** ****** ****** ****** ****** ****** ******
  18  ****** ****** ****** ****** ****** ****** ****** ****** ****** ******
      ****** ****** ****** ****** ****** ****** ****** ****** ****** ******
      ****** ****** ****** ****** ****** ****** ****** ****** ****** ******
  19  ****** ****** ****** ****** ****** ****** ****** ****** ****** ******
      ****** ****** ****** ****** ****** ****** ****** ****** ****** ******
      ****** ****** ****** ****** ****** ****** ****** ****** ****** ******
  20  ****** ****** ****** ****** ****** ****** ****** ****** ****** ******
      ****** ****** ****** ****** ****** ****** ****** ****** ****** ******
      ****** ****** ****** ****** ****** ****** ****** ****** ****** ******
  21  ****** ****** ****** ****** ****** ****** ****** ****** ****** ******
      ****** ****** ****** ****** ****** ****** ****** ****** ****** ******
      ****** ****** ****** ****** ****** ****** ****** ****** ****** ******
  22  ****** ****** ****** ****** ****** ****** ****** ****** ****** ******
      ****** ****** ****** ****** ****** ****** ****** ****** ****** ******
      ****** ****** ****** ****** ****** ****** ****** ****** ****** ******
  23  ****** ****** ****** ****** ****** ****** ****** ****** ****** ******
      ****** ****** ****** ****** ****** ****** ****** ****** ****** ******
      ****** ****** ****** ****** ****** ****** ****** ****** ****** ******
  24  ****** ****** ****** ****** ****** ****** ****** ****** ****** ******
      ****** ****** ****** ****** ****** ****** ****** ****** ****** ******
      ****** ****** ****** ****** ****** ****** ****** ****** ****** ******
  25  ****** ****** ****** ****** ****** ****** ****** ****** ****** ******
      ****** ****** ****** ****** ****** ****** ****** ****** ****** ******
      ****** ****** ****** ****** ****** ****** ****** ****** ****** ******

 HEAD WILL BE SAVED ON UNIT   51 AT END OF TIME STEP    1, STRESS PERIOD    4
1
  VOLUMETRIC BUDGET FOR ENTIRE MODEL AT END OF TIME STEP    1, STRESS PERIOD   4
  ------------------------------------------------------------------------------

     CUMULATIVE VOLUMES      L**3       RATES FOR THIS TIME STEP      L**3/T
     ------------------                 ------------------------

           IN:                                      IN:
           ---                                      ---
             STORAGE =    31678013.6398               STORAGE =       22426.6840
       CONSTANT HEAD =     8563223.4372         CONSTANT HEAD =       31923.9213
               WELLS =           0.0000                 WELLS =           0.0000
            RECHARGE =     8804400.0000              RECHARGE =       27600.0000
      STREAM LEAKAGE =     2203783.0805        STREAM LEAKAGE =        7095.0963

            TOTAL IN =    51249420.1576              TOTAL IN =       89045.7016

          OUT:                                     OUT:
          ----                                     ----
             STORAGE =        1187.5212               STORAGE =          13.0497
       CONSTANT HEAD =           0.0000         CONSTANT HEAD =           0.0000
               WELLS =    11483184.5312                 WELLS =       31460.7795
            RECHARGE =           0.0000              RECHARGE =           0.0000
      STREAM LEAKAGE =    39765050.1405        STREAM LEAKAGE =       57571.8734

           TOTAL OUT =    51249422.1928             TOTAL OUT =       89045.7027

            IN - OUT =          -2.0352              IN - OUT =      -1.0802E-03

 PERCENT DISCREPANCY =          -0.00     PERCENT DISCREPANCY =          -0.00






         TIME SUMMARY AT END OF TIME STEP    1 IN STRESS PERIOD    4
                    SECONDS     MINUTES      HOURS       DAYS        YEARS
                    -----------------------------------------------------------
   TIME STEP LENGTH 7.86240E+06 1.31040E+05  2184.0      91.000     0.24914    
 STRESS PERIOD TIME 7.86240E+06 1.31040E+05  2184.0      91.000     0.24914    
         TOTAL TIME 3.15360E+07 5.25600E+05  8760.0      365.00     0.99932    
1
1
                            STRESS PERIOD NO.    5, LENGTH =   92.00000    
                            -----------------------------------------------

                              NUMBER OF TIME STEPS =     1

                               MULTIPLIER FOR DELT =     1.500

                            INITIAL TIME STEP SIZE =   92.00000    

 WELL NO.  LAYER   ROW   COL   STRESS RATE         
 --------------------------------------------------
      1      1     20     21      -6420.    
      2      1     18     16      -7655.    
      3      1     20     18      -5517.    
      4      1      4      9     -0.1187E+05

      4 WELLS

                 RECHARGE =  5.000000E-04

 REUSING STREAM SEGMENT DATA FROM LAST STRESS PERIOD
 
 SOLVING FOR HEAD 


     7 CALLS TO PCG ROUTINE FOR TIME STEP   1 IN STRESS PERIOD    5
    26 TOTAL ITERATIONS

 OUTPUT CONTROL FOR STRESS PERIOD    5   TIME STEP    1
    SAVE BUDGET
    SAVE HEAD FOR ALL LAYERS
    PRINT HEAD FOR ALL LAYERS
 UBDSV2 SAVING "STREAMFLOW OUT  " ON UNIT  50 AT TIME STEP  1, STRESS PERIOD   5



 STREAM LISTING     PERIOD      5   STEP        1

 LAYER ROW COL. STREAM  RCH.  FLOW INTO     FLOW TO   FLOW OUT OF   OVRLND.     DIRECT     STREAM       STREAM     STREAM     STREAM   STREAMBED  STREAMBED
                SEG.NO.  NO.  STRM. RCH.    AQUIFER    STRM. RCH.    RUNOFF     PRECIP       ET          HEAD       DEPTH      WIDTH   CONDCTNC.   GRADIENT

   1   13    1     1     1    1.0000E+05 -1.4984E+03   1.0150E+05  0.000E+00  0.000E+00  0.000E+00  4.84067E+01  1.453E-01  2.000E+01  2.000E+04 -7.492E-02
   1   13    2     1     2    1.0150E+05 -2.4686E+03   1.0397E+05  0.000E+00  0.000E+00  0.000E+00  4.79311E+01  1.470E-01  2.000E+01  2.000E+04 -1.234E-01
   1   14    3     1     3    1.0397E+05 -4.4722E+02   1.0441E+05  0.000E+00  0.000E+00  0.000E+00  4.74551E+01  1.483E-01  2.000E+01  2.000E+04 -2.236E-02
   1   15    4     1     4    1.0441E+05 -4.2461E+02   1.0484E+05  0.000E+00  0.000E+00  0.000E+00  4.69782E+01  1.486E-01  2.000E+01  2.000E+04 -2.123E-02
   1   16    5     1     5    1.0484E+05 -1.5278E+03   1.0637E+05  0.000E+00  0.000E+00  0.000E+00  4.65017E+01  1.495E-01  2.000E+01  2.000E+04 -7.639E-02
   1   16    6     1     6    1.0637E+05 -9.4749E+02   1.0731E+05  0.000E+00  0.000E+00  0.000E+00  4.60255E+01  1.505E-01  2.000E+01  2.000E+04 -4.737E-02
   1   16    7     1     7    1.0731E+05 -8.9980E+02   1.0821E+05  0.000E+00  0.000E+00  0.000E+00  4.55490E+01  1.513E-01  2.000E+01  2.000E+04 -4.499E-02
   1   16    8     1     8    1.0821E+05 -8.4681E+02   1.0906E+05  0.000E+00  0.000E+00  0.000E+00  4.50725E+01  1.520E-01  2.000E+01  2.000E+04 -4.234E-02
   1   16    9     1     9    1.0906E+05 -7.6510E+02   1.0983E+05  0.000E+00  0.000E+00  0.000E+00  4.45959E+01  1.527E-01  2.000E+01  2.000E+04 -3.825E-02
   1   16   10     1    10    1.0983E+05 -6.4180E+02   1.1047E+05  0.000E+00  0.000E+00  0.000E+00  4.41192E+01  1.533E-01  2.000E+01  2.000E+04 -3.209E-02
   1   16   11     1    11    1.1047E+05 -4.5636E+02   1.1092E+05  0.000E+00  0.000E+00  0.000E+00  4.36424E+01  1.537E-01  2.000E+01  2.000E+04 -2.282E-02
   1   16   12     1    12    1.1092E+05 -2.2472E+02   1.1115E+05  0.000E+00  0.000E+00  0.000E+00  4.31654E+01  1.540E-01  2.000E+01  2.000E+04 -1.124E-02
   1   15   13     1    13    1.1115E+05 -1.9078E+02   1.1134E+05  0.000E+00  0.000E+00  0.000E+00  4.26883E+01  1.542E-01  2.000E+01  2.000E+04 -9.539E-03
   1   14   14     1    14    1.1134E+05 -5.5336E+02   1.1189E+05  0.000E+00  0.000E+00  0.000E+00  4.22113E+01  1.545E-01  2.000E+01  2.000E+04 -2.767E-02
   1   13   15     1    15    1.1189E+05 -1.0870E+03   1.1298E+05  0.000E+00  0.000E+00  0.000E+00  4.17347E+01  1.552E-01  2.000E+01  2.000E+04 -5.435E-02
   1   12   16     1    16    1.1298E+05 -2.1266E+03   1.1511E+05  0.000E+00  0.000E+00  0.000E+00  4.12588E+01  1.565E-01  2.000E+01  2.000E+04 -1.063E-01
   1   12   17     1    17    1.1511E+05 -1.2537E+03   1.1636E+05  0.000E+00  0.000E+00  0.000E+00  4.07829E+01  1.579E-01  2.000E+01  2.000E+04 -6.268E-02
   1   12   18     1    18    1.1636E+05 -1.2257E+03   1.1759E+05  0.000E+00  0.000E+00  0.000E+00  4.03066E+01  1.589E-01  2.000E+01  2.000E+04 -6.128E-02
   1   12   19     1    19    1.1759E+05 -1.9027E+03   1.1949E+05  0.000E+00  0.000E+00  0.000E+00  3.98306E+01  1.602E-01  2.000E+01  2.000E+04 -9.513E-02
   1   13   20     1    20    1.1949E+05 -8.2320E+02   1.2031E+05  0.000E+00  0.000E+00  0.000E+00  3.93545E+01  1.613E-01  2.000E+01  2.000E+04 -4.116E-02
   1   14   21     1    21    1.2031E+05  6.2296E+01   1.2025E+05  0.000E+00  0.000E+00  0.000E+00  3.88775E+01  1.616E-01  2.000E+01  2.000E+04  3.115E-03
   1   14   22     1    22    1.2025E+05  5.1209E+03   1.1513E+05  0.000E+00  0.000E+00  0.000E+00  3.83981E+01  1.595E-01  2.000E+01  2.000E+04  2.560E-01
   1    9   30     2     1    5.0000E+04 -6.3804E+02   5.0638E+04  0.000E+00  0.000E+00  0.000E+00  4.02413E+01  1.163E-01  2.000E+01  2.000E+04 -3.190E-02
   1    9   29     2     2    5.0638E+04 -9.3829E+02   5.1576E+04  0.000E+00  0.000E+00  0.000E+00  3.99924E+01  1.174E-01  2.000E+01  2.000E+04 -4.691E-02
   1    9   28     2     3    5.1576E+04 -1.1956E+03   5.2772E+04  0.000E+00  0.000E+00  0.000E+00  3.97439E+01  1.189E-01  2.000E+01  2.000E+04 -5.978E-02
   1    9   27     2     4    5.2772E+04 -2.4618E+03   5.5234E+04  0.000E+00  0.000E+00  0.000E+00  3.94963E+01  1.213E-01  2.000E+01  2.000E+04 -1.231E-01
   1   10   26     2     5    5.5234E+04 -1.6307E+03   5.6864E+04  0.000E+00  0.000E+00  0.000E+00  3.92491E+01  1.241E-01  2.000E+01  2.000E+04 -8.154E-02
   1   11   25     2     6    5.6864E+04 -1.4163E+03   5.8281E+04  0.000E+00  0.000E+00  0.000E+00  3.90011E+01  1.261E-01  2.000E+01  2.000E+04 -7.082E-02
   1   12   24     2     7    5.8281E+04 -1.4806E+03   5.9761E+04  0.000E+00  0.000E+00  0.000E+00  3.87530E+01  1.280E-01  2.000E+01  2.000E+04 -7.403E-02
   1   13   23     2     8    5.9761E+04 -2.2940E+02   5.9991E+04  0.000E+00  0.000E+00  0.000E+00  3.85041E+01  1.291E-01  2.000E+01  2.000E+04 -1.147E-02
   1   14   22     2     9    5.9991E+04  2.2144E+03   5.7776E+04  0.000E+00  0.000E+00  0.000E+00  3.82528E+01  1.278E-01  2.000E+01  2.000E+04  1.107E-01
   1   14   22     3     1    1.7290E+05 -8.3483E+03   1.8125E+05  0.000E+00  0.000E+00  0.000E+00  3.77247E+01  1.691E-01  2.000E+01  2.000E+04 -4.174E-01
   1   15   23     3     2    1.8125E+05 -1.9386E+02   1.8145E+05  0.000E+00  0.000E+00  0.000E+00  3.68382E+01  1.716E-01  2.000E+01  2.000E+04 -9.693E-03
   1   15   24     3     3    1.8145E+05 -1.6955E+02   1.8162E+05  0.000E+00  0.000E+00  0.000E+00  3.59494E+01  1.717E-01  2.000E+01  2.000E+04 -8.478E-03
   1   15   25     3     4    1.8162E+05 -1.9532E+02   1.8181E+05  0.000E+00  0.000E+00  0.000E+00  3.50607E+01  1.718E-01  2.000E+01  2.000E+04 -9.766E-03
   1   15   26     3     5    1.8181E+05 -2.7074E+02   1.8208E+05  0.000E+00  0.000E+00  0.000E+00  3.41719E+01  1.719E-01  2.000E+01  2.000E+04 -1.354E-02
   1   16   27     3     6    1.8208E+05 -2.7593E+02   1.8236E+05  0.000E+00  0.000E+00  0.000E+00  3.32832E+01  1.721E-01  2.000E+01  2.000E+04 -1.380E-02
   1   17   28     3     7    1.8236E+05 -1.2096E+03   1.8357E+05  0.000E+00  0.000E+00  0.000E+00  3.23947E+01  1.725E-01  2.000E+01  2.000E+04 -6.048E-02
   1   18   29     3     8    1.8357E+05 -2.2390E+03   1.8581E+05  0.000E+00  0.000E+00  0.000E+00  3.15068E+01  1.734E-01  2.000E+01  2.000E+04 -1.119E-01
   1   18   30     3     9    1.8581E+05 -2.7658E+03   1.8857E+05  0.000E+00  0.000E+00  0.000E+00  3.06193E+01  1.749E-01  2.000E+01  2.000E+04 -1.383E-01



1
              HEAD IN LAYER   1 AT END OF TIME STEP   1 IN STRESS PERIOD    5
  ---------------------------------------------------------------------------

          1      2      3      4      5      6      7      8      9     10
         11     12     13     14     15     16     17     18     19     20
         21     22     23     24     25     26     27     28     29     30
 .........................................................................
   1  ****** ****** ****** ****** ****** ****** ****** ****** ****** ******
      ****** ****** ****** ****** ****** ****** ****** ****** ****** ******
      ****** ****** ****** ****** ****** ****** ****** ****** ****** ******
   2  ****** ****** ****** ****** ****** ****** ****** ****** ****** ******
      ****** ****** ****** ****** ****** ****** ****** ****** ****** ******
      ****** ****** ****** ****** ****** ****** ****** ****** ****** ******
   3  ****** ****** ****** ****** ****** ****** ****** ****** ****** ******
      ****** ****** ****** ****** ****** ****** ****** ****** ****** ******
      ****** ****** ****** ****** ****** ****** ****** ****** ****** ******
   4  ****** ****** ****** ****** ****** ****** ****** ****** ****** ******
      ****** ****** ****** ****** ****** ****** ****** ****** ****** ******
      ****** ****** ****** ****** ****** ****** ****** ****** ****** ******
   5  ****** ****** ****** ****** ****** ****** ****** ****** ****** ******
      ****** ****** ****** ****** ****** ****** ****** ****** ****** ******
      ****** ****** ****** ****** ****** ****** ****** ****** ****** ******
   6  ****** ****** ****** ****** ****** ****** ****** ****** ****** ******
      ****** ****** ****** ****** ****** ****** ****** ****** ****** ******
      ****** ****** ****** ****** ****** ****** ****** ****** ****** ******
   7  ****** ****** ****** ****** ****** ****** ****** ****** ****** ******
      ****** ****** ****** ****** ****** ****** ****** ****** ****** ******
      ****** ****** ****** ****** ****** ****** ****** ****** ****** ******
   8  ****** ****** ****** ****** ****** ****** ****** ****** ****** ******
      ****** ****** ****** ****** ****** ****** ****** ****** ****** ******
      ****** ****** ****** ****** ****** ****** ****** ****** ****** ******
   9  ****** ****** ****** ****** ****** ****** ****** ****** ****** ******
      ****** ****** ****** ****** ****** ****** ****** ****** ****** ******
      ****** ****** ****** ****** ****** ****** ****** ****** ****** ******
  10  ****** ****** ****** ****** ****** ****** ****** ****** ****** ******
      ****** ****** ****** ****** ****** ****** ****** ****** ****** ******
      ****** ****** ****** ****** ****** ****** ****** ****** ****** ******
  11  ****** ****** ****** ****** ****** ****** ****** ****** ****** ******
      ****** ****** ****** ****** ****** ****** ****** ****** ****** ******
      ****** ****** ****** ****** ****** ****** ****** ****** ****** ******
  12  ****** ****** ****** ****** ****** ****** ****** ****** ****** ******
      ****** ****** ****** ****** ****** ****** ****** ****** ****** ******
      ****** ****** ****** ****** ****** ****** ****** ****** ****** ******
  13  ****** ****** ****** ****** ****** ****** ****** ****** ****** ******
      ****** ****** ****** ****** ****** ****** ****** ****** ****** ******
      ****** ****** ****** ****** ****** ****** ****** ****** ****** ******
  14  ****** ****** ****** ****** ****** ****** ****** ****** ****** ******
      ****** ****** ****** ****** ****** ****** ****** ****** ****** ******
      ****** ****** ****** ****** ****** ****** ****** ****** ****** ******
  15  ****** ****** ****** ****** ****** ****** ****** ****** ****** ******
      ****** ****** ****** ****** ****** ****** ****** ****** ****** ******
      ****** ****** ****** ****** ****** ****** ****** ****** ****** ******
  16  ****** ****** ****** ****** ****** ****** ****** ****** ****** ******
      ****** ****** ****** ****** ****** ****** ****** ****** ****** ******
      ****** ****** ****** ****** ****** ****** ****** ****** ****** ******
  17  ****** ****** ****** ****** ****** ****** ****** ****** ****** ******
      ****** ****** ****** ****** ****** ****** ****** ****** ****** ******
      ****** ****** ****** ****** ****** ****** ****** ****** ****** ******
  18  ****** ****** ****** ****** ****** ****** ****** ****** ****** ******
      ****** ****** ****** ****** ****** ****** ****** ****** ****** ******
      ****** ****** ****** ****** ****** ****** ****** ****** ****** ******
  19  ****** ****** ****** ****** ****** ****** ****** ****** ****** ******
      ****** ****** ****** ****** ****** ****** ****** ****** ****** ******
      ****** ****** ****** ****** ****** ****** ****** ****** ****** ******
  20  ****** ****** ****** ****** ****** ****** ****** ****** ****** ******
      ****** ****** ****** ****** ****** ****** ****** ****** ****** ******
      ****** ****** ****** ****** ****** ****** ****** ****** ****** ******
  21  ****** ****** ****** ****** ****** ****** ****** ****** ****** ******
      ****** ****** ****** ****** ****** ****** ****** ****** ****** ******
      ****** ****** ****** ****** ****** ****** ****** ****** ****** ******
  22  ****** ****** ****** ****** ****** ****** ****** ****** ****** ******
      ****** ****** ****** ****** ****** ****** ****** ****** ****** ******
      ****** ****** ****** ****** ****** ****** ****** ****** ****** ******
  23  ****** ****** ****** ****** ****** ****** ****** ****** ****** ******
      ****** ****** ****** ****** ****** ****** ****** ****** ****** ******
      ****** ****** ****** ****** ****** ****** ****** ****** ****** ******
  24  ****** ****** ****** ****** ****** ****** ****** ****** ****** ******
      ****** ****** ****** ****** ****** ****** ****** ****** ****** ******
      ****** ****** ****** ****** ****** ****** ****** ****** ****** ******
  25  ****** ****** ****** ****** ****** ****** ****** ****** ****** ******
      ****** ****** ****** ****** ****** ****** ****** ****** ****** ******
      ****** ****** ****** ****** ****** ****** ****** ****** ****** ******

 HEAD WILL BE SAVED ON UNIT   51 AT END OF TIME STEP    1, STRESS PERIOD    5
1
  VOLUMETRIC BUDGET FOR ENTIRE MODEL AT END OF TIME STEP    1, STRESS PERIOD   5
  ------------------------------------------------------------------------------

     CUMULATIVE VOLUMES      L**3       RATES FOR THIS TIME STEP      L**3/T
     ------------------                 ------------------------

           IN:                                      IN:
           ---                                      ---
             STORAGE =    33611669.0121               STORAGE =       21017.9932
       CONSTANT HEAD =    11803063.1381         CONSTANT HEAD =       35215.6489
               WELLS =           0.0000                 WELLS =           0.0000
            RECHARGE =    10074000.0000              RECHARGE =       13800.0000
      STREAM LEAKAGE =     2884364.3384        STREAM LEAKAGE =        7397.6224

            TOTAL IN =    58373096.4887              TOTAL IN =       77431.2645

          OUT:                                     OUT:
          ----                                     ----
             STORAGE =        1187.5212               STORAGE =           0.0000
       CONSTANT HEAD =           0.0000         CONSTANT HEAD =           0.0000
               WELLS =    14377576.2487                 WELLS =       31460.7795
            RECHARGE =           0.0000              RECHARGE =           0.0000
      STREAM LEAKAGE =    43994335.0782        STREAM LEAKAGE =       45970.4885

           TOTAL OUT =    58373098.8480             TOTAL OUT =       77431.2680

            IN - OUT =          -2.3593              IN - OUT =      -3.5228E-03

 PERCENT DISCREPANCY =          -0.00     PERCENT DISCREPANCY =          -0.00






         TIME SUMMARY AT END OF TIME STEP    1 IN STRESS PERIOD    5
                    SECONDS     MINUTES      HOURS       DAYS        YEARS
                    -----------------------------------------------------------
   TIME STEP LENGTH 7.94880E+06 1.32480E+05  2208.0      92.000     0.25188    
 STRESS PERIOD TIME 7.94880E+06 1.32480E+05  2208.0      92.000     0.25188    
         TOTAL TIME 3.94848E+07 6.58080E+05  10968.      457.00      1.2512    
1
1
                            STRESS PERIOD NO.    6, LENGTH =   91.00000    
                            -----------------------------------------------

                              NUMBER OF TIME STEPS =     1

                               MULTIPLIER FOR DELT =     1.500

                            INITIAL TIME STEP SIZE =   91.00000    

 WELL NO.  LAYER   ROW   COL   STRESS RATE         
 --------------------------------------------------
      1      1     20     21      -6420.    
      2      1     18     16      -7655.    
      3      1     20     18      -5517.    
      4      1      4      9     -0.1187E+05

      4 WELLS

                 RECHARGE =  2.000000E-03

 REUSING STREAM SEGMENT DATA FROM LAST STRESS PERIOD
 
 SOLVING FOR HEAD 


     7 CALLS TO PCG ROUTINE FOR TIME STEP   1 IN STRESS PERIOD    6
    26 TOTAL ITERATIONS

 OUTPUT CONTROL FOR STRESS PERIOD    6   TIME STEP    1
    SAVE BUDGET
    SAVE HEAD FOR ALL LAYERS
    PRINT HEAD FOR ALL LAYERS
 UBDSV2 SAVING "STREAMFLOW OUT  " ON UNIT  50 AT TIME STEP  1, STRESS PERIOD   6



 STREAM LISTING     PERIOD      6   STEP        1

 LAYER ROW COL. STREAM  RCH.  FLOW INTO     FLOW TO   FLOW OUT OF   OVRLND.     DIRECT     STREAM       STREAM     STREAM     STREAM   STREAMBED  STREAMBED
                SEG.NO.  NO.  STRM. RCH.    AQUIFER    STRM. RCH.    RUNOFF     PRECIP       ET          HEAD       DEPTH      WIDTH   CONDCTNC.   GRADIENT

   1   13    1     1     1    1.0000E+05 -1.7566E+03   1.0176E+05  0.000E+00  0.000E+00  0.000E+00  4.84068E+01  1.454E-01  2.000E+01  2.000E+04 -8.783E-02
   1   13    2     1     2    1.0176E+05 -2.7488E+03   1.0451E+05  0.000E+00  0.000E+00  0.000E+00  4.79314E+01  1.474E-01  2.000E+01  2.000E+04 -1.374E-01
   1   14    3     1     3    1.0451E+05 -5.9365E+02   1.0510E+05  0.000E+00  0.000E+00  0.000E+00  4.74556E+01  1.488E-01  2.000E+01  2.000E+04 -2.968E-02
   1   15    4     1     4    1.0510E+05 -5.8409E+02   1.0568E+05  0.000E+00  0.000E+00  0.000E+00  4.69788E+01  1.493E-01  2.000E+01  2.000E+04 -2.920E-02
   1   16    5     1     5    1.0568E+05 -2.0108E+03   1.0769E+05  0.000E+00  0.000E+00  0.000E+00  4.65027E+01  1.504E-01  2.000E+01  2.000E+04 -1.005E-01
   1   16    6     1     6    1.0769E+05 -1.2282E+03   1.0892E+05  0.000E+00  0.000E+00  0.000E+00  4.60267E+01  1.517E-01  2.000E+01  2.000E+04 -6.141E-02
   1   16    7     1     7    1.0892E+05 -1.1646E+03   1.1009E+05  0.000E+00  0.000E+00  0.000E+00  4.55505E+01  1.528E-01  2.000E+01  2.000E+04 -5.823E-02
   1   16    8     1     8    1.1009E+05 -1.1066E+03   1.1119E+05  0.000E+00  0.000E+00  0.000E+00  4.50742E+01  1.537E-01  2.000E+01  2.000E+04 -5.533E-02
   1   16    9     1     9    1.1119E+05 -1.0240E+03   1.1222E+05  0.000E+00  0.000E+00  0.000E+00  4.45978E+01  1.546E-01  2.000E+01  2.000E+04 -5.120E-02
   1   16   10     1    10    1.1222E+05 -9.0205E+02   1.1312E+05  0.000E+00  0.000E+00  0.000E+00  4.41213E+01  1.554E-01  2.000E+01  2.000E+04 -4.510E-02
   1   16   11     1    11    1.1312E+05 -7.1907E+02   1.1384E+05  0.000E+00  0.000E+00  0.000E+00  4.36447E+01  1.561E-01  2.000E+01  2.000E+04 -3.595E-02
   1   16   12     1    12    1.1384E+05 -6.4178E+02   1.1448E+05  0.000E+00  0.000E+00  0.000E+00  4.31680E+01  1.566E-01  2.000E+01  2.000E+04 -3.209E-02
   1   15   13     1    13    1.1448E+05 -6.1254E+02   1.1509E+05  0.000E+00  0.000E+00  0.000E+00  4.26912E+01  1.571E-01  2.000E+01  2.000E+04 -3.063E-02
   1   14   14     1    14    1.1509E+05 -9.6521E+02   1.1606E+05  0.000E+00  0.000E+00  0.000E+00  4.22146E+01  1.578E-01  2.000E+01  2.000E+04 -4.826E-02
   1   13   15     1    15    1.1606E+05 -1.4765E+03   1.1753E+05  0.000E+00  0.000E+00  0.000E+00  4.17383E+01  1.588E-01  2.000E+01  2.000E+04 -7.382E-02
   1   12   16     1    16    1.1753E+05 -2.4655E+03   1.2000E+05  0.000E+00  0.000E+00  0.000E+00  4.12626E+01  1.604E-01  2.000E+01  2.000E+04 -1.233E-01
   1   12   17     1    17    1.2000E+05 -1.5417E+03   1.2154E+05  0.000E+00  0.000E+00  0.000E+00  4.07870E+01  1.620E-01  2.000E+01  2.000E+04 -7.709E-02
   1   12   18     1    18    1.2154E+05 -1.5214E+03   1.2306E+05  0.000E+00  0.000E+00  0.000E+00  4.03110E+01  1.632E-01  2.000E+01  2.000E+04 -7.607E-02
   1   12   19     1    19    1.2306E+05 -2.2753E+03   1.2534E+05  0.000E+00  0.000E+00  0.000E+00  3.98352E+01  1.647E-01  2.000E+01  2.000E+04 -1.138E-01
   1   13   20     1    20    1.2534E+05 -1.2255E+03   1.2656E+05  0.000E+00  0.000E+00  0.000E+00  3.93593E+01  1.661E-01  2.000E+01  2.000E+04 -6.127E-02
   1   14   21     1    21    1.2656E+05 -3.2182E+02   1.2689E+05  0.000E+00  0.000E+00  0.000E+00  3.88826E+01  1.667E-01  2.000E+01  2.000E+04 -1.609E-02
   1   14   22     1    22    1.2689E+05  5.0190E+03   1.2187E+05  0.000E+00  0.000E+00  0.000E+00  3.84035E+01  1.649E-01  2.000E+01  2.000E+04  2.510E-01
   1    9   30     2     1    5.0000E+04 -1.0008E+03   5.1001E+04  0.000E+00  0.000E+00  0.000E+00  4.02416E+01  1.166E-01  2.000E+01  2.000E+04 -5.004E-02
   1    9   29     2     2    5.1001E+04 -1.2964E+03   5.2297E+04  0.000E+00  0.000E+00  0.000E+00  3.99931E+01  1.181E-01  2.000E+01  2.000E+04 -6.482E-02
   1    9   28     2     3    5.2297E+04 -1.5463E+03   5.3844E+04  0.000E+00  0.000E+00  0.000E+00  3.97451E+01  1.201E-01  2.000E+01  2.000E+04 -7.732E-02
   1    9   27     2     4    5.3844E+04 -2.9021E+03   5.6746E+04  0.000E+00  0.000E+00  0.000E+00  3.94981E+01  1.231E-01  2.000E+01  2.000E+04 -1.451E-01
   1   10   26     2     5    5.6746E+04 -2.0950E+03   5.8841E+04  0.000E+00  0.000E+00  0.000E+00  3.92514E+01  1.264E-01  2.000E+01  2.000E+04 -1.048E-01
   1   11   25     2     6    5.8841E+04 -1.8656E+03   6.0706E+04  0.000E+00  0.000E+00  0.000E+00  3.90040E+01  1.290E-01  2.000E+01  2.000E+04 -9.328E-02
   1   12   24     2     7    6.0706E+04 -1.8843E+03   6.2591E+04  0.000E+00  0.000E+00  0.000E+00  3.87564E+01  1.314E-01  2.000E+01  2.000E+04 -9.422E-02
   1   13   23     2     8    6.2591E+04 -3.6619E+02   6.2957E+04  0.000E+00  0.000E+00  0.000E+00  3.85078E+01  1.328E-01  2.000E+01  2.000E+04 -1.831E-02
   1   14   22     2     9    6.2957E+04  2.0831E+03   6.0874E+04  0.000E+00  0.000E+00  0.000E+00  3.82567E+01  1.317E-01  2.000E+01  2.000E+04  1.042E-01
   1   14   22     3     1    1.8274E+05 -8.4457E+03   1.9119E+05  0.000E+00  0.000E+00  0.000E+00  3.77303E+01  1.747E-01  2.000E+01  2.000E+04 -4.223E-01
   1   15   23     3     2    1.9119E+05 -3.2455E+02   1.9151E+05  0.000E+00  0.000E+00  0.000E+00  3.68438E+01  1.772E-01  2.000E+01  2.000E+04 -1.623E-02
   1   15   24     3     3    1.9151E+05 -2.8792E+02   1.9180E+05  0.000E+00  0.000E+00  0.000E+00  3.59551E+01  1.773E-01  2.000E+01  2.000E+04 -1.440E-02
   1   15   25     3     4    1.9180E+05 -3.1868E+02   1.9212E+05  0.000E+00  0.000E+00  0.000E+00  3.50664E+01  1.775E-01  2.000E+01  2.000E+04 -1.593E-02
   1   15   26     3     5    1.9212E+05 -4.2020E+02   1.9254E+05  0.000E+00  0.000E+00  0.000E+00  3.41777E+01  1.777E-01  2.000E+01  2.000E+04 -2.101E-02
   1   16   27     3     6    1.9254E+05 -4.4108E+02   1.9298E+05  0.000E+00  0.000E+00  0.000E+00  3.32891E+01  1.780E-01  2.000E+01  2.000E+04 -2.205E-02
   1   17   28     3     7    1.9298E+05 -1.6598E+03   1.9464E+05  0.000E+00  0.000E+00  0.000E+00  3.24008E+01  1.785E-01  2.000E+01  2.000E+04 -8.299E-02
   1   18   29     3     8    1.9464E+05 -2.6515E+03   1.9729E+05  0.000E+00  0.000E+00  0.000E+00  3.15131E+01  1.797E-01  2.000E+01  2.000E+04 -1.326E-01
   1   18   30     3     9    1.9729E+05 -3.1057E+03   2.0040E+05  0.000E+00  0.000E+00  0.000E+00  3.06257E+01  1.813E-01  2.000E+01  2.000E+04 -1.553E-01



1
              HEAD IN LAYER   1 AT END OF TIME STEP   1 IN STRESS PERIOD    6
  ---------------------------------------------------------------------------

          1      2      3      4      5      6      7      8      9     10
         11     12     13     14     15     16     17     18     19     20
         21     22     23     24     25     26     27     28     29     30
 .........................................................................
   1  ****** ****** ****** ****** ****** ****** ****** ****** ****** ******
      ****** ****** ****** ****** ****** ****** ****** ****** ****** ******
      ****** ****** ****** ****** ****** ****** ****** ****** ****** ******
   2  ****** ****** ****** ****** ****** ****** ****** ****** ****** ******
      ****** ****** ****** ****** ****** ****** ****** ****** ****** ******
      ****** ****** ****** ****** ****** ****** ****** ****** ****** ******
   3  ****** ****** ****** ****** ****** ****** ****** ****** ****** ******
      ****** ****** ****** ****** ****** ****** ****** ****** ****** ******
      ****** ****** ****** ****** ****** ****** ****** ****** ****** ******
   4  ****** ****** ****** ****** ****** ****** ****** ****** ****** ******
      ****** ****** ****** ****** ****** ****** ****** ****** ****** ******
      ****** ****** ****** ****** ****** ****** ****** ****** ****** ******
   5  ****** ****** ****** ****** ****** ****** ****** ****** ****** ******
      ****** ****** ****** ****** ****** ****** ****** ****** ****** ******
      ****** ****** ****** ****** ****** ****** ****** ****** ****** ******
   6  ****** ****** ****** ****** ****** ****** ****** ****** ****** ******
      ****** ****** ****** ****** ****** ****** ****** ****** ****** ******
      ****** ****** ****** ****** ****** ****** ****** ****** ****** ******
   7  ****** ****** ****** ****** ****** ****** ****** ****** ****** ******
      ****** ****** ****** ****** ****** ****** ****** ****** ****** ******
      ****** ****** ****** ****** ****** ****** ****** ****** ****** ******
   8  ****** ****** ****** ****** ****** ****** ****** ****** ****** ******
      ****** ****** ****** ****** ****** ****** ****** ****** ****** ******
      ****** ****** ****** ****** ****** ****** ****** ****** ****** ******
   9  ****** ****** ****** ****** ****** ****** ****** ****** ****** ******
      ****** ****** ****** ****** ****** ****** ****** ****** ****** ******
      ****** ****** ****** ****** ****** ****** ****** ****** ****** ******
  10  ****** ****** ****** ****** ****** ****** ****** ****** ****** ******
      ****** ****** ****** ****** ****** ****** ****** ****** ****** ******
      ****** ****** ****** ****** ****** ****** ****** ****** ****** ******
  11  ****** ****** ****** ****** ****** ****** ****** ****** ****** ******
      ****** ****** ****** ****** ****** ****** ****** ****** ****** ******
      ****** ****** ****** ****** ****** ****** ****** ****** ****** ******
  12  ****** ****** ****** ****** ****** ****** ****** ****** ****** ******
      ****** ****** ****** ****** ****** ****** ****** ****** ****** ******
      ****** ****** ****** ****** ****** ****** ****** ****** ****** ******
  13  ****** ****** ****** ****** ****** ****** ****** ****** ****** ******
      ****** ****** ****** ****** ****** ****** ****** ****** ****** ******
      ****** ****** ****** ****** ****** ****** ****** ****** ****** ******
  14  ****** ****** ****** ****** ****** ****** ****** ****** ****** ******
      ****** ****** ****** ****** ****** ****** ****** ****** ****** ******
      ****** ****** ****** ****** ****** ****** ****** ****** ****** ******
  15  ****** ****** ****** ****** ****** ****** ****** ****** ****** ******
      ****** ****** ****** ****** ****** ****** ****** ****** ****** ******
      ****** ****** ****** ****** ****** ****** ****** ****** ****** ******
  16  ****** ****** ****** ****** ****** ****** ****** ****** ****** ******
      ****** ****** ****** ****** ****** ****** ****** ****** ****** ******
      ****** ****** ****** ****** ****** ****** ****** ****** ****** ******
  17  ****** ****** ****** ****** ****** ****** ****** ****** ****** ******
      ****** ****** ****** ****** ****** ****** ****** ****** ****** ******
      ****** ****** ****** ****** ****** ****** ****** ****** ****** ******
  18  ****** ****** ****** ****** ****** ****** ****** ****** ****** ******
      ****** ****** ****** ****** ****** ****** ****** ****** ****** ******
      ****** ****** ****** ****** ****** ****** ****** ****** ****** ******
  19  ****** ****** ****** ****** ****** ****** ****** ****** ****** ******
      ****** ****** ****** ****** ****** ****** ****** ****** ****** ******
      ****** ****** ****** ****** ****** ****** ****** ****** ****** ******
  20  ****** ****** ****** ****** ****** ****** ****** ****** ****** ******
      ****** ****** ****** ****** ****** ****** ****** ****** ****** ******
      ****** ****** ****** ****** ****** ****** ****** ****** ****** ******
  21  ****** ****** ****** ****** ****** ****** ****** ****** ****** ******
      ****** ****** ****** ****** ****** ****** ****** ****** ****** ******
      ****** ****** ****** ****** ****** ****** ****** ****** ****** ******
  22  ****** ****** ****** ****** ****** ****** ****** ****** ****** ******
      ****** ****** ****** ****** ****** ****** ****** ****** ****** ******
      ****** ****** ****** ****** ****** ****** ****** ****** ****** ******
  23  ****** ****** ****** ****** ****** ****** ****** ****** ****** ******
      ****** ****** ****** ****** ****** ****** ****** ****** ****** ******
      ****** ****** ****** ****** ****** ****** ****** ****** ****** ******
  24  ****** ****** ****** ****** ****** ****** ****** ****** ****** ******
      ****** ****** ****** ****** ****** ****** ****** ****** ****** ******
      ****** ****** ****** ****** ****** ****** ****** ****** ****** ******
  25  ****** ****** ****** ****** ****** ****** ****** ****** ****** ******
      ****** ****** ****** ****** ****** ****** ****** ****** ****** ******
      ****** ****** ****** ****** ****** ****** ****** ****** ****** ******

 HEAD WILL BE SAVED ON UNIT   51 AT END OF TIME STEP    1, STRESS PERIOD    6
1
  VOLUMETRIC BUDGET FOR ENTIRE MODEL AT END OF TIME STEP    1, STRESS PERIOD   6
  ------------------------------------------------------------------------------

     CUMULATIVE VOLUMES      L**3       RATES FOR THIS TIME STEP      L**3/T
     ------------------                 ------------------------

           IN:                                      IN:
           ---                                      ---
             STORAGE =    33642789.5086               STORAGE =         341.9835
       CONSTANT HEAD =    14856481.9921         CONSTANT HEAD =       33554.0533
               WELLS =           0.0000                 WELLS =           0.0000
            RECHARGE =    15097200.0000              RECHARGE =       55200.0000
      STREAM LEAKAGE =     3530655.7118        STREAM LEAKAGE =        7102.1030

            TOTAL IN =    67127127.2124              TOTAL IN =       96198.1398

          OUT:                                     OUT:
          ----                                     ----
             STORAGE =      660011.5685               STORAGE =        7239.8247
       CONSTANT HEAD =           0.0000         CONSTANT HEAD =           0.0000
               WELLS =    17240507.1866                 WELLS =       31460.7795
            RECHARGE =           0.0000              RECHARGE =           0.0000
      STREAM LEAKAGE =    49226610.5651        STREAM LEAKAGE =       57497.5328

           TOTAL OUT =    67127129.3202             TOTAL OUT =       96198.1371

            IN - OUT =          -2.1077              IN - OUT =       2.7647E-03

 PERCENT DISCREPANCY =          -0.00     PERCENT DISCREPANCY =           0.00






         TIME SUMMARY AT END OF TIME STEP    1 IN STRESS PERIOD    6
                    SECONDS     MINUTES      HOURS       DAYS        YEARS
                    -----------------------------------------------------------
   TIME STEP LENGTH 7.86240E+06 1.31040E+05  2184.0      91.000     0.24914    
 STRESS PERIOD TIME 7.86240E+06 1.31040E+05  2184.0      91.000     0.24914    
         TOTAL TIME 4.73472E+07 7.89120E+05  13152.      548.00      1.5003    
1
1
                            STRESS PERIOD NO.    7, LENGTH =   91.00000    
                            -----------------------------------------------

                              NUMBER OF TIME STEPS =     1

                               MULTIPLIER FOR DELT =     1.500

                            INITIAL TIME STEP SIZE =   91.00000    

 WELL NO.  LAYER   ROW   COL   STRESS RATE         
 --------------------------------------------------
      1      1     20     21      -6420.    
      2      1     18     16      -7655.    
      3      1     20     18      -5517.    
      4      1      4      9     -0.1187E+05

      4 WELLS

                 RECHARGE =   0.00000    

 REUSING STREAM SEGMENT DATA FROM LAST STRESS PERIOD
 
 SOLVING FOR HEAD 


     7 CALLS TO PCG ROUTINE FOR TIME STEP   1 IN STRESS PERIOD    7
    26 TOTAL ITERATIONS

 OUTPUT CONTROL FOR STRESS PERIOD    7   TIME STEP    1
    SAVE BUDGET
    SAVE HEAD FOR ALL LAYERS
    PRINT HEAD FOR ALL LAYERS
 UBDSV2 SAVING "STREAMFLOW OUT  " ON UNIT  50 AT TIME STEP  1, STRESS PERIOD   7



 STREAM LISTING     PERIOD      7   STEP        1

 LAYER ROW COL. STREAM  RCH.  FLOW INTO     FLOW TO   FLOW OUT OF   OVRLND.     DIRECT     STREAM       STREAM     STREAM     STREAM   STREAMBED  STREAMBED
                SEG.NO.  NO.  STRM. RCH.    AQUIFER    STRM. RCH.    RUNOFF     PRECIP       ET          HEAD       DEPTH      WIDTH   CONDCTNC.   GRADIENT

   1   13    1     1     1    1.0000E+05 -1.0505E+03   1.0105E+05  0.000E+00  0.000E+00  0.000E+00  4.84065E+01  1.451E-01  2.000E+01  2.000E+04 -5.252E-02
   1   13    2     1     2    1.0105E+05 -1.9574E+03   1.0301E+05  0.000E+00  0.000E+00  0.000E+00  4.79305E+01  1.464E-01  2.000E+01  2.000E+04 -9.787E-02
   1   14    3     1     3    1.0301E+05 -3.3526E+02   1.0334E+05  0.000E+00  0.000E+00  0.000E+00  4.74542E+01  1.474E-01  2.000E+01  2.000E+04 -1.676E-02
   1   15    4     1     4    1.0334E+05 -3.1613E+02   1.0366E+05  0.000E+00  0.000E+00  0.000E+00  4.69772E+01  1.477E-01  2.000E+01  2.000E+04 -1.581E-02
   1   16    5     1     5    1.0366E+05 -1.2487E+03   1.0491E+05  0.000E+00  0.000E+00  0.000E+00  4.65006E+01  1.483E-01  2.000E+01  2.000E+04 -6.244E-02
   1   16    6     1     6    1.0491E+05 -7.6665E+02   1.0567E+05  0.000E+00  0.000E+00  0.000E+00  4.60242E+01  1.492E-01  2.000E+01  2.000E+04 -3.833E-02
   1   16    7     1     7    1.0567E+05 -7.2101E+02   1.0640E+05  0.000E+00  0.000E+00  0.000E+00  4.55476E+01  1.498E-01  2.000E+01  2.000E+04 -3.605E-02
   1   16    8     1     8    1.0640E+05 -6.6867E+02   1.0706E+05  0.000E+00  0.000E+00  0.000E+00  4.50709E+01  1.504E-01  2.000E+01  2.000E+04 -3.343E-02
   1   16    9     1     9    1.0706E+05 -5.8931E+02   1.0765E+05  0.000E+00  0.000E+00  0.000E+00  4.45941E+01  1.509E-01  2.000E+01  2.000E+04 -2.947E-02
   1   16   10     1    10    1.0765E+05 -4.6994E+02   1.0812E+05  0.000E+00  0.000E+00  0.000E+00  4.41173E+01  1.514E-01  2.000E+01  2.000E+04 -2.350E-02
   1   16   11     1    11    1.0812E+05 -2.8570E+02   1.0841E+05  0.000E+00  0.000E+00  0.000E+00  4.36403E+01  1.517E-01  2.000E+01  2.000E+04 -1.429E-02
   1   16   12     1    12    1.0841E+05  9.0279E+01   1.0832E+05  0.000E+00  0.000E+00  0.000E+00  4.31632E+01  1.518E-01  2.000E+01  2.000E+04  4.514E-03
   1   15   13     1    13    1.0832E+05  1.7621E+02   1.0814E+05  0.000E+00  0.000E+00  0.000E+00  4.26858E+01  1.517E-01  2.000E+01  2.000E+04  8.810E-03
   1   14   14     1    14    1.0814E+05 -1.4478E+02   1.0829E+05  0.000E+00  0.000E+00  0.000E+00  4.22085E+01  1.517E-01  2.000E+01  2.000E+04 -7.239E-03
   1   13   15     1    15    1.0829E+05 -6.5144E+02   1.0894E+05  0.000E+00  0.000E+00  0.000E+00  4.17315E+01  1.520E-01  2.000E+01  2.000E+04 -3.257E-02
   1   12   16     1    16    1.0894E+05 -1.6426E+03   1.1058E+05  0.000E+00  0.000E+00  0.000E+00  4.12552E+01  1.530E-01  2.000E+01  2.000E+04 -8.213E-02
   1   12   17     1    17    1.1058E+05 -9.4890E+02   1.1153E+05  0.000E+00  0.000E+00  0.000E+00  4.07790E+01  1.540E-01  2.000E+01  2.000E+04 -4.745E-02
   1   12   18     1    18    1.1153E+05 -9.4531E+02   1.1248E+05  0.000E+00  0.000E+00  0.000E+00  4.03026E+01  1.548E-01  2.000E+01  2.000E+04 -4.727E-02
   1   12   19     1    19    1.1248E+05 -1.5740E+03   1.1405E+05  0.000E+00  0.000E+00  0.000E+00  3.98263E+01  1.559E-01  2.000E+01  2.000E+04 -7.870E-02
   1   13   20     1    20    1.1405E+05 -5.4478E+02   1.1459E+05  0.000E+00  0.000E+00  0.000E+00  3.93499E+01  1.567E-01  2.000E+01  2.000E+04 -2.724E-02
   1   14   21     1    21    1.1459E+05  3.5332E+02   1.1424E+05  0.000E+00  0.000E+00  0.000E+00  3.88727E+01  1.568E-01  2.000E+01  2.000E+04  1.767E-02
   1   14   22     1    22    1.1424E+05  5.1749E+03   1.0907E+05  0.000E+00  0.000E+00  0.000E+00  3.83932E+01  1.545E-01  2.000E+01  2.000E+04  2.587E-01
   1    9   30     2     1    5.0000E+04 -4.8594E+02   5.0486E+04  0.000E+00  0.000E+00  0.000E+00  4.02412E+01  1.162E-01  2.000E+01  2.000E+04 -2.430E-02
   1    9   29     2     2    5.0486E+04 -7.8315E+02   5.1269E+04  0.000E+00  0.000E+00  0.000E+00  3.99921E+01  1.171E-01  2.000E+01  2.000E+04 -3.916E-02
   1    9   28     2     3    5.1269E+04 -1.0312E+03   5.2300E+04  0.000E+00  0.000E+00  0.000E+00  3.97433E+01  1.183E-01  2.000E+01  2.000E+04 -5.156E-02
   1    9   27     2     4    5.2300E+04 -2.1999E+03   5.4500E+04  0.000E+00  0.000E+00  0.000E+00  3.94955E+01  1.205E-01  2.000E+01  2.000E+04 -1.100E-01
   1   10   26     2     5    5.4500E+04 -1.3911E+03   5.5891E+04  0.000E+00  0.000E+00  0.000E+00  3.92479E+01  1.229E-01  2.000E+01  2.000E+04 -6.955E-02
   1   11   25     2     6    5.5891E+04 -1.1901E+03   5.7081E+04  0.000E+00  0.000E+00  0.000E+00  3.89997E+01  1.247E-01  2.000E+01  2.000E+04 -5.951E-02
   1   12   24     2     7    5.7081E+04 -1.2677E+03   5.8349E+04  0.000E+00  0.000E+00  0.000E+00  3.87513E+01  1.263E-01  2.000E+01  2.000E+04 -6.339E-02
   1   13   23     2     8    5.8349E+04 -1.7342E+02   5.8523E+04  0.000E+00  0.000E+00  0.000E+00  3.85022E+01  1.272E-01  2.000E+01  2.000E+04 -8.671E-03
   1   14   22     2     9    5.8523E+04  2.3276E+03   5.6195E+04  0.000E+00  0.000E+00  0.000E+00  3.82508E+01  1.258E-01  2.000E+01  2.000E+04  1.164E-01
   1   14   22     3     1    1.6526E+05 -8.2839E+03   1.7355E+05  0.000E+00  0.000E+00  0.000E+00  3.77202E+01  1.647E-01  2.000E+01  2.000E+04 -4.142E-01
   1   15   23     3     2    1.7355E+05 -1.1497E+02   1.7366E+05  0.000E+00  0.000E+00  0.000E+00  3.68338E+01  1.671E-01  2.000E+01  2.000E+04 -5.749E-03
   1   15   24     3     3    1.7366E+05 -1.1254E+02   1.7377E+05  0.000E+00  0.000E+00  0.000E+00  3.59450E+01  1.672E-01  2.000E+01  2.000E+04 -5.627E-03
   1   15   25     3     4    1.7377E+05 -1.4047E+02   1.7391E+05  0.000E+00  0.000E+00  0.000E+00  3.50561E+01  1.673E-01  2.000E+01  2.000E+04 -7.023E-03
   1   15   26     3     5    1.7391E+05 -2.1804E+02   1.7413E+05  0.000E+00  0.000E+00  0.000E+00  3.41674E+01  1.674E-01  2.000E+01  2.000E+04 -1.090E-02
   1   16   27     3     6    1.7413E+05 -2.0696E+02   1.7434E+05  0.000E+00  0.000E+00  0.000E+00  3.32786E+01  1.675E-01  2.000E+01  2.000E+04 -1.035E-02
   1   17   28     3     7    1.7434E+05 -1.0120E+03   1.7535E+05  0.000E+00  0.000E+00  0.000E+00  3.23901E+01  1.678E-01  2.000E+01  2.000E+04 -5.060E-02
   1   18   29     3     8    1.7535E+05 -1.9518E+03   1.7730E+05  0.000E+00  0.000E+00  0.000E+00  3.15020E+01  1.687E-01  2.000E+01  2.000E+04 -9.759E-02
   1   18   30     3     9    1.7730E+05 -2.5690E+03   1.7987E+05  0.000E+00  0.000E+00  0.000E+00  3.06144E+01  1.700E-01  2.000E+01  2.000E+04 -1.284E-01



1
              HEAD IN LAYER   1 AT END OF TIME STEP   1 IN STRESS PERIOD    7
  ---------------------------------------------------------------------------

          1      2      3      4      5      6      7      8      9     10
         11     12     13     14     15     16     17     18     19     20
         21     22     23     24     25     26     27     28     29     30
 .........................................................................
   1  ****** ****** ****** ****** ****** ****** ****** ****** ****** ******
      ****** ****** ****** ****** ****** ****** ****** ****** ****** ******
      ****** ****** ****** ****** ****** ****** ****** ****** ****** ******
   2  ****** ****** ****** ****** ****** ****** ****** ****** ****** ******
      ****** ****** ****** ****** ****** ****** ****** ****** ****** ******
      ****** ****** ****** ****** ****** ****** ****** ****** ****** ******
   3  ****** ****** ****** ****** ****** ****** ****** ****** ****** ******
      ****** ****** ****** ****** ****** ****** ****** ****** ****** ******
      ****** ****** ****** ****** ****** ****** ****** ****** ****** ******
   4  ****** ****** ****** ****** ****** ****** ****** ****** ****** ******
      ****** ****** ****** ****** ****** ****** ****** ****** ****** ******
      ****** ****** ****** ****** ****** ****** ****** ****** ****** ******
   5  ****** ****** ****** ****** ****** ****** ****** ****** ****** ******
      ****** ****** ****** ****** ****** ****** ****** ****** ****** ******
      ****** ****** ****** ****** ****** ****** ****** ****** ****** ******
   6  ****** ****** ****** ****** ****** ****** ****** ****** ****** ******
      ****** ****** ****** ****** ****** ****** ****** ****** ****** ******
      ****** ****** ****** ****** ****** ****** ****** ****** ****** ******
   7  ****** ****** ****** ****** ****** ****** ****** ****** ****** ******
      ****** ****** ****** ****** ****** ****** ****** ****** ****** ******
      ****** ****** ****** ****** ****** ****** ****** ****** ****** ******
   8  ****** ****** ****** ****** ****** ****** ****** ****** ****** ******
      ****** ****** ****** ****** ****** ****** ****** ****** ****** ******
      ****** ****** ****** ****** ****** ****** ****** ****** ****** ******
   9  ****** ****** ****** ****** ****** ****** ****** ****** ****** ******
      ****** ****** ****** ****** ****** ****** ****** ****** ****** ******
      ****** ****** ****** ****** ****** ****** ****** ****** ****** ******
  10  ****** ****** ****** ****** ****** ****** ****** ****** ****** ******
      ****** ****** ****** ****** ****** ****** ****** ****** ****** ******
      ****** ****** ****** ****** ****** ****** ****** ****** ****** ******
  11  ****** ****** ****** ****** ****** ****** ****** ****** ****** ******
      ****** ****** ****** ****** ****** ****** ****** ****** ****** ******
      ****** ****** ****** ****** ****** ****** ****** ****** ****** ******
  12  ****** ****** ****** ****** ****** ****** ****** ****** ****** ******
      ****** ****** ****** ****** ****** ****** ****** ****** ****** ******
      ****** ****** ****** ****** ****** ****** ****** ****** ****** ******
  13  ****** ****** ****** ****** ****** ****** ****** ****** ****** ******
      ****** ****** ****** ****** ****** ****** ****** ****** ****** ******
      ****** ****** ****** ****** ****** ****** ****** ****** ****** ******
  14  ****** ****** ****** ****** ****** ****** ****** ****** ****** ******
      ****** ****** ****** ****** ****** ****** ****** ****** ****** ******
      ****** ****** ****** ****** ****** ****** ****** ****** ****** ******
  15  ****** ****** ****** ****** ****** ****** ****** ****** ****** ******
      ****** ****** ****** ****** ****** ****** ****** ****** ****** ******
      ****** ****** ****** ****** ****** ****** ****** ****** ****** ******
  16  ****** ****** ****** ****** ****** ****** ****** ****** ****** ******
      ****** ****** ****** ****** ****** ****** ****** ****** ****** ******
      ****** ****** ****** ****** ****** ****** ****** ****** ****** ******
  17  ****** ****** ****** ****** ****** ****** ****** ****** ****** ******
      ****** ****** ****** ****** ****** ****** ****** ****** ****** ******
      ****** ****** ****** ****** ****** ****** ****** ****** ****** ******
  18  ****** ****** ****** ****** ****** ****** ****** ****** ****** ******
      ****** ****** ****** ****** ****** ****** ****** ****** ****** ******
      ****** ****** ****** ****** ****** ****** ****** ****** ****** ******
  19  ****** ****** ****** ****** ****** ****** ****** ****** ****** ******
      ****** ****** ****** ****** ****** ****** ****** ****** ****** ******
      ****** ****** ****** ****** ****** ****** ****** ****** ****** ******
  20  ****** ****** ****** ****** ****** ****** ****** ****** ****** ******
      ****** ****** ****** ****** ****** ****** ****** ****** ****** ******
      ****** ****** ****** ****** ****** ****** ****** ****** ****** ******
  21  ****** ****** ****** ****** ****** ****** ****** ****** ****** ******
      ****** ****** ****** ****** ****** ****** ****** ****** ****** ******
      ****** ****** ****** ****** ****** ****** ****** ****** ****** ******
  22  ****** ****** ****** ****** ****** ****** ****** ****** ****** ******
      ****** ****** ****** ****** ****** ****** ****** ****** ****** ******
      ****** ****** ****** ****** ****** ****** ****** ****** ****** ******
  23  ****** ****** ****** ****** ****** ****** ****** ****** ****** ******
      ****** ****** ****** ****** ****** ****** ****** ****** ****** ******
      ****** ****** ****** ****** ****** ****** ****** ****** ****** ******
  24  ****** ****** ****** ****** ****** ****** ****** ****** ****** ******
      ****** ****** ****** ****** ****** ****** ****** ****** ****** ******
      ****** ****** ****** ****** ****** ****** ****** ****** ****** ******
  25  ****** ****** ****** ****** ****** ****** ****** ****** ****** ******
      ****** ****** ****** ****** ****** ****** ****** ****** ****** ******
      ****** ****** ****** ****** ****** ****** ****** ****** ****** ******

 HEAD WILL BE SAVED ON UNIT   51 AT END OF TIME STEP    1, STRESS PERIOD    7
1
  VOLUMETRIC BUDGET FOR ENTIRE MODEL AT END OF TIME STEP    1, STRESS PERIOD   7
  ------------------------------------------------------------------------------

     CUMULATIVE VOLUMES      L**3       RATES FOR THIS TIME STEP      L**3/T
     ------------------                 ------------------------

           IN:                                      IN:
           ---                                      ---
             STORAGE =    35798184.6827               STORAGE =       23685.6613
       CONSTANT HEAD =    18282279.4932         CONSTANT HEAD =       37646.1264
               WELLS =           0.0000                 WELLS =           0.0000
            RECHARGE =    15097200.0000              RECHARGE =           0.0000
      STREAM LEAKAGE =     4269787.1386        STREAM LEAKAGE =        8122.3234

            TOTAL IN =    73447451.3145              TOTAL IN =       69454.1110

          OUT:                                     OUT:
          ----                                     ----
             STORAGE =      660011.5685               STORAGE =           0.0000
       CONSTANT HEAD =           0.0000         CONSTANT HEAD =           0.0000
               WELLS =    20103438.1245                 WELLS =       31460.7795
            RECHARGE =           0.0000              RECHARGE =           0.0000
      STREAM LEAKAGE =    52684004.2418        STREAM LEAKAGE =       37993.3371

           TOTAL OUT =    73447453.9348             TOTAL OUT =       69454.1166

            IN - OUT =          -2.6203              IN - OUT =      -5.6322E-03

 PERCENT DISCREPANCY =          -0.00     PERCENT DISCREPANCY =          -0.00






         TIME SUMMARY AT END OF TIME STEP    1 IN STRESS PERIOD    7
                    SECONDS     MINUTES      HOURS       DAYS        YEARS
                    -----------------------------------------------------------
   TIME STEP LENGTH 7.86240E+06 1.31040E+05  2184.0      91.000     0.24914    
 STRESS PERIOD TIME 7.86240E+06 1.31040E+05  2184.0      91.000     0.24914    
         TOTAL TIME 5.52096E+07 9.20160E+05  15336.      639.00      1.7495    
1
1
                            STRESS PERIOD NO.    8, LENGTH =   91.00000    
                            -----------------------------------------------

                              NUMBER OF TIME STEPS =     1

                               MULTIPLIER FOR DELT =     1.500

                            INITIAL TIME STEP SIZE =   91.00000    

 WELL NO.  LAYER   ROW   COL   STRESS RATE         
 --------------------------------------------------
      1      1     20     21      -6420.    
      2      1     18     16      -7655.    
      3      1     20     18      -5517.    
      4      1      4      9     -0.1187E+05

      4 WELLS

                 RECHARGE =  1.000000E-03

 REUSING STREAM SEGMENT DATA FROM LAST STRESS PERIOD
 
 SOLVING FOR HEAD 


     6 CALLS TO PCG ROUTINE FOR TIME STEP   1 IN STRESS PERIOD    8
    22 TOTAL ITERATIONS

 OUTPUT CONTROL FOR STRESS PERIOD    8   TIME STEP    1
    SAVE BUDGET
    SAVE HEAD FOR ALL LAYERS
    PRINT HEAD FOR ALL LAYERS
 UBDSV2 SAVING "STREAMFLOW OUT  " ON UNIT  50 AT TIME STEP  1, STRESS PERIOD   8



 STREAM LISTING     PERIOD      8   STEP        1

 LAYER ROW COL. STREAM  RCH.  FLOW INTO     FLOW TO   FLOW OUT OF   OVRLND.     DIRECT     STREAM       STREAM     STREAM     STREAM   STREAMBED  STREAMBED
                SEG.NO.  NO.  STRM. RCH.    AQUIFER    STRM. RCH.    RUNOFF     PRECIP       ET          HEAD       DEPTH      WIDTH   CONDCTNC.   GRADIENT

   1   13    1     1     1    1.0000E+05 -1.0954E+03   1.0110E+05  0.000E+00  0.000E+00  0.000E+00  4.84065E+01  1.451E-01  2.000E+01  2.000E+04 -5.477E-02
   1   13    2     1     2    1.0110E+05 -1.9972E+03   1.0309E+05  0.000E+00  0.000E+00  0.000E+00  4.79306E+01  1.465E-01  2.000E+01  2.000E+04 -9.986E-02
   1   14    3     1     3    1.0309E+05 -3.9444E+02   1.0349E+05  0.000E+00  0.000E+00  0.000E+00  4.74543E+01  1.475E-01  2.000E+01  2.000E+04 -1.972E-02
   1   15    4     1     4    1.0349E+05 -3.8082E+02   1.0387E+05  0.000E+00  0.000E+00  0.000E+00  4.69774E+01  1.478E-01  2.000E+01  2.000E+04 -1.904E-02
   1   16    5     1     5    1.0387E+05 -1.4169E+03   1.0528E+05  0.000E+00  0.000E+00  0.000E+00  4.65009E+01  1.486E-01  2.000E+01  2.000E+04 -7.085E-02
   1   16    6     1     6    1.0528E+05 -8.6864E+02   1.0615E+05  0.000E+00  0.000E+00  0.000E+00  4.60246E+01  1.496E-01  2.000E+01  2.000E+04 -4.343E-02
   1   16    7     1     7    1.0615E+05 -8.1769E+02   1.0697E+05  0.000E+00  0.000E+00  0.000E+00  4.55480E+01  1.503E-01  2.000E+01  2.000E+04 -4.088E-02
   1   16    8     1     8    1.0697E+05 -7.6447E+02   1.0774E+05  0.000E+00  0.000E+00  0.000E+00  4.50714E+01  1.509E-01  2.000E+01  2.000E+04 -3.822E-02
   1   16    9     1     9    1.0774E+05 -6.8646E+02   1.0842E+05  0.000E+00  0.000E+00  0.000E+00  4.45947E+01  1.516E-01  2.000E+01  2.000E+04 -3.432E-02
   1   16   10     1    10    1.0842E+05 -5.6996E+02   1.0899E+05  0.000E+00  0.000E+00  0.000E+00  4.41180E+01  1.521E-01  2.000E+01  2.000E+04 -2.850E-02
   1   16   11     1    11    1.0899E+05 -3.8910E+02   1.0938E+05  0.000E+00  0.000E+00  0.000E+00  4.36411E+01  1.525E-01  2.000E+01  2.000E+04 -1.945E-02
   1   16   12     1    12    1.0938E+05 -6.1312E+01   1.0944E+05  0.000E+00  0.000E+00  0.000E+00  4.31640E+01  1.527E-01  2.000E+01  2.000E+04 -3.066E-03
   1   15   13     1    13    1.0944E+05  2.2042E+01   1.0942E+05  0.000E+00  0.000E+00  0.000E+00  4.26868E+01  1.527E-01  2.000E+01  2.000E+04  1.102E-03
   1   14   14     1    14    1.0942E+05 -2.8859E+02   1.0971E+05  0.000E+00  0.000E+00  0.000E+00  4.22096E+01  1.528E-01  2.000E+01  2.000E+04 -1.443E-02
   1   13   15     1    15    1.0971E+05 -7.7990E+02   1.1049E+05  0.000E+00  0.000E+00  0.000E+00  4.17328E+01  1.532E-01  2.000E+01  2.000E+04 -3.900E-02
   1   12   16     1    16    1.1049E+05 -1.7288E+03   1.1222E+05  0.000E+00  0.000E+00  0.000E+00  4.12566E+01  1.543E-01  2.000E+01  2.000E+04 -8.644E-02
   1   12   17     1    17    1.1222E+05 -1.0470E+03   1.1326E+05  0.000E+00  0.000E+00  0.000E+00  4.07804E+01  1.554E-01  2.000E+01  2.000E+04 -5.235E-02
   1   12   18     1    18    1.1326E+05 -1.0522E+03   1.1432E+05  0.000E+00  0.000E+00  0.000E+00  4.03040E+01  1.563E-01  2.000E+01  2.000E+04 -5.261E-02
   1   12   19     1    19    1.1432E+05 -1.7108E+03   1.1603E+05  0.000E+00  0.000E+00  0.000E+00  3.98279E+01  1.574E-01  2.000E+01  2.000E+04 -8.554E-02
   1   13   20     1    20    1.1603E+05 -7.1484E+02   1.1674E+05  0.000E+00  0.000E+00  0.000E+00  3.93516E+01  1.584E-01  2.000E+01  2.000E+04 -3.574E-02
   1   14   21     1    21    1.1674E+05  2.0334E+02   1.1654E+05  0.000E+00  0.000E+00  0.000E+00  3.88746E+01  1.586E-01  2.000E+01  2.000E+04  1.017E-02
   1   14   22     1    22    1.1654E+05  5.1287E+03   1.1141E+05  0.000E+00  0.000E+00  0.000E+00  3.83951E+01  1.565E-01  2.000E+01  2.000E+04  2.564E-01
   1    9   30     2     1    5.0000E+04 -6.4747E+02   5.0647E+04  0.000E+00  0.000E+00  0.000E+00  4.02413E+01  1.163E-01  2.000E+01  2.000E+04 -3.237E-02
   1    9   29     2     2    5.0647E+04 -9.4171E+02   5.1589E+04  0.000E+00  0.000E+00  0.000E+00  3.99924E+01  1.174E-01  2.000E+01  2.000E+04 -4.709E-02
   1    9   28     2     3    5.1589E+04 -1.1837E+03   5.2773E+04  0.000E+00  0.000E+00  0.000E+00  3.97439E+01  1.189E-01  2.000E+01  2.000E+04 -5.919E-02
   1    9   27     2     4    5.2773E+04 -2.3725E+03   5.5145E+04  0.000E+00  0.000E+00  0.000E+00  3.94963E+01  1.213E-01  2.000E+01  2.000E+04 -1.186E-01
   1   10   26     2     5    5.5145E+04 -1.5914E+03   5.6737E+04  0.000E+00  0.000E+00  0.000E+00  3.92489E+01  1.239E-01  2.000E+01  2.000E+04 -7.957E-02
   1   11   25     2     6    5.6737E+04 -1.3889E+03   5.8126E+04  0.000E+00  0.000E+00  0.000E+00  3.90009E+01  1.259E-01  2.000E+01  2.000E+04 -6.945E-02
   1   12   24     2     7    5.8126E+04 -1.4476E+03   5.9573E+04  0.000E+00  0.000E+00  0.000E+00  3.87528E+01  1.278E-01  2.000E+01  2.000E+04 -7.238E-02
   1   13   23     2     8    5.9573E+04 -2.4688E+02   5.9820E+04  0.000E+00  0.000E+00  0.000E+00  3.85039E+01  1.289E-01  2.000E+01  2.000E+04 -1.234E-02
   1   14   22     2     9    5.9820E+04  2.2776E+03   5.7543E+04  0.000E+00  0.000E+00  0.000E+00  3.82525E+01  1.275E-01  2.000E+01  2.000E+04  1.139E-01
   1   14   22     3     1    1.6895E+05 -8.3254E+03   1.7728E+05  0.000E+00  0.000E+00  0.000E+00  3.77224E+01  1.668E-01  2.000E+01  2.000E+04 -4.163E-01
   1   15   23     3     2    1.7728E+05 -1.7730E+02   1.7746E+05  0.000E+00  0.000E+00  0.000E+00  3.68360E+01  1.693E-01  2.000E+01  2.000E+04 -8.865E-03
   1   15   24     3     3    1.7746E+05 -1.7197E+02   1.7763E+05  0.000E+00  0.000E+00  0.000E+00  3.59472E+01  1.694E-01  2.000E+01  2.000E+04 -8.599E-03
   1   15   25     3     4    1.7763E+05 -2.0175E+02   1.7783E+05  0.000E+00  0.000E+00  0.000E+00  3.50584E+01  1.695E-01  2.000E+01  2.000E+04 -1.009E-02
   1   15   26     3     5    1.7783E+05 -2.9207E+02   1.7812E+05  0.000E+00  0.000E+00  0.000E+00  3.41696E+01  1.696E-01  2.000E+01  2.000E+04 -1.460E-02
   1   16   27     3     6    1.7812E+05 -2.8765E+02   1.7841E+05  0.000E+00  0.000E+00  0.000E+00  3.32809E+01  1.698E-01  2.000E+01  2.000E+04 -1.438E-02
   1   17   28     3     7    1.7841E+05 -1.2118E+03   1.7962E+05  0.000E+00  0.000E+00  0.000E+00  3.23925E+01  1.702E-01  2.000E+01  2.000E+04 -6.059E-02
   1   18   29     3     8    1.7962E+05 -2.1089E+03   1.8173E+05  0.000E+00  0.000E+00  0.000E+00  3.15045E+01  1.712E-01  2.000E+01  2.000E+04 -1.054E-01
   1   18   30     3     9    1.8173E+05 -2.7106E+03   1.8444E+05  0.000E+00  0.000E+00  0.000E+00  3.06170E+01  1.725E-01  2.000E+01  2.000E+04 -1.355E-01



1
              HEAD IN LAYER   1 AT END OF TIME STEP   1 IN STRESS PERIOD    8
  ---------------------------------------------------------------------------

          1      2      3      4      5      6      7      8      9     10
         11     12     13     14     15     16     17     18     19     20
         21     22     23     24     25     26     27     28     29     30
 .........................................................................
   1  ****** ****** ****** ****** ****** ****** ****** ****** ****** ******
      ****** ****** ****** ****** ****** ****** ****** ****** ****** ******
      ****** ****** ****** ****** ****** ****** ****** ****** ****** ******
   2  ****** ****** ****** ****** ****** ****** ****** ****** ****** ******
      ****** ****** ****** ****** ****** ****** ****** ****** ****** ******
      ****** ****** ****** ****** ****** ****** ****** ****** ****** ******
   3  ****** ****** ****** ****** ****** ****** ****** ****** ****** ******
      ****** ****** ****** ****** ****** ****** ****** ****** ****** ******
      ****** ****** ****** ****** ****** ****** ****** ****** ****** ******
   4  ****** ****** ****** ****** ****** ****** ****** ****** ****** ******
      ****** ****** ****** ****** ****** ****** ****** ****** ****** ******
      ****** ****** ****** ****** ****** ****** ****** ****** ****** ******
   5  ****** ****** ****** ****** ****** ****** ****** ****** ****** ******
      ****** ****** ****** ****** ****** ****** ****** ****** ****** ******
      ****** ****** ****** ****** ****** ****** ****** ****** ****** ******
   6  ****** ****** ****** ****** ****** ****** ****** ****** ****** ******
      ****** ****** ****** ****** ****** ****** ****** ****** ****** ******
      ****** ****** ****** ****** ****** ****** ****** ****** ****** ******
   7  ****** ****** ****** ****** ****** ****** ****** ****** ****** ******
      ****** ****** ****** ****** ****** ****** ****** ****** ****** ******
      ****** ****** ****** ****** ****** ****** ****** ****** ****** ******
   8  ****** ****** ****** ****** ****** ****** ****** ****** ****** ******
      ****** ****** ****** ****** ****** ****** ****** ****** ****** ******
      ****** ****** ****** ****** ****** ****** ****** ****** ****** ******
   9  ****** ****** ****** ****** ****** ****** ****** ****** ****** ******
      ****** ****** ****** ****** ****** ****** ****** ****** ****** ******
      ****** ****** ****** ****** ****** ****** ****** ****** ****** ******
  10  ****** ****** ****** ****** ****** ****** ****** ****** ****** ******
      ****** ****** ****** ****** ****** ****** ****** ****** ****** ******
      ****** ****** ****** ****** ****** ****** ****** ****** ****** ******
  11  ****** ****** ****** ****** ****** ****** ****** ****** ****** ******
      ****** ****** ****** ****** ****** ****** ****** ****** ****** ******
      ****** ****** ****** ****** ****** ****** ****** ****** ****** ******
  12  ****** ****** ****** ****** ****** ****** ****** ****** ****** ******
      ****** ****** ****** ****** ****** ****** ****** ****** ****** ******
      ****** ****** ****** ****** ****** ****** ****** ****** ****** ******
  13  ****** ****** ****** ****** ****** ****** ****** ****** ****** ******
      ****** ****** ****** ****** ****** ****** ****** ****** ****** ******
      ****** ****** ****** ****** ****** ****** ****** ****** ****** ******
  14  ****** ****** ****** ****** ****** ****** ****** ****** ****** ******
      ****** ****** ****** ****** ****** ****** ****** ****** ****** ******
      ****** ****** ****** ****** ****** ****** ****** ****** ****** ******
  15  ****** ****** ****** ****** ****** ****** ****** ****** ****** ******
      ****** ****** ****** ****** ****** ****** ****** ****** ****** ******
      ****** ****** ****** ****** ****** ****** ****** ****** ****** ******
  16  ****** ****** ****** ****** ****** ****** ****** ****** ****** ******
      ****** ****** ****** ****** ****** ****** ****** ****** ****** ******
      ****** ****** ****** ****** ****** ****** ****** ****** ****** ******
  17  ****** ****** ****** ****** ****** ****** ****** ****** ****** ******
      ****** ****** ****** ****** ****** ****** ****** ****** ****** ******
      ****** ****** ****** ****** ****** ****** ****** ****** ****** ******
  18  ****** ****** ****** ****** ****** ****** ****** ****** ****** ******
      ****** ****** ****** ****** ****** ****** ****** ****** ****** ******
      ****** ****** ****** ****** ****** ****** ****** ****** ****** ******
  19  ****** ****** ****** ****** ****** ****** ****** ****** ****** ******
      ****** ****** ****** ****** ****** ****** ****** ****** ****** ******
      ****** ****** ****** ****** ****** ****** ****** ****** ****** ******
  20  ****** ****** ****** ****** ****** ****** ****** ****** ****** ******
      ****** ****** ****** ****** ****** ****** ****** ****** ****** ******
      ****** ****** ****** ****** ****** ****** ****** ****** ****** ******
  21  ****** ****** ****** ****** ****** ****** ****** ****** ****** ******
      ****** ****** ****** ****** ****** ****** ****** ****** ****** ******
      ****** ****** ****** ****** ****** ****** ****** ****** ****** ******
  22  ****** ****** ****** ****** ****** ****** ****** ****** ****** ******
      ****** ****** ****** ****** ****** ****** ****** ****** ****** ******
      ****** ****** ****** ****** ****** ****** ****** ****** ****** ******
  23  ****** ****** ****** ****** ****** ****** ****** ****** ****** ******
      ****** ****** ****** ****** ****** ****** ****** ****** ****** ******
      ****** ****** ****** ****** ****** ****** ****** ****** ****** ******
  24  ****** ****** ****** ****** ****** ****** ****** ****** ****** ******
      ****** ****** ****** ****** ****** ****** ****** ****** ****** ******
      ****** ****** ****** ****** ****** ****** ****** ****** ****** ******
  25  ****** ****** ****** ****** ****** ****** ****** ****** ****** ******
      ****** ****** ****** ****** ****** ****** ****** ****** ****** ******
      ****** ****** ****** ****** ****** ****** ****** ****** ****** ******

 HEAD WILL BE SAVED ON UNIT   51 AT END OF TIME STEP    1, STRESS PERIOD    8
1
  VOLUMETRIC BUDGET FOR ENTIRE MODEL AT END OF TIME STEP    1, STRESS PERIOD   8
  ------------------------------------------------------------------------------

     CUMULATIVE VOLUMES      L**3       RATES FOR THIS TIME STEP      L**3/T
     ------------------                 ------------------------

           IN:                                      IN:
           ---                                      ---
             STORAGE =    35999231.4528               STORAGE =        2209.3052
       CONSTANT HEAD =    21691517.8849         CONSTANT HEAD =       37464.1582
               WELLS =           0.0000                 WELLS =           0.0000
            RECHARGE =    17608800.0000              RECHARGE =       27600.0000
      STREAM LEAKAGE =     4964271.4019        STREAM LEAKAGE =        7631.6952

            TOTAL IN =    80263820.7396              TOTAL IN =       74905.1585

          OUT:                                     OUT:
          ----                                     ----
             STORAGE =      784876.1155               STORAGE =        1372.1379
       CONSTANT HEAD =           0.0000         CONSTANT HEAD =           0.0000
               WELLS =    22966369.0624                 WELLS =       31460.7795
            RECHARGE =           0.0000              RECHARGE =           0.0000
      STREAM LEAKAGE =    56512577.5342        STREAM LEAKAGE =       42072.2340

           TOTAL OUT =    80263822.7121             TOTAL OUT =       74905.1514

            IN - OUT =          -1.9725              IN - OUT =       7.1187E-03

 PERCENT DISCREPANCY =          -0.00     PERCENT DISCREPANCY =           0.00






         TIME SUMMARY AT END OF TIME STEP    1 IN STRESS PERIOD    8
                    SECONDS     MINUTES      HOURS       DAYS        YEARS
                    -----------------------------------------------------------
   TIME STEP LENGTH 7.86240E+06 1.31040E+05  2184.0      91.000     0.24914    
 STRESS PERIOD TIME 7.86240E+06 1.31040E+05  2184.0      91.000     0.24914    
         TOTAL TIME 6.30720E+07 1.05120E+06  17520.      730.00      1.9986    
1
1
                            STRESS PERIOD NO.    9, LENGTH =   92.00000    
                            -----------------------------------------------

                              NUMBER OF TIME STEPS =     1

                               MULTIPLIER FOR DELT =     1.500

                            INITIAL TIME STEP SIZE =   92.00000    

 WELL NO.  LAYER   ROW   COL   STRESS RATE         
 --------------------------------------------------
      1      1     20     21      -6420.    
      2      1     18     16      -7655.    
      3      1     20     18      -5517.    
      4      1      4      9     -0.1187E+05

      4 WELLS

                 RECHARGE =  5.000000E-04

 REUSING STREAM SEGMENT DATA FROM LAST STRESS PERIOD
 
 SOLVING FOR HEAD 


     6 CALLS TO PCG ROUTINE FOR TIME STEP   1 IN STRESS PERIOD    9
    23 TOTAL ITERATIONS

 OUTPUT CONTROL FOR STRESS PERIOD    9   TIME STEP    1
    SAVE BUDGET
    SAVE HEAD FOR ALL LAYERS
    PRINT HEAD FOR ALL LAYERS
 UBDSV2 SAVING "STREAMFLOW OUT  " ON UNIT  50 AT TIME STEP  1, STRESS PERIOD   9



 STREAM LISTING     PERIOD      9   STEP        1

 LAYER ROW COL. STREAM  RCH.  FLOW INTO     FLOW TO   FLOW OUT OF   OVRLND.     DIRECT     STREAM       STREAM     STREAM     STREAM   STREAMBED  STREAMBED
                SEG.NO.  NO.  STRM. RCH.    AQUIFER    STRM. RCH.    RUNOFF     PRECIP       ET          HEAD       DEPTH      WIDTH   CONDCTNC.   GRADIENT

   1   13    1     1     1    1.0000E+05 -8.6046E+02   1.0086E+05  0.000E+00  0.000E+00  0.000E+00  4.84064E+01  1.450E-01  2.000E+01  2.000E+04 -4.302E-02
   1   13    2     1     2    1.0086E+05 -1.7303E+03   1.0259E+05  0.000E+00  0.000E+00  0.000E+00  4.79302E+01  1.461E-01  2.000E+01  2.000E+04 -8.652E-02
   1   14    3     1     3    1.0259E+05 -3.1998E+02   1.0291E+05  0.000E+00  0.000E+00  0.000E+00  4.74538E+01  1.470E-01  2.000E+01  2.000E+04 -1.600E-02
   1   15    4     1     4    1.0291E+05 -3.0600E+02   1.0322E+05  0.000E+00  0.000E+00  0.000E+00  4.69768E+01  1.473E-01  2.000E+01  2.000E+04 -1.530E-02
   1   16    5     1     5    1.0322E+05 -1.2209E+03   1.0444E+05  0.000E+00  0.000E+00  0.000E+00  4.65002E+01  1.479E-01  2.000E+01  2.000E+04 -6.104E-02
   1   16    6     1     6    1.0444E+05 -7.4526E+02   1.0518E+05  0.000E+00  0.000E+00  0.000E+00  4.60238E+01  1.488E-01  2.000E+01  2.000E+04 -3.726E-02
   1   16    7     1     7    1.0518E+05 -6.9780E+02   1.0588E+05  0.000E+00  0.000E+00  0.000E+00  4.55471E+01  1.494E-01  2.000E+01  2.000E+04 -3.489E-02
   1   16    8     1     8    1.0588E+05 -6.4612E+02   1.0653E+05  0.000E+00  0.000E+00  0.000E+00  4.50704E+01  1.500E-01  2.000E+01  2.000E+04 -3.231E-02
   1   16    9     1     9    1.0653E+05 -5.6993E+02   1.0710E+05  0.000E+00  0.000E+00  0.000E+00  4.45937E+01  1.505E-01  2.000E+01  2.000E+04 -2.850E-02
   1   16   10     1    10    1.0710E+05 -4.5583E+02   1.0755E+05  0.000E+00  0.000E+00  0.000E+00  4.41168E+01  1.509E-01  2.000E+01  2.000E+04 -2.279E-02
   1   16   11     1    11    1.0755E+05 -2.7635E+02   1.0783E+05  0.000E+00  0.000E+00  0.000E+00  4.36399E+01  1.512E-01  2.000E+01  2.000E+04 -1.382E-02
   1   16   12     1    12    1.0783E+05  1.3292E+02   1.0770E+05  0.000E+00  0.000E+00  0.000E+00  4.31627E+01  1.513E-01  2.000E+01  2.000E+04  6.646E-03
   1   15   13     1    13    1.0770E+05  2.4089E+02   1.0746E+05  0.000E+00  0.000E+00  0.000E+00  4.26852E+01  1.511E-01  2.000E+01  2.000E+04  1.204E-02
   1   14   14     1    14    1.0746E+05 -5.3870E+01   1.0751E+05  0.000E+00  0.000E+00  0.000E+00  4.22079E+01  1.511E-01  2.000E+01  2.000E+04 -2.693E-03
   1   13   15     1    15    1.0751E+05 -5.3755E+02   1.0805E+05  0.000E+00  0.000E+00  0.000E+00  4.17308E+01  1.513E-01  2.000E+01  2.000E+04 -2.688E-02
   1   12   16     1    16    1.0805E+05 -1.4752E+03   1.0952E+05  0.000E+00  0.000E+00  0.000E+00  4.12544E+01  1.521E-01  2.000E+01  2.000E+04 -7.376E-02
   1   12   17     1    17    1.0952E+05 -8.7557E+02   1.1040E+05  0.000E+00  0.000E+00  0.000E+00  4.07781E+01  1.531E-01  2.000E+01  2.000E+04 -4.378E-02
   1   12   18     1    18    1.1040E+05 -8.8976E+02   1.1129E+05  0.000E+00  0.000E+00  0.000E+00  4.03016E+01  1.539E-01  2.000E+01  2.000E+04 -4.449E-02
   1   12   19     1    19    1.1129E+05 -1.5160E+03   1.1280E+05  0.000E+00  0.000E+00  0.000E+00  3.98253E+01  1.549E-01  2.000E+01  2.000E+04 -7.580E-02
   1   13   20     1    20    1.1280E+05 -5.3651E+02   1.1334E+05  0.000E+00  0.000E+00  0.000E+00  3.93489E+01  1.557E-01  2.000E+01  2.000E+04 -2.683E-02
   1   14   21     1    21    1.1334E+05  3.7951E+02   1.1296E+05  0.000E+00  0.000E+00  0.000E+00  3.88717E+01  1.558E-01  2.000E+01  2.000E+04  1.898E-02
   1   14   22     1    22    1.1296E+05  5.1662E+03   1.0779E+05  0.000E+00  0.000E+00  0.000E+00  3.83921E+01  1.535E-01  2.000E+01  2.000E+04  2.583E-01
   1    9   30     2     1    5.0000E+04 -5.2300E+02   5.0523E+04  0.000E+00  0.000E+00  0.000E+00  4.02412E+01  1.162E-01  2.000E+01  2.000E+04 -2.615E-02
   1    9   29     2     2    5.0523E+04 -8.1689E+02   5.1340E+04  0.000E+00  0.000E+00  0.000E+00  3.99922E+01  1.172E-01  2.000E+01  2.000E+04 -4.084E-02
   1    9   28     2     3    5.1340E+04 -1.0567E+03   5.2397E+04  0.000E+00  0.000E+00  0.000E+00  3.97434E+01  1.184E-01  2.000E+01  2.000E+04 -5.283E-02
   1    9   27     2     4    5.2397E+04 -2.1923E+03   5.4589E+04  0.000E+00  0.000E+00  0.000E+00  3.94957E+01  1.207E-01  2.000E+01  2.000E+04 -1.096E-01
   1   10   26     2     5    5.4589E+04 -1.4144E+03   5.6003E+04  0.000E+00  0.000E+00  0.000E+00  3.92481E+01  1.231E-01  2.000E+01  2.000E+04 -7.072E-02
   1   11   25     2     6    5.6003E+04 -1.2195E+03   5.7223E+04  0.000E+00  0.000E+00  0.000E+00  3.89998E+01  1.248E-01  2.000E+01  2.000E+04 -6.098E-02
   1   12   24     2     7    5.7223E+04 -1.2915E+03   5.8514E+04  0.000E+00  0.000E+00  0.000E+00  3.87515E+01  1.265E-01  2.000E+01  2.000E+04 -6.457E-02
   1   13   23     2     8    5.8514E+04 -1.9922E+02   5.8713E+04  0.000E+00  0.000E+00  0.000E+00  3.85025E+01  1.275E-01  2.000E+01  2.000E+04 -9.961E-03
   1   14   22     2     9    5.8713E+04  2.3450E+03   5.6369E+04  0.000E+00  0.000E+00  0.000E+00  3.82511E+01  1.261E-01  2.000E+01  2.000E+04  1.172E-01
   1   14   22     3     1    1.6416E+05 -8.2842E+03   1.7245E+05  0.000E+00  0.000E+00  0.000E+00  3.77196E+01  1.640E-01  2.000E+01  2.000E+04 -4.142E-01
   1   15   23     3     2    1.7245E+05 -1.2377E+02   1.7257E+05  0.000E+00  0.000E+00  0.000E+00  3.68332E+01  1.665E-01  2.000E+01  2.000E+04 -6.188E-03
   1   15   24     3     3    1.7257E+05 -1.2841E+02   1.7270E+05  0.000E+00  0.000E+00  0.000E+00  3.59443E+01  1.666E-01  2.000E+01  2.000E+04 -6.420E-03
   1   15   25     3     4    1.7270E+05 -1.5799E+02   1.7286E+05  0.000E+00  0.000E+00  0.000E+00  3.50555E+01  1.666E-01  2.000E+01  2.000E+04 -7.900E-03
   1   15   26     3     5    1.7286E+05 -2.4416E+02   1.7310E+05  0.000E+00  0.000E+00  0.000E+00  3.41668E+01  1.668E-01  2.000E+01  2.000E+04 -1.221E-02
   1   16   27     3     6    1.7310E+05 -2.3107E+02   1.7333E+05  0.000E+00  0.000E+00  0.000E+00  3.32780E+01  1.669E-01  2.000E+01  2.000E+04 -1.155E-02
   1   17   28     3     7    1.7333E+05 -1.0563E+03   1.7439E+05  0.000E+00  0.000E+00  0.000E+00  3.23895E+01  1.673E-01  2.000E+01  2.000E+04 -5.281E-02
   1   18   29     3     8    1.7439E+05 -1.9286E+03   1.7632E+05  0.000E+00  0.000E+00  0.000E+00  3.15015E+01  1.681E-01  2.000E+01  2.000E+04 -9.643E-02
   1   18   30     3     9    1.7632E+05 -2.5757E+03   1.7889E+05  0.000E+00  0.000E+00  0.000E+00  3.06139E+01  1.694E-01  2.000E+01  2.000E+04 -1.288E-01



1
              HEAD IN LAYER   1 AT END OF TIME STEP   1 IN STRESS PERIOD    9
  ---------------------------------------------------------------------------

          1      2      3      4      5      6      7      8      9     10
         11     12     13     14     15     16     17     18     19     20
         21     22     23     24     25     26     27     28     29     30
 .........................................................................
   1  ****** ****** ****** ****** ****** ****** ****** ****** ****** ******
      ****** ****** ****** ****** ****** ****** ****** ****** ****** ******
      ****** ****** ****** ****** ****** ****** ****** ****** ****** ******
   2  ****** ****** ****** ****** ****** ****** ****** ****** ****** ******
      ****** ****** ****** ****** ****** ****** ****** ****** ****** ******
      ****** ****** ****** ****** ****** ****** ****** ****** ****** ******
   3  ****** ****** ****** ****** ****** ****** ****** ****** ****** ******
      ****** ****** ****** ****** ****** ****** ****** ****** ****** ******
      ****** ****** ****** ****** ****** ****** ****** ****** ****** ******
   4  ****** ****** ****** ****** ****** ****** ****** ****** ****** ******
      ****** ****** ****** ****** ****** ****** ****** ****** ****** ******
      ****** ****** ****** ****** ****** ****** ****** ****** ****** ******
   5  ****** ****** ****** ****** ****** ****** ****** ****** ****** ******
      ****** ****** ****** ****** ****** ****** ****** ****** ****** ******
      ****** ****** ****** ****** ****** ****** ****** ****** ****** ******
   6  ****** ****** ****** ****** ****** ****** ****** ****** ****** ******
      ****** ****** ****** ****** ****** ****** ****** ****** ****** ******
      ****** ****** ****** ****** ****** ****** ****** ****** ****** ******
   7  ****** ****** ****** ****** ****** ****** ****** ****** ****** ******
      ****** ****** ****** ****** ****** ****** ****** ****** ****** ******
      ****** ****** ****** ****** ****** ****** ****** ****** ****** ******
   8  ****** ****** ****** ****** ****** ****** ****** ****** ****** ******
      ****** ****** ****** ****** ****** ****** ****** ****** ****** ******
      ****** ****** ****** ****** ****** ****** ****** ****** ****** ******
   9  ****** ****** ****** ****** ****** ****** ****** ****** ****** ******
      ****** ****** ****** ****** ****** ****** ****** ****** ****** ******
      ****** ****** ****** ****** ****** ****** ****** ****** ****** ******
  10  ****** ****** ****** ****** ****** ****** ****** ****** ****** ******
      ****** ****** ****** ****** ****** ****** ****** ****** ****** ******
      ****** ****** ****** ****** ****** ****** ****** ****** ****** ******
  11  ****** ****** ****** ****** ****** ****** ****** ****** ****** ******
      ****** ****** ****** ****** ****** ****** ****** ****** ****** ******
      ****** ****** ****** ****** ****** ****** ****** ****** ****** ******
  12  ****** ****** ****** ****** ****** ****** ****** ****** ****** ******
      ****** ****** ****** ****** ****** ****** ****** ****** ****** ******
      ****** ****** ****** ****** ****** ****** ****** ****** ****** ******
  13  ****** ****** ****** ****** ****** ****** ****** ****** ****** ******
      ****** ****** ****** ****** ****** ****** ****** ****** ****** ******
      ****** ****** ****** ****** ****** ****** ****** ****** ****** ******
  14  ****** ****** ****** ****** ****** ****** ****** ****** ****** ******
      ****** ****** ****** ****** ****** ****** ****** ****** ****** ******
      ****** ****** ****** ****** ****** ****** ****** ****** ****** ******
  15  ****** ****** ****** ****** ****** ****** ****** ****** ****** ******
      ****** ****** ****** ****** ****** ****** ****** ****** ****** ******
      ****** ****** ****** ****** ****** ****** ****** ****** ****** ******
  16  ****** ****** ****** ****** ****** ****** ****** ****** ****** ******
      ****** ****** ****** ****** ****** ****** ****** ****** ****** ******
      ****** ****** ****** ****** ****** ****** ****** ****** ****** ******
  17  ****** ****** ****** ****** ****** ****** ****** ****** ****** ******
      ****** ****** ****** ****** ****** ****** ****** ****** ****** ******
      ****** ****** ****** ****** ****** ****** ****** ****** ****** ******
  18  ****** ****** ****** ****** ****** ****** ****** ****** ****** ******
      ****** ****** ****** ****** ****** ****** ****** ****** ****** ******
      ****** ****** ****** ****** ****** ****** ****** ****** ****** ******
  19  ****** ****** ****** ****** ****** ****** ****** ****** ****** ******
      ****** ****** ****** ****** ****** ****** ****** ****** ****** ******
      ****** ****** ****** ****** ****** ****** ****** ****** ****** ******
  20  ****** ****** ****** ****** ****** ****** ****** ****** ****** ******
      ****** ****** ****** ****** ****** ****** ****** ****** ****** ******
      ****** ****** ****** ****** ****** ****** ****** ****** ****** ******
  21  ****** ****** ****** ****** ****** ****** ****** ****** ****** ******
      ****** ****** ****** ****** ****** ****** ****** ****** ****** ******
      ****** ****** ****** ****** ****** ****** ****** ****** ****** ******
  22  ****** ****** ****** ****** ****** ****** ****** ****** ****** ******
      ****** ****** ****** ****** ****** ****** ****** ****** ****** ******
      ****** ****** ****** ****** ****** ****** ****** ****** ****** ******
  23  ****** ****** ****** ****** ****** ****** ****** ****** ****** ******
      ****** ****** ****** ****** ****** ****** ****** ****** ****** ******
      ****** ****** ****** ****** ****** ****** ****** ****** ****** ******
  24  ****** ****** ****** ****** ****** ****** ****** ****** ****** ******
      ****** ****** ****** ****** ****** ****** ****** ****** ****** ******
      ****** ****** ****** ****** ****** ****** ****** ****** ****** ******
  25  ****** ****** ****** ****** ****** ****** ****** ****** ****** ******
      ****** ****** ****** ****** ****** ****** ****** ****** ****** ******
      ****** ****** ****** ****** ****** ****** ****** ****** ****** ******

 HEAD WILL BE SAVED ON UNIT   51 AT END OF TIME STEP    1, STRESS PERIOD    9
1
  VOLUMETRIC BUDGET FOR ENTIRE MODEL AT END OF TIME STEP    1, STRESS PERIOD   9
  ------------------------------------------------------------------------------

     CUMULATIVE VOLUMES      L**3       RATES FOR THIS TIME STEP      L**3/T
     ------------------                 ------------------------

           IN:                                      IN:
           ---                                      ---
             STORAGE =    36721001.1868               STORAGE =        7845.3232
       CONSTANT HEAD =    25252663.7421         CONSTANT HEAD =       38708.1071
               WELLS =           0.0000                 WELLS =           0.0000
            RECHARGE =    18878400.0000              RECHARGE =       13800.0000
      STREAM LEAKAGE =     5724601.6615        STREAM LEAKAGE =        8264.4593

            TOTAL IN =    86576666.5905              TOTAL IN =       68617.8897

          OUT:                                     OUT:
          ----                                     ----
             STORAGE =      784876.1155               STORAGE =           0.0000
       CONSTANT HEAD =           0.0000         CONSTANT HEAD =           0.0000
               WELLS =    25860760.7798                 WELLS =       31460.7795
            RECHARGE =           0.0000              RECHARGE =           0.0000
      STREAM LEAKAGE =    59931031.7453        STREAM LEAKAGE =       37157.1110

           TOTAL OUT =    86576668.6407             TOTAL OUT =       68617.8905

            IN - OUT =          -2.0502              IN - OUT =      -8.4508E-04

 PERCENT DISCREPANCY =          -0.00     PERCENT DISCREPANCY =          -0.00






         TIME SUMMARY AT END OF TIME STEP    1 IN STRESS PERIOD    9
                    SECONDS     MINUTES      HOURS       DAYS        YEARS
                    -----------------------------------------------------------
   TIME STEP LENGTH 7.94880E+06 1.32480E+05  2208.0      92.000     0.25188    
 STRESS PERIOD TIME 7.94880E+06 1.32480E+05  2208.0      92.000     0.25188    
         TOTAL TIME 7.10208E+07 1.18368E+06  19728.      822.00      2.2505    
1
1
                            STRESS PERIOD NO.   10, LENGTH =   91.00000    
                            -----------------------------------------------

                              NUMBER OF TIME STEPS =     1

                               MULTIPLIER FOR DELT =     1.500

                            INITIAL TIME STEP SIZE =   91.00000    

 WELL NO.  LAYER   ROW   COL   STRESS RATE         
 --------------------------------------------------
      1      1     20     21      -6420.    
      2      1     18     16      -7655.    
      3      1     20     18      -5517.    
      4      1      4      9     -0.1187E+05

      4 WELLS

                 RECHARGE =  2.000000E-03

 REUSING STREAM SEGMENT DATA FROM LAST STRESS PERIOD
 
 SOLVING FOR HEAD 


     7 CALLS TO PCG ROUTINE FOR TIME STEP   1 IN STRESS PERIOD   10
    26 TOTAL ITERATIONS

 OUTPUT CONTROL FOR STRESS PERIOD   10   TIME STEP    1
    SAVE BUDGET
    SAVE HEAD FOR ALL LAYERS
    PRINT HEAD FOR ALL LAYERS
 UBDSV2 SAVING "STREAMFLOW OUT  " ON UNIT  50 AT TIME STEP  1, STRESS PERIOD  10



 STREAM LISTING     PERIOD     10   STEP        1

 LAYER ROW COL. STREAM  RCH.  FLOW INTO     FLOW TO   FLOW OUT OF   OVRLND.     DIRECT     STREAM       STREAM     STREAM     STREAM   STREAMBED  STREAMBED
                SEG.NO.  NO.  STRM. RCH.    AQUIFER    STRM. RCH.    RUNOFF     PRECIP       ET          HEAD       DEPTH      WIDTH   CONDCTNC.   GRADIENT

   1   13    1     1     1    1.0000E+05 -1.2983E+03   1.0130E+05  0.000E+00  0.000E+00  0.000E+00  4.84066E+01  1.452E-01  2.000E+01  2.000E+04 -6.492E-02
   1   13    2     1     2    1.0130E+05 -2.2146E+03   1.0351E+05  0.000E+00  0.000E+00  0.000E+00  4.79308E+01  1.467E-01  2.000E+01  2.000E+04 -1.107E-01
   1   14    3     1     3    1.0351E+05 -5.0385E+02   1.0402E+05  0.000E+00  0.000E+00  0.000E+00  4.74547E+01  1.479E-01  2.000E+01  2.000E+04 -2.519E-02
   1   15    4     1     4    1.0402E+05 -5.0326E+02   1.0452E+05  0.000E+00  0.000E+00  0.000E+00  4.69779E+01  1.483E-01  2.000E+01  2.000E+04 -2.516E-02
   1   16    5     1     5    1.0452E+05 -1.8375E+03   1.0636E+05  0.000E+00  0.000E+00  0.000E+00  4.65016E+01  1.493E-01  2.000E+01  2.000E+04 -9.187E-02
   1   16    6     1     6    1.0636E+05 -1.1051E+03   1.0746E+05  0.000E+00  0.000E+00  0.000E+00  4.60256E+01  1.506E-01  2.000E+01  2.000E+04 -5.526E-02
   1   16    7     1     7    1.0746E+05 -1.0397E+03   1.0850E+05  0.000E+00  0.000E+00  0.000E+00  4.55492E+01  1.515E-01  2.000E+01  2.000E+04 -5.199E-02
   1   16    8     1     8    1.0850E+05 -9.8260E+02   1.0948E+05  0.000E+00  0.000E+00  0.000E+00  4.50728E+01  1.523E-01  2.000E+01  2.000E+04 -4.913E-02
   1   16    9     1     9    1.0948E+05 -9.0507E+02   1.1039E+05  0.000E+00  0.000E+00  0.000E+00  4.45963E+01  1.531E-01  2.000E+01  2.000E+04 -4.525E-02
   1   16   10     1    10    1.1039E+05 -7.9146E+02   1.1118E+05  0.000E+00  0.000E+00  0.000E+00  4.41197E+01  1.538E-01  2.000E+01  2.000E+04 -3.957E-02
   1   16   11     1    11    1.1118E+05 -6.1580E+02   1.1180E+05  0.000E+00  0.000E+00  0.000E+00  4.36430E+01  1.544E-01  2.000E+01  2.000E+04 -3.079E-02
   1   16   12     1    12    1.1180E+05 -4.3283E+02   1.1223E+05  0.000E+00  0.000E+00  0.000E+00  4.31662E+01  1.548E-01  2.000E+01  2.000E+04 -2.164E-02
   1   15   13     1    13    1.1223E+05 -3.3934E+02   1.1257E+05  0.000E+00  0.000E+00  0.000E+00  4.26893E+01  1.552E-01  2.000E+01  2.000E+04 -1.697E-02
   1   14   14     1    14    1.1257E+05 -6.3951E+02   1.1321E+05  0.000E+00  0.000E+00  0.000E+00  4.22124E+01  1.556E-01  2.000E+01  2.000E+04 -3.198E-02
   1   13   15     1    15    1.1321E+05 -1.1118E+03   1.1432E+05  0.000E+00  0.000E+00  0.000E+00  4.17358E+01  1.563E-01  2.000E+01  2.000E+04 -5.559E-02
   1   12   16     1    16    1.1432E+05 -2.0258E+03   1.1635E+05  0.000E+00  0.000E+00  0.000E+00  4.12599E+01  1.576E-01  2.000E+01  2.000E+04 -1.013E-01
   1   12   17     1    17    1.1635E+05 -1.2952E+03   1.1764E+05  0.000E+00  0.000E+00  0.000E+00  4.07839E+01  1.589E-01  2.000E+01  2.000E+04 -6.476E-02
   1   12   18     1    18    1.1764E+05 -1.3063E+03   1.1895E+05  0.000E+00  0.000E+00  0.000E+00  4.03077E+01  1.600E-01  2.000E+01  2.000E+04 -6.531E-02
   1   12   19     1    19    1.1895E+05 -2.0292E+03   1.2098E+05  0.000E+00  0.000E+00  0.000E+00  3.98318E+01  1.613E-01  2.000E+01  2.000E+04 -1.015E-01
   1   13   20     1    20    1.2098E+05 -1.0547E+03   1.2203E+05  0.000E+00  0.000E+00  0.000E+00  3.93558E+01  1.626E-01  2.000E+01  2.000E+04 -5.273E-02
   1   14   21     1    21    1.2203E+05 -1.4275E+02   1.2217E+05  0.000E+00  0.000E+00  0.000E+00  3.88790E+01  1.631E-01  2.000E+01  2.000E+04 -7.137E-03
   1   14   22     1    22    1.2217E+05  5.0421E+03   1.1713E+05  0.000E+00  0.000E+00  0.000E+00  3.83997E+01  1.611E-01  2.000E+01  2.000E+04  2.521E-01
   1    9   30     2     1    5.0000E+04 -9.3638E+02   5.0936E+04  0.000E+00  0.000E+00  0.000E+00  4.02415E+01  1.165E-01  2.000E+01  2.000E+04 -4.682E-02
   1    9   29     2     2    5.0936E+04 -1.2279E+03   5.2164E+04  0.000E+00  0.000E+00  0.000E+00  3.99930E+01  1.180E-01  2.000E+01  2.000E+04 -6.139E-02
   1    9   28     2     3    5.2164E+04 -1.4666E+03   5.3631E+04  0.000E+00  0.000E+00  0.000E+00  3.97448E+01  1.198E-01  2.000E+01  2.000E+04 -7.333E-02
   1    9   27     2     4    5.3631E+04 -2.7427E+03   5.6374E+04  0.000E+00  0.000E+00  0.000E+00  3.94977E+01  1.227E-01  2.000E+01  2.000E+04 -1.371E-01
   1   10   26     2     5    5.6374E+04 -1.9651E+03   5.8339E+04  0.000E+00  0.000E+00  0.000E+00  3.92508E+01  1.258E-01  2.000E+01  2.000E+04 -9.825E-02
   1   11   25     2     6    5.8339E+04 -1.7457E+03   6.0084E+04  0.000E+00  0.000E+00  0.000E+00  3.90032E+01  1.282E-01  2.000E+01  2.000E+04 -8.728E-02
   1   12   24     2     7    6.0084E+04 -1.7674E+03   6.1852E+04  0.000E+00  0.000E+00  0.000E+00  3.87555E+01  1.305E-01  2.000E+01  2.000E+04 -8.837E-02
   1   13   23     2     8    6.1852E+04 -3.4757E+02   6.2199E+04  0.000E+00  0.000E+00  0.000E+00  3.85069E+01  1.319E-01  2.000E+01  2.000E+04 -1.738E-02
   1   14   22     2     9    6.2199E+04  2.1615E+03   6.0038E+04  0.000E+00  0.000E+00  0.000E+00  3.82557E+01  1.307E-01  2.000E+01  2.000E+04  1.081E-01
   1   14   22     3     1    1.7717E+05 -8.4100E+03   1.8558E+05  0.000E+00  0.000E+00  0.000E+00  3.77271E+01  1.716E-01  2.000E+01  2.000E+04 -4.205E-01
   1   15   23     3     2    1.8558E+05 -2.8578E+02   1.8587E+05  0.000E+00  0.000E+00  0.000E+00  3.68407E+01  1.740E-01  2.000E+01  2.000E+04 -1.429E-02
   1   15   24     3     3    1.8587E+05 -2.6528E+02   1.8613E+05  0.000E+00  0.000E+00  0.000E+00  3.59520E+01  1.742E-01  2.000E+01  2.000E+04 -1.326E-02
   1   15   25     3     4    1.8613E+05 -2.9830E+02   1.8643E+05  0.000E+00  0.000E+00  0.000E+00  3.50632E+01  1.743E-01  2.000E+01  2.000E+04 -1.492E-02
   1   15   26     3     5    1.8643E+05 -4.0622E+02   1.8684E+05  0.000E+00  0.000E+00  0.000E+00  3.41745E+01  1.745E-01  2.000E+01  2.000E+04 -2.031E-02
   1   16   27     3     6    1.8684E+05 -4.1660E+02   1.8725E+05  0.000E+00  0.000E+00  0.000E+00  3.32859E+01  1.748E-01  2.000E+01  2.000E+04 -2.083E-02
   1   17   28     3     7    1.8725E+05 -1.5758E+03   1.8883E+05  0.000E+00  0.000E+00  0.000E+00  3.23976E+01  1.753E-01  2.000E+01  2.000E+04 -7.879E-02
   1   18   29     3     8    1.8883E+05 -2.4776E+03   1.9131E+05  0.000E+00  0.000E+00  0.000E+00  3.15098E+01  1.765E-01  2.000E+01  2.000E+04 -1.239E-01
   1   18   30     3     9    1.9131E+05 -2.9997E+03   1.9431E+05  0.000E+00  0.000E+00  0.000E+00  3.06224E+01  1.780E-01  2.000E+01  2.000E+04 -1.500E-01



1
              HEAD IN LAYER   1 AT END OF TIME STEP   1 IN STRESS PERIOD   10
  ---------------------------------------------------------------------------

          1      2      3      4      5      6      7      8      9     10
         11     12     13     14     15     16     17     18     19     20
         21     22     23     24     25     26     27     28     29     30
 .........................................................................
   1  ****** ****** ****** ****** ****** ****** ****** ****** ****** ******
      ****** ****** ****** ****** ****** ****** ****** ****** ****** ******
      ****** ****** ****** ****** ****** ****** ****** ****** ****** ******
   2  ****** ****** ****** ****** ****** ****** ****** ****** ****** ******
      ****** ****** ****** ****** ****** ****** ****** ****** ****** ******
      ****** ****** ****** ****** ****** ****** ****** ****** ****** ******
   3  ****** ****** ****** ****** ****** ****** ****** ****** ****** ******
      ****** ****** ****** ****** ****** ****** ****** ****** ****** ******
      ****** ****** ****** ****** ****** ****** ****** ****** ****** ******
   4  ****** ****** ****** ****** ****** ****** ****** ****** ****** ******
      ****** ****** ****** ****** ****** ****** ****** ****** ****** ******
      ****** ****** ****** ****** ****** ****** ****** ****** ****** ******
   5  ****** ****** ****** ****** ****** ****** ****** ****** ****** ******
      ****** ****** ****** ****** ****** ****** ****** ****** ****** ******
      ****** ****** ****** ****** ****** ****** ****** ****** ****** ******
   6  ****** ****** ****** ****** ****** ****** ****** ****** ****** ******
      ****** ****** ****** ****** ****** ****** ****** ****** ****** ******
      ****** ****** ****** ****** ****** ****** ****** ****** ****** ******
   7  ****** ****** ****** ****** ****** ****** ****** ****** ****** ******
      ****** ****** ****** ****** ****** ****** ****** ****** ****** ******
      ****** ****** ****** ****** ****** ****** ****** ****** ****** ******
   8  ****** ****** ****** ****** ****** ****** ****** ****** ****** ******
      ****** ****** ****** ****** ****** ****** ****** ****** ****** ******
      ****** ****** ****** ****** ****** ****** ****** ****** ****** ******
   9  ****** ****** ****** ****** ****** ****** ****** ****** ****** ******
      ****** ****** ****** ****** ****** ****** ****** ****** ****** ******
      ****** ****** ****** ****** ****** ****** ****** ****** ****** ******
  10  ****** ****** ****** ****** ****** ****** ****** ****** ****** ******
      ****** ****** ****** ****** ****** ****** ****** ****** ****** ******
      ****** ****** ****** ****** ****** ****** ****** ****** ****** ******
  11  ****** ****** ****** ****** ****** ****** ****** ****** ****** ******
      ****** ****** ****** ****** ****** ****** ****** ****** ****** ******
      ****** ****** ****** ****** ****** ****** ****** ****** ****** ******
  12  ****** ****** ****** ****** ****** ****** ****** ****** ****** ******
      ****** ****** ****** ****** ****** ****** ****** ****** ****** ******
      ****** ****** ****** ****** ****** ****** ****** ****** ****** ******
  13  ****** ****** ****** ****** ****** ****** ****** ****** ****** ******
      ****** ****** ****** ****** ****** ****** ****** ****** ****** ******
      ****** ****** ****** ****** ****** ****** ****** ****** ****** ******
  14  ****** ****** ****** ****** ****** ****** ****** ****** ****** ******
      ****** ****** ****** ****** ****** ****** ****** ****** ****** ******
      ****** ****** ****** ****** ****** ****** ****** ****** ****** ******
  15  ****** ****** ****** ****** ****** ****** ****** ****** ****** ******
      ****** ****** ****** ****** ****** ****** ****** ****** ****** ******
      ****** ****** ****** ****** ****** ****** ****** ****** ****** ******
  16  ****** ****** ****** ****** ****** ****** ****** ****** ****** ******
      ****** ****** ****** ****** ****** ****** ****** ****** ****** ******
      ****** ****** ****** ****** ****** ****** ****** ****** ****** ******
  17  ****** ****** ****** ****** ****** ****** ****** ****** ****** ******
      ****** ****** ****** ****** ****** ****** ****** ****** ****** ******
      ****** ****** ****** ****** ****** ****** ****** ****** ****** ******
  18  ****** ****** ****** ****** ****** ****** ****** ****** ****** ******
      ****** ****** ****** ****** ****** ****** ****** ****** ****** ******
      ****** ****** ****** ****** ****** ****** ****** ****** ****** ******
  19  ****** ****** ****** ****** ****** ****** ****** ****** ****** ******
      ****** ****** ****** ****** ****** ****** ****** ****** ****** ******
      ****** ****** ****** ****** ****** ****** ****** ****** ****** ******
  20  ****** ****** ****** ****** ****** ****** ****** ****** ****** ******
      ****** ****** ****** ****** ****** ****** ****** ****** ****** ******
      ****** ****** ****** ****** ****** ****** ****** ****** ****** ******
  21  ****** ****** ****** ****** ****** ****** ****** ****** ****** ******
      ****** ****** ****** ****** ****** ****** ****** ****** ****** ******
      ****** ****** ****** ****** ****** ****** ****** ****** ****** ******
  22  ****** ****** ****** ****** ****** ****** ****** ****** ****** ******
      ****** ****** ****** ****** ****** ****** ****** ****** ****** ******
      ****** ****** ****** ****** ****** ****** ****** ****** ****** ******
  23  ****** ****** ****** ****** ****** ****** ****** ****** ****** ******
      ****** ****** ****** ****** ****** ****** ****** ****** ****** ******
      ****** ****** ****** ****** ****** ****** ****** ****** ****** ******
  24  ****** ****** ****** ****** ****** ****** ****** ****** ****** ******
      ****** ****** ****** ****** ****** ****** ****** ****** ****** ******
      ****** ****** ****** ****** ****** ****** ****** ****** ****** ******
  25  ****** ****** ****** ****** ****** ****** ****** ****** ****** ******
      ****** ****** ****** ****** ****** ****** ****** ****** ****** ******
      ****** ****** ****** ****** ****** ****** ****** ****** ****** ******

 HEAD WILL BE SAVED ON UNIT   51 AT END OF TIME STEP    1, STRESS PERIOD   10
1
  VOLUMETRIC BUDGET FOR ENTIRE MODEL AT END OF TIME STEP    1, STRESS PERIOD  10
  ------------------------------------------------------------------------------

     CUMULATIVE VOLUMES      L**3       RATES FOR THIS TIME STEP      L**3/T
     ------------------                 ------------------------

           IN:                                      IN:
           ---                                      ---
             STORAGE =    36721001.1868               STORAGE =           0.0000
       CONSTANT HEAD =    28511154.0043         CONSTANT HEAD =       35807.5853
               WELLS =           0.0000                 WELLS =           0.0000
            RECHARGE =    23901600.0000              RECHARGE =       55200.0000
      STREAM LEAKAGE =     6380128.4552        STREAM LEAKAGE =        7203.5911

            TOTAL IN =    95513883.6463              TOTAL IN =       98211.1764

          OUT:                                     OUT:
          ----                                     ----
             STORAGE =     2171811.1248               STORAGE =       15241.0441
       CONSTANT HEAD =           0.0000         CONSTANT HEAD =           0.0000
               WELLS =    28723691.7178                 WELLS =       31460.7795
            RECHARGE =           0.0000              RECHARGE =           0.0000
      STREAM LEAKAGE =    64618382.5053        STREAM LEAKAGE =       51509.3490

           TOTAL OUT =    95513885.3478             TOTAL OUT =       98211.1726

            IN - OUT =          -1.7015              IN - OUT =       3.8318E-03

 PERCENT DISCREPANCY =          -0.00     PERCENT DISCREPANCY =           0.00






         TIME SUMMARY AT END OF TIME STEP    1 IN STRESS PERIOD   10
                    SECONDS     MINUTES      HOURS       DAYS        YEARS
                    -----------------------------------------------------------
   TIME STEP LENGTH 7.86240E+06 1.31040E+05  2184.0      91.000     0.24914    
 STRESS PERIOD TIME 7.86240E+06 1.31040E+05  2184.0      91.000     0.24914    
         TOTAL TIME 7.88832E+07 1.31472E+06  21912.      913.00      2.4997    
1
1
                            STRESS PERIOD NO.   11, LENGTH =   91.00000    
                            -----------------------------------------------

                              NUMBER OF TIME STEPS =     1

                               MULTIPLIER FOR DELT =     1.500

                            INITIAL TIME STEP SIZE =   91.00000    

 WELL NO.  LAYER   ROW   COL   STRESS RATE         
 --------------------------------------------------
      1      1     20     21      -6420.    
      2      1     18     16      -7655.    
      3      1     20     18      -5517.    
      4      1      4      9     -0.1187E+05

      4 WELLS

                 RECHARGE =   0.00000    

 REUSING STREAM SEGMENT DATA FROM LAST STRESS PERIOD
 
 SOLVING FOR HEAD 


     7 CALLS TO PCG ROUTINE FOR TIME STEP   1 IN STRESS PERIOD   11
    26 TOTAL ITERATIONS

 OUTPUT CONTROL FOR STRESS PERIOD   11   TIME STEP    1
    SAVE BUDGET
    SAVE HEAD FOR ALL LAYERS
    PRINT HEAD FOR ALL LAYERS
 UBDSV2 SAVING "STREAMFLOW OUT  " ON UNIT  50 AT TIME STEP  1, STRESS PERIOD  11



 STREAM LISTING     PERIOD     11   STEP        1

 LAYER ROW COL. STREAM  RCH.  FLOW INTO     FLOW TO   FLOW OUT OF   OVRLND.     DIRECT     STREAM       STREAM     STREAM     STREAM   STREAMBED  STREAMBED
                SEG.NO.  NO.  STRM. RCH.    AQUIFER    STRM. RCH.    RUNOFF     PRECIP       ET          HEAD       DEPTH      WIDTH   CONDCTNC.   GRADIENT

   1   13    1     1     1    1.0000E+05 -7.2011E+02   1.0072E+05  0.000E+00  0.000E+00  0.000E+00  4.84063E+01  1.450E-01  2.000E+01  2.000E+04 -3.601E-02
   1   13    2     1     2    1.0072E+05 -1.5701E+03   1.0229E+05  0.000E+00  0.000E+00  0.000E+00  4.79300E+01  1.460E-01  2.000E+01  2.000E+04 -7.850E-02
   1   14    3     1     3    1.0229E+05 -2.7101E+02   1.0256E+05  0.000E+00  0.000E+00  0.000E+00  4.74536E+01  1.467E-01  2.000E+01  2.000E+04 -1.355E-02
   1   15    4     1     4    1.0256E+05 -2.5976E+02   1.0282E+05  0.000E+00  0.000E+00  0.000E+00  4.69765E+01  1.470E-01  2.000E+01  2.000E+04 -1.299E-02
   1   16    5     1     5    1.0282E+05 -1.1481E+03   1.0397E+05  0.000E+00  0.000E+00  0.000E+00  4.64999E+01  1.476E-01  2.000E+01  2.000E+04 -5.741E-02
   1   16    6     1     6    1.0397E+05 -6.8919E+02   1.0466E+05  0.000E+00  0.000E+00  0.000E+00  4.60234E+01  1.484E-01  2.000E+01  2.000E+04 -3.446E-02
   1   16    7     1     7    1.0466E+05 -6.4125E+02   1.0530E+05  0.000E+00  0.000E+00  0.000E+00  4.55467E+01  1.489E-01  2.000E+01  2.000E+04 -3.206E-02
   1   16    8     1     8    1.0530E+05 -5.8968E+02   1.0589E+05  0.000E+00  0.000E+00  0.000E+00  4.50699E+01  1.495E-01  2.000E+01  2.000E+04 -2.948E-02
   1   16    9     1     9    1.0589E+05 -5.1454E+02   1.0640E+05  0.000E+00  0.000E+00  0.000E+00  4.45931E+01  1.499E-01  2.000E+01  2.000E+04 -2.573E-02
   1   16   10     1    10    1.0640E+05 -4.0226E+02   1.0681E+05  0.000E+00  0.000E+00  0.000E+00  4.41162E+01  1.503E-01  2.000E+01  2.000E+04 -2.011E-02
   1   16   11     1    11    1.0681E+05 -2.2509E+02   1.0703E+05  0.000E+00  0.000E+00  0.000E+00  4.36392E+01  1.506E-01  2.000E+01  2.000E+04 -1.125E-02
   1   16   12     1    12    1.0703E+05  2.1516E+02   1.0682E+05  0.000E+00  0.000E+00  0.000E+00  4.31619E+01  1.506E-01  2.000E+01  2.000E+04  1.076E-02
   1   15   13     1    13    1.0682E+05  3.5343E+02   1.0646E+05  0.000E+00  0.000E+00  0.000E+00  4.26844E+01  1.503E-01  2.000E+01  2.000E+04  1.767E-02
   1   14   14     1    14    1.0646E+05  7.2321E+01   1.0639E+05  0.000E+00  0.000E+00  0.000E+00  4.22070E+01  1.502E-01  2.000E+01  2.000E+04  3.616E-03
   1   13   15     1    15    1.0639E+05 -4.0461E+02   1.0679E+05  0.000E+00  0.000E+00  0.000E+00  4.17298E+01  1.503E-01  2.000E+01  2.000E+04 -2.023E-02
   1   12   16     1    16    1.0679E+05 -1.3403E+03   1.0814E+05  0.000E+00  0.000E+00  0.000E+00  4.12533E+01  1.510E-01  2.000E+01  2.000E+04 -6.701E-02
   1   12   17     1    17    1.0814E+05 -7.8439E+02   1.0892E+05  0.000E+00  0.000E+00  0.000E+00  4.07769E+01  1.519E-01  2.000E+01  2.000E+04 -3.922E-02
   1   12   18     1    18    1.0892E+05 -8.0387E+02   1.0972E+05  0.000E+00  0.000E+00  0.000E+00  4.03003E+01  1.526E-01  2.000E+01  2.000E+04 -4.019E-02
   1   12   19     1    19    1.0972E+05 -1.4128E+03   1.1114E+05  0.000E+00  0.000E+00  0.000E+00  3.98240E+01  1.535E-01  2.000E+01  2.000E+04 -7.064E-02
   1   13   20     1    20    1.1114E+05 -4.4045E+02   1.1158E+05  0.000E+00  0.000E+00  0.000E+00  3.93475E+01  1.543E-01  2.000E+01  2.000E+04 -2.202E-02
   1   14   21     1    21    1.1158E+05  4.5550E+02   1.1112E+05  0.000E+00  0.000E+00  0.000E+00  3.88702E+01  1.543E-01  2.000E+01  2.000E+04  2.277E-02
   1   14   22     1    22    1.1112E+05  5.1853E+03   1.0594E+05  0.000E+00  0.000E+00  0.000E+00  3.83906E+01  1.519E-01  2.000E+01  2.000E+04  2.593E-01
   1    9   30     2     1    5.0000E+04 -4.4774E+02   5.0448E+04  0.000E+00  0.000E+00  0.000E+00  4.02412E+01  1.162E-01  2.000E+01  2.000E+04 -2.239E-02
   1    9   29     2     2    5.0448E+04 -7.4224E+02   5.1190E+04  0.000E+00  0.000E+00  0.000E+00  3.99920E+01  1.170E-01  2.000E+01  2.000E+04 -3.711E-02
   1    9   28     2     3    5.1190E+04 -9.8301E+02   5.2173E+04  0.000E+00  0.000E+00  0.000E+00  3.97432E+01  1.182E-01  2.000E+01  2.000E+04 -4.915E-02
   1    9   27     2     4    5.2173E+04 -2.1011E+03   5.4274E+04  0.000E+00  0.000E+00  0.000E+00  3.94953E+01  1.203E-01  2.000E+01  2.000E+04 -1.051E-01
   1   10   26     2     5    5.4274E+04 -1.3092E+03   5.5583E+04  0.000E+00  0.000E+00  0.000E+00  3.92476E+01  1.226E-01  2.000E+01  2.000E+04 -6.546E-02
   1   11   25     2     6    5.5583E+04 -1.1137E+03   5.6697E+04  0.000E+00  0.000E+00  0.000E+00  3.89992E+01  1.242E-01  2.000E+01  2.000E+04 -5.568E-02
   1   12   24     2     7    5.6697E+04 -1.1924E+03   5.7889E+04  0.000E+00  0.000E+00  0.000E+00  3.87507E+01  1.257E-01  2.000E+01  2.000E+04 -5.962E-02
   1   13   23     2     8    5.7889E+04 -1.6140E+02   5.8051E+04  0.000E+00  0.000E+00  0.000E+00  3.85016E+01  1.266E-01  2.000E+01  2.000E+04 -8.070E-03
   1   14   22     2     9    5.8051E+04  2.3772E+03   5.5674E+04  0.000E+00  0.000E+00  0.000E+00  3.82502E+01  1.252E-01  2.000E+01  2.000E+04  1.189E-01
   1   14   22     3     1    1.6161E+05 -8.2641E+03   1.6987E+05  0.000E+00  0.000E+00  0.000E+00  3.77181E+01  1.625E-01  2.000E+01  2.000E+04 -4.132E-01
   1   15   23     3     2    1.6987E+05 -9.3458E+01   1.6997E+05  0.000E+00  0.000E+00  0.000E+00  3.68317E+01  1.650E-01  2.000E+01  2.000E+04 -4.673E-03
   1   15   24     3     3    1.6997E+05 -9.9990E+01   1.7007E+05  0.000E+00  0.000E+00  0.000E+00  3.59428E+01  1.650E-01  2.000E+01  2.000E+04 -5.000E-03
   1   15   25     3     4    1.7007E+05 -1.2920E+02   1.7020E+05  0.000E+00  0.000E+00  0.000E+00  3.50540E+01  1.651E-01  2.000E+01  2.000E+04 -6.460E-03
   1   15   26     3     5    1.7020E+05 -2.1044E+02   1.7041E+05  0.000E+00  0.000E+00  0.000E+00  3.41652E+01  1.652E-01  2.000E+01  2.000E+04 -1.052E-02
   1   16   27     3     6    1.7041E+05 -1.9342E+02   1.7060E+05  0.000E+00  0.000E+00  0.000E+00  3.32764E+01  1.653E-01  2.000E+01  2.000E+04 -9.671E-03
   1   17   28     3     7    1.7060E+05 -9.6550E+02   1.7157E+05  0.000E+00  0.000E+00  0.000E+00  3.23879E+01  1.657E-01  2.000E+01  2.000E+04 -4.827E-02
   1   18   29     3     8    1.7157E+05 -1.8544E+03   1.7342E+05  0.000E+00  0.000E+00  0.000E+00  3.14998E+01  1.665E-01  2.000E+01  2.000E+04 -9.272E-02
   1   18   30     3     9    1.7342E+05 -2.5097E+03   1.7593E+05  0.000E+00  0.000E+00  0.000E+00  3.06122E+01  1.677E-01  2.000E+01  2.000E+04 -1.255E-01



1
              HEAD IN LAYER   1 AT END OF TIME STEP   1 IN STRESS PERIOD   11
  ---------------------------------------------------------------------------

          1      2      3      4      5      6      7      8      9     10
         11     12     13     14     15     16     17     18     19     20
         21     22     23     24     25     26     27     28     29     30
 .........................................................................
   1  ****** ****** ****** ****** ****** ****** ****** ****** ****** ******
      ****** ****** ****** ****** ****** ****** ****** ****** ****** ******
      ****** ****** ****** ****** ****** ****** ****** ****** ****** ******
   2  ****** ****** ****** ****** ****** ****** ****** ****** ****** ******
      ****** ****** ****** ****** ****** ****** ****** ****** ****** ******
      ****** ****** ****** ****** ****** ****** ****** ****** ****** ******
   3  ****** ****** ****** ****** ****** ****** ****** ****** ****** ******
      ****** ****** ****** ****** ****** ****** ****** ****** ****** ******
      ****** ****** ****** ****** ****** ****** ****** ****** ****** ******
   4  ****** ****** ****** ****** ****** ****** ****** ****** ****** ******
      ****** ****** ****** ****** ****** ****** ****** ****** ****** ******
      ****** ****** ****** ****** ****** ****** ****** ****** ****** ******
   5  ****** ****** ****** ****** ****** ****** ****** ****** ****** ******
      ****** ****** ****** ****** ****** ****** ****** ****** ****** ******
      ****** ****** ****** ****** ****** ****** ****** ****** ****** ******
   6  ****** ****** ****** ****** ****** ****** ****** ****** ****** ******
      ****** ****** ****** ****** ****** ****** ****** ****** ****** ******
      ****** ****** ****** ****** ****** ****** ****** ****** ****** ******
   7  ****** ****** ****** ****** ****** ****** ****** ****** ****** ******
      ****** ****** ****** ****** ****** ****** ****** ****** ****** ******
      ****** ****** ****** ****** ****** ****** ****** ****** ****** ******
   8  ****** ****** ****** ****** ****** ****** ****** ****** ****** ******
      ****** ****** ****** ****** ****** ****** ****** ****** ****** ******
      ****** ****** ****** ****** ****** ****** ****** ****** ****** ******
   9  ****** ****** ****** ****** ****** ****** ****** ****** ****** ******
      ****** ****** ****** ****** ****** ****** ****** ****** ****** ******
      ****** ****** ****** ****** ****** ****** ****** ****** ****** ******
  10  ****** ****** ****** ****** ****** ****** ****** ****** ****** ******
      ****** ****** ****** ****** ****** ****** ****** ****** ****** ******
      ****** ****** ****** ****** ****** ****** ****** ****** ****** ******
  11  ****** ****** ****** ****** ****** ****** ****** ****** ****** ******
      ****** ****** ****** ****** ****** ****** ****** ****** ****** ******
      ****** ****** ****** ****** ****** ****** ****** ****** ****** ******
  12  ****** ****** ****** ****** ****** ****** ****** ****** ****** ******
      ****** ****** ****** ****** ****** ****** ****** ****** ****** ******
      ****** ****** ****** ****** ****** ****** ****** ****** ****** ******
  13  ****** ****** ****** ****** ****** ****** ****** ****** ****** ******
      ****** ****** ****** ****** ****** ****** ****** ****** ****** ******
      ****** ****** ****** ****** ****** ****** ****** ****** ****** ******
  14  ****** ****** ****** ****** ****** ****** ****** ****** ****** ******
      ****** ****** ****** ****** ****** ****** ****** ****** ****** ******
      ****** ****** ****** ****** ****** ****** ****** ****** ****** ******
  15  ****** ****** ****** ****** ****** ****** ****** ****** ****** ******
      ****** ****** ****** ****** ****** ****** ****** ****** ****** ******
      ****** ****** ****** ****** ****** ****** ****** ****** ****** ******
  16  ****** ****** ****** ****** ****** ****** ****** ****** ****** ******
      ****** ****** ****** ****** ****** ****** ****** ****** ****** ******
      ****** ****** ****** ****** ****** ****** ****** ****** ****** ******
  17  ****** ****** ****** ****** ****** ****** ****** ****** ****** ******
      ****** ****** ****** ****** ****** ****** ****** ****** ****** ******
      ****** ****** ****** ****** ****** ****** ****** ****** ****** ******
  18  ****** ****** ****** ****** ****** ****** ****** ****** ****** ******
      ****** ****** ****** ****** ****** ****** ****** ****** ****** ******
      ****** ****** ****** ****** ****** ****** ****** ****** ****** ******
  19  ****** ****** ****** ****** ****** ****** ****** ****** ****** ******
      ****** ****** ****** ****** ****** ****** ****** ****** ****** ******
      ****** ****** ****** ****** ****** ****** ****** ****** ****** ******
  20  ****** ****** ****** ****** ****** ****** ****** ****** ****** ******
      ****** ****** ****** ****** ****** ****** ****** ****** ****** ******
      ****** ****** ****** ****** ****** ****** ****** ****** ****** ******
  21  ****** ****** ****** ****** ****** ****** ****** ****** ****** ******
      ****** ****** ****** ****** ****** ****** ****** ****** ****** ******
      ****** ****** ****** ****** ****** ****** ****** ****** ****** ******
  22  ****** ****** ****** ****** ****** ****** ****** ****** ****** ******
      ****** ****** ****** ****** ****** ****** ****** ****** ****** ******
      ****** ****** ****** ****** ****** ****** ****** ****** ****** ******
  23  ****** ****** ****** ****** ****** ****** ****** ****** ****** ******
      ****** ****** ****** ****** ****** ****** ****** ****** ****** ******
      ****** ****** ****** ****** ****** ****** ****** ****** ****** ******
  24  ****** ****** ****** ****** ****** ****** ****** ****** ****** ******
      ****** ****** ****** ****** ****** ****** ****** ****** ****** ******
      ****** ****** ****** ****** ****** ****** ****** ****** ****** ******
  25  ****** ****** ****** ****** ****** ****** ****** ****** ****** ******
      ****** ****** ****** ****** ****** ****** ****** ****** ****** ******
      ****** ****** ****** ****** ****** ****** ****** ****** ****** ******

 HEAD WILL BE SAVED ON UNIT   51 AT END OF TIME STEP    1, STRESS PERIOD   11
1
  VOLUMETRIC BUDGET FOR ENTIRE MODEL AT END OF TIME STEP    1, STRESS PERIOD  11
  ------------------------------------------------------------------------------

     CUMULATIVE VOLUMES      L**3       RATES FOR THIS TIME STEP      L**3/T
     ------------------                 ------------------------

           IN:                                      IN:
           ---                                      ---
             STORAGE =    38382686.2502               STORAGE =       18260.2754
       CONSTANT HEAD =    32071988.5713         CONSTANT HEAD =       39130.0502
               WELLS =           0.0000                 WELLS =           0.0000
            RECHARGE =    23901600.0000              RECHARGE =           0.0000
      STREAM LEAKAGE =     7168091.3892        STREAM LEAKAGE =        8658.9333

            TOTAL IN =   101524366.2107              TOTAL IN =       66049.2589

          OUT:                                     OUT:
          ----                                     ----
             STORAGE =     2171811.1248               STORAGE =           0.0000
       CONSTANT HEAD =           0.0000         CONSTANT HEAD =           0.0000
               WELLS =    31586622.6557                 WELLS =       31460.7795
            RECHARGE =           0.0000              RECHARGE =           0.0000
      STREAM LEAKAGE =    67765934.5875        STREAM LEAKAGE =       34588.4844

           TOTAL OUT =   101524368.3680             TOTAL OUT =       66049.2640

            IN - OUT =          -2.1573              IN - OUT =      -5.0082E-03

 PERCENT DISCREPANCY =          -0.00     PERCENT DISCREPANCY =          -0.00






         TIME SUMMARY AT END OF TIME STEP    1 IN STRESS PERIOD   11
                    SECONDS     MINUTES      HOURS       DAYS        YEARS
                    -----------------------------------------------------------
   TIME STEP LENGTH 7.86240E+06 1.31040E+05  2184.0      91.000     0.24914    
 STRESS PERIOD TIME 7.86240E+06 1.31040E+05  2184.0      91.000     0.24914    
         TOTAL TIME 8.67456E+07 1.44576E+06  24096.      1004.0      2.7488    
1
1
                            STRESS PERIOD NO.   12, LENGTH =   91.00000    
                            -----------------------------------------------

                              NUMBER OF TIME STEPS =     1

                               MULTIPLIER FOR DELT =     1.500

                            INITIAL TIME STEP SIZE =   91.00000    

 WELL NO.  LAYER   ROW   COL   STRESS RATE         
 --------------------------------------------------
      1      1     20     21      -6420.    
      2      1     18     16      -7655.    
      3      1     20     18      -5517.    
      4      1      4      9     -0.1187E+05

      4 WELLS

                 RECHARGE =  1.000000E-03

 REUSING STREAM SEGMENT DATA FROM LAST STRESS PERIOD
 
 SOLVING FOR HEAD 


     7 CALLS TO PCG ROUTINE FOR TIME STEP   1 IN STRESS PERIOD   12
    24 TOTAL ITERATIONS

 OUTPUT CONTROL FOR STRESS PERIOD   12   TIME STEP    1
    SAVE BUDGET
    SAVE HEAD FOR ALL LAYERS
    PRINT HEAD FOR ALL LAYERS
 UBDSV2 SAVING "STREAMFLOW OUT  " ON UNIT  50 AT TIME STEP  1, STRESS PERIOD  12



 STREAM LISTING     PERIOD     12   STEP        1

 LAYER ROW COL. STREAM  RCH.  FLOW INTO     FLOW TO   FLOW OUT OF   OVRLND.     DIRECT     STREAM       STREAM     STREAM     STREAM   STREAMBED  STREAMBED
                SEG.NO.  NO.  STRM. RCH.    AQUIFER    STRM. RCH.    RUNOFF     PRECIP       ET          HEAD       DEPTH      WIDTH   CONDCTNC.   GRADIENT

   1   13    1     1     1    1.0000E+05 -8.5678E+02   1.0086E+05  0.000E+00  0.000E+00  0.000E+00  4.84064E+01  1.450E-01  2.000E+01  2.000E+04 -4.284E-02
   1   13    2     1     2    1.0086E+05 -1.7162E+03   1.0257E+05  0.000E+00  0.000E+00  0.000E+00  4.79302E+01  1.461E-01  2.000E+01  2.000E+04 -8.581E-02
   1   14    3     1     3    1.0257E+05 -3.4814E+02   1.0292E+05  0.000E+00  0.000E+00  0.000E+00  4.74538E+01  1.470E-01  2.000E+01  2.000E+04 -1.741E-02
   1   15    4     1     4    1.0292E+05 -3.4095E+02   1.0326E+05  0.000E+00  0.000E+00  0.000E+00  4.69769E+01  1.473E-01  2.000E+01  2.000E+04 -1.705E-02
   1   16    5     1     5    1.0326E+05 -1.3568E+03   1.0462E+05  0.000E+00  0.000E+00  0.000E+00  4.65003E+01  1.480E-01  2.000E+01  2.000E+04 -6.784E-02
   1   16    6     1     6    1.0462E+05 -8.1847E+02   1.0544E+05  0.000E+00  0.000E+00  0.000E+00  4.60240E+01  1.490E-01  2.000E+01  2.000E+04 -4.092E-02
   1   16    7     1     7    1.0544E+05 -7.6536E+02   1.0620E+05  0.000E+00  0.000E+00  0.000E+00  4.55474E+01  1.496E-01  2.000E+01  2.000E+04 -3.827E-02
   1   16    8     1     8    1.0620E+05 -7.1277E+02   1.0692E+05  0.000E+00  0.000E+00  0.000E+00  4.50707E+01  1.503E-01  2.000E+01  2.000E+04 -3.564E-02
   1   16    9     1     9    1.0692E+05 -6.3817E+02   1.0755E+05  0.000E+00  0.000E+00  0.000E+00  4.45940E+01  1.508E-01  2.000E+01  2.000E+04 -3.191E-02
   1   16   10     1    10    1.0755E+05 -5.2742E+02   1.0808E+05  0.000E+00  0.000E+00  0.000E+00  4.41172E+01  1.513E-01  2.000E+01  2.000E+04 -2.637E-02
   1   16   11     1    11    1.0808E+05 -3.5271E+02   1.0843E+05  0.000E+00  0.000E+00  0.000E+00  4.36403E+01  1.517E-01  2.000E+01  2.000E+04 -1.764E-02
   1   16   12     1    12    1.0843E+05  1.5014E+01   1.0842E+05  0.000E+00  0.000E+00  0.000E+00  4.31632E+01  1.518E-01  2.000E+01  2.000E+04  7.507E-04
   1   15   13     1    13    1.0842E+05  1.3946E+02   1.0828E+05  0.000E+00  0.000E+00  0.000E+00  4.26859E+01  1.518E-01  2.000E+01  2.000E+04  6.973E-03
   1   14   14     1    14    1.0828E+05 -1.4125E+02   1.0842E+05  0.000E+00  0.000E+00  0.000E+00  4.22086E+01  1.518E-01  2.000E+01  2.000E+04 -7.062E-03
   1   13   15     1    15    1.0842E+05 -6.1014E+02   1.0903E+05  0.000E+00  0.000E+00  0.000E+00  4.17316E+01  1.521E-01  2.000E+01  2.000E+04 -3.051E-02
   1   12   16     1    16    1.0903E+05 -1.5181E+03   1.1055E+05  0.000E+00  0.000E+00  0.000E+00  4.12553E+01  1.530E-01  2.000E+01  2.000E+04 -7.590E-02
   1   12   17     1    17    1.1055E+05 -9.3501E+02   1.1148E+05  0.000E+00  0.000E+00  0.000E+00  4.07790E+01  1.540E-01  2.000E+01  2.000E+04 -4.675E-02
   1   12   18     1    18    1.1148E+05 -9.5717E+02   1.1244E+05  0.000E+00  0.000E+00  0.000E+00  4.03025E+01  1.548E-01  2.000E+01  2.000E+04 -4.786E-02
   1   12   19     1    19    1.1244E+05 -1.6026E+03   1.1404E+05  0.000E+00  0.000E+00  0.000E+00  3.98263E+01  1.559E-01  2.000E+01  2.000E+04 -8.013E-02
   1   13   20     1    20    1.1404E+05 -6.4948E+02   1.1469E+05  0.000E+00  0.000E+00  0.000E+00  3.93500E+01  1.568E-01  2.000E+01  2.000E+04 -3.247E-02
   1   14   21     1    21    1.1469E+05  2.6239E+02   1.1443E+05  0.000E+00  0.000E+00  0.000E+00  3.88729E+01  1.569E-01  2.000E+01  2.000E+04  1.312E-02
   1   14   22     1    22    1.1443E+05  5.1334E+03   1.0930E+05  0.000E+00  0.000E+00  0.000E+00  3.83934E+01  1.547E-01  2.000E+01  2.000E+04  2.567E-01
   1    9   30     2     1    5.0000E+04 -6.2371E+02   5.0624E+04  0.000E+00  0.000E+00  0.000E+00  4.02413E+01  1.163E-01  2.000E+01  2.000E+04 -3.119E-02
   1    9   29     2     2    5.0624E+04 -9.1612E+02   5.1540E+04  0.000E+00  0.000E+00  0.000E+00  3.99924E+01  1.174E-01  2.000E+01  2.000E+04 -4.581E-02
   1    9   28     2     3    5.1540E+04 -1.1533E+03   5.2693E+04  0.000E+00  0.000E+00  0.000E+00  3.97438E+01  1.188E-01  2.000E+01  2.000E+04 -5.766E-02
   1    9   27     2     4    5.2693E+04 -2.3089E+03   5.5002E+04  0.000E+00  0.000E+00  0.000E+00  3.94961E+01  1.211E-01  2.000E+01  2.000E+04 -1.154E-01
   1   10   26     2     5    5.5002E+04 -1.5379E+03   5.6540E+04  0.000E+00  0.000E+00  0.000E+00  3.92487E+01  1.237E-01  2.000E+01  2.000E+04 -7.689E-02
   1   11   25     2     6    5.6540E+04 -1.3384E+03   5.7878E+04  0.000E+00  0.000E+00  0.000E+00  3.90006E+01  1.256E-01  2.000E+01  2.000E+04 -6.692E-02
   1   12   24     2     7    5.7878E+04 -1.3974E+03   5.9276E+04  0.000E+00  0.000E+00  0.000E+00  3.87524E+01  1.274E-01  2.000E+01  2.000E+04 -6.987E-02
   1   13   23     2     8    5.9276E+04 -2.3886E+02   5.9515E+04  0.000E+00  0.000E+00  0.000E+00  3.85035E+01  1.285E-01  2.000E+01  2.000E+04 -1.194E-02
   1   14   22     2     9    5.9515E+04  2.3089E+03   5.7206E+04  0.000E+00  0.000E+00  0.000E+00  3.82521E+01  1.271E-01  2.000E+01  2.000E+04  1.154E-01
   1   14   22     3     1    1.6650E+05 -8.3142E+03   1.7482E+05  0.000E+00  0.000E+00  0.000E+00  3.77210E+01  1.654E-01  2.000E+01  2.000E+04 -4.157E-01
   1   15   23     3     2    1.7482E+05 -1.6533E+02   1.7498E+05  0.000E+00  0.000E+00  0.000E+00  3.68345E+01  1.679E-01  2.000E+01  2.000E+04 -8.267E-03
   1   15   24     3     3    1.7498E+05 -1.6499E+02   1.7515E+05  0.000E+00  0.000E+00  0.000E+00  3.59457E+01  1.680E-01  2.000E+01  2.000E+04 -8.249E-03
   1   15   25     3     4    1.7515E+05 -1.9548E+02   1.7534E+05  0.000E+00  0.000E+00  0.000E+00  3.50570E+01  1.681E-01  2.000E+01  2.000E+04 -9.774E-03
   1   15   26     3     5    1.7534E+05 -2.8787E+02   1.7563E+05  0.000E+00  0.000E+00  0.000E+00  3.41682E+01  1.682E-01  2.000E+01  2.000E+04 -1.439E-02
   1   16   27     3     6    1.7563E+05 -2.8011E+02   1.7591E+05  0.000E+00  0.000E+00  0.000E+00  3.32795E+01  1.684E-01  2.000E+01  2.000E+04 -1.401E-02
   1   17   28     3     7    1.7591E+05 -1.1859E+03   1.7710E+05  0.000E+00  0.000E+00  0.000E+00  3.23910E+01  1.688E-01  2.000E+01  2.000E+04 -5.929E-02
   1   18   29     3     8    1.7710E+05 -2.0544E+03   1.7915E+05  0.000E+00  0.000E+00  0.000E+00  3.15031E+01  1.697E-01  2.000E+01  2.000E+04 -1.027E-01
   1   18   30     3     9    1.7915E+05 -2.6774E+03   1.8183E+05  0.000E+00  0.000E+00  0.000E+00  3.06155E+01  1.711E-01  2.000E+01  2.000E+04 -1.339E-01



1
              HEAD IN LAYER   1 AT END OF TIME STEP   1 IN STRESS PERIOD   12
  ---------------------------------------------------------------------------

          1      2      3      4      5      6      7      8      9     10
         11     12     13     14     15     16     17     18     19     20
         21     22     23     24     25     26     27     28     29     30
 .........................................................................
   1  ****** ****** ****** ****** ****** ****** ****** ****** ****** ******
      ****** ****** ****** ****** ****** ****** ****** ****** ****** ******
      ****** ****** ****** ****** ****** ****** ****** ****** ****** ******
   2  ****** ****** ****** ****** ****** ****** ****** ****** ****** ******
      ****** ****** ****** ****** ****** ****** ****** ****** ****** ******
      ****** ****** ****** ****** ****** ****** ****** ****** ****** ******
   3  ****** ****** ****** ****** ****** ****** ****** ****** ****** ******
      ****** ****** ****** ****** ****** ****** ****** ****** ****** ******
      ****** ****** ****** ****** ****** ****** ****** ****** ****** ******
   4  ****** ****** ****** ****** ****** ****** ****** ****** ****** ******
      ****** ****** ****** ****** ****** ****** ****** ****** ****** ******
      ****** ****** ****** ****** ****** ****** ****** ****** ****** ******
   5  ****** ****** ****** ****** ****** ****** ****** ****** ****** ******
      ****** ****** ****** ****** ****** ****** ****** ****** ****** ******
      ****** ****** ****** ****** ****** ****** ****** ****** ****** ******
   6  ****** ****** ****** ****** ****** ****** ****** ****** ****** ******
      ****** ****** ****** ****** ****** ****** ****** ****** ****** ******
      ****** ****** ****** ****** ****** ****** ****** ****** ****** ******
   7  ****** ****** ****** ****** ****** ****** ****** ****** ****** ******
      ****** ****** ****** ****** ****** ****** ****** ****** ****** ******
      ****** ****** ****** ****** ****** ****** ****** ****** ****** ******
   8  ****** ****** ****** ****** ****** ****** ****** ****** ****** ******
      ****** ****** ****** ****** ****** ****** ****** ****** ****** ******
      ****** ****** ****** ****** ****** ****** ****** ****** ****** ******
   9  ****** ****** ****** ****** ****** ****** ****** ****** ****** ******
      ****** ****** ****** ****** ****** ****** ****** ****** ****** ******
      ****** ****** ****** ****** ****** ****** ****** ****** ****** ******
  10  ****** ****** ****** ****** ****** ****** ****** ****** ****** ******
      ****** ****** ****** ****** ****** ****** ****** ****** ****** ******
      ****** ****** ****** ****** ****** ****** ****** ****** ****** ******
  11  ****** ****** ****** ****** ****** ****** ****** ****** ****** ******
      ****** ****** ****** ****** ****** ****** ****** ****** ****** ******
      ****** ****** ****** ****** ****** ****** ****** ****** ****** ******
  12  ****** ****** ****** ****** ****** ****** ****** ****** ****** ******
      ****** ****** ****** ****** ****** ****** ****** ****** ****** ******
      ****** ****** ****** ****** ****** ****** ****** ****** ****** ******
  13  ****** ****** ****** ****** ****** ****** ****** ****** ****** ******
      ****** ****** ****** ****** ****** ****** ****** ****** ****** ******
      ****** ****** ****** ****** ****** ****** ****** ****** ****** ******
  14  ****** ****** ****** ****** ****** ****** ****** ****** ****** ******
      ****** ****** ****** ****** ****** ****** ****** ****** ****** ******
      ****** ****** ****** ****** ****** ****** ****** ****** ****** ******
  15  ****** ****** ****** ****** ****** ****** ****** ****** ****** ******
      ****** ****** ****** ****** ****** ****** ****** ****** ****** ******
      ****** ****** ****** ****** ****** ****** ****** ****** ****** ******
  16  ****** ****** ****** ****** ****** ****** ****** ****** ****** ******
      ****** ****** ****** ****** ****** ****** ****** ****** ****** ******
      ****** ****** ****** ****** ****** ****** ****** ****** ****** ******
  17  ****** ****** ****** ****** ****** ****** ****** ****** ****** ******
      ****** ****** ****** ****** ****** ****** ****** ****** ****** ******
      ****** ****** ****** ****** ****** ****** ****** ****** ****** ******
  18  ****** ****** ****** ****** ****** ****** ****** ****** ****** ******
      ****** ****** ****** ****** ****** ****** ****** ****** ****** ******
      ****** ****** ****** ****** ****** ****** ****** ****** ****** ******
  19  ****** ****** ****** ****** ****** ****** ****** ****** ****** ******
      ****** ****** ****** ****** ****** ****** ****** ****** ****** ******
      ****** ****** ****** ****** ****** ****** ****** ****** ****** ******
  20  ****** ****** ****** ****** ****** ****** ****** ****** ****** ******
      ****** ****** ****** ****** ****** ****** ****** ****** ****** ******
      ****** ****** ****** ****** ****** ****** ****** ****** ****** ******
  21  ****** ****** ****** ****** ****** ****** ****** ****** ****** ******
      ****** ****** ****** ****** ****** ****** ****** ****** ****** ******
      ****** ****** ****** ****** ****** ****** ****** ****** ****** ******
  22  ****** ****** ****** ****** ****** ****** ****** ****** ****** ******
      ****** ****** ****** ****** ****** ****** ****** ****** ****** ******
      ****** ****** ****** ****** ****** ****** ****** ****** ****** ******
  23  ****** ****** ****** ****** ****** ****** ****** ****** ****** ******
      ****** ****** ****** ****** ****** ****** ****** ****** ****** ******
      ****** ****** ****** ****** ****** ****** ****** ****** ****** ******
  24  ****** ****** ****** ****** ****** ****** ****** ****** ****** ******
      ****** ****** ****** ****** ****** ****** ****** ****** ****** ******
      ****** ****** ****** ****** ****** ****** ****** ****** ****** ******
  25  ****** ****** ****** ****** ****** ****** ****** ****** ****** ******
      ****** ****** ****** ****** ****** ****** ****** ****** ****** ******
      ****** ****** ****** ****** ****** ****** ****** ****** ****** ******

 HEAD WILL BE SAVED ON UNIT   51 AT END OF TIME STEP    1, STRESS PERIOD   12
1
  VOLUMETRIC BUDGET FOR ENTIRE MODEL AT END OF TIME STEP    1, STRESS PERIOD  12
  ------------------------------------------------------------------------------

     CUMULATIVE VOLUMES      L**3       RATES FOR THIS TIME STEP      L**3/T
     ------------------                 ------------------------

           IN:                                      IN:
           ---                                      ---
             STORAGE =    38390275.6174               STORAGE =          83.3996
       CONSTANT HEAD =    35571834.6713         CONSTANT HEAD =       38459.8473
               WELLS =           0.0000                 WELLS =           0.0000
            RECHARGE =    26413200.0000              RECHARGE =       27600.0000
      STREAM LEAKAGE =     7883274.4694        STREAM LEAKAGE =        7859.1547

            TOTAL IN =   108258584.7580              TOTAL IN =       74002.4016

          OUT:                                     OUT:
          ----                                     ----
             STORAGE =     2431509.8560               STORAGE =        2853.8322
       CONSTANT HEAD =           0.0000         CONSTANT HEAD =           0.0000
               WELLS =    34449553.5936                 WELLS =       31460.7795
            RECHARGE =           0.0000              RECHARGE =           0.0000
      STREAM LEAKAGE =    71377523.3824        STREAM LEAKAGE =       39687.7890

           TOTAL OUT =   108258586.8320             TOTAL OUT =       74002.4007

            IN - OUT =          -2.0739              IN - OUT =       9.1580E-04

 PERCENT DISCREPANCY =          -0.00     PERCENT DISCREPANCY =           0.00






         TIME SUMMARY AT END OF TIME STEP    1 IN STRESS PERIOD   12
                    SECONDS     MINUTES      HOURS       DAYS        YEARS
                    -----------------------------------------------------------
   TIME STEP LENGTH 7.86240E+06 1.31040E+05  2184.0      91.000     0.24914    
 STRESS PERIOD TIME 7.86240E+06 1.31040E+05  2184.0      91.000     0.24914    
         TOTAL TIME 9.46080E+07 1.57680E+06  26280.      1095.0      2.9979    
1

 Run end date and time (yyyy/mm/dd hh:mm:ss): 2019/08/27 21:01:18
 Elapsed run time:  0.046 Seconds

