                                  MODFLOW-2005     
      U.S. GEOLOGICAL SURVEY MODULAR FINITE-DIFFERENCE GROUND-WATER FLOW MODEL
                            VERSION 1.11.00 8/8/2013

 LIST FILE: supply2.lst
                         UNIT   10

 OPENING ..\data\supply.dis
 FILE TYPE:DIS   UNIT   11   STATUS:OLD    
 FORMAT:FORMATTED              ACCESS:SEQUENTIAL          

 OPENING ..\data\supply.ba6
 FILE TYPE:BAS6   UNIT   12   STATUS:OLD    
 FORMAT:FORMATTED              ACCESS:SEQUENTIAL          

 OPENING ..\data\supply_het.bc6
 FILE TYPE:BCF6   UNIT   13   STATUS:OLD    
 FORMAT:FORMATTED              ACCESS:SEQUENTIAL          

 OPENING ..\data\supply.rch
 FILE TYPE:RCH   UNIT   15   STATUS:OLD    
 FORMAT:FORMATTED              ACCESS:SEQUENTIAL          

 OPENING ..\data\supply2.sfr
 FILE TYPE:SFR   UNIT   16   STATUS:OLD    
 FORMAT:FORMATTED              ACCESS:SEQUENTIAL          

 OPENING ..\data\supply.oc
 FILE TYPE:OC   UNIT   17   STATUS:OLD    
 FORMAT:FORMATTED              ACCESS:SEQUENTIAL          

 OPENING ..\data\supply.pcg
 FILE TYPE:PCG   UNIT   18   STATUS:OLD    
 FORMAT:FORMATTED              ACCESS:SEQUENTIAL          

 OPENING supply2.wel
 FILE TYPE:WEL   UNIT   19   STATUS:OLD    
 FORMAT:FORMATTED              ACCESS:SEQUENTIAL          

 OPENING supply2sf.cbc
 FILE TYPE:DATA(BINARY)   UNIT   50   STATUS:UNKNOWN
 FORMAT:BINARY                 ACCESS:SEQUENTIAL          

 OPENING supply2hd.bhd
 FILE TYPE:DATA(BINARY)   UNIT   51   STATUS:UNKNOWN
 FORMAT:BINARY                 ACCESS:SEQUENTIAL          

 BAS -- BASIC PACKAGE, VERSION 7, 5/2/2005 INPUT READ FROM UNIT   12
 
 MODFLOW was compiled using uniform precision
 Precision of REAL and DOUBLE PRECISION variables:          15

 DISCRETIZATION INPUT DATA READ FROM UNIT   11
    1 LAYERS        25 ROWS        30 COLUMNS
   12 STRESS PERIOD(S) IN SIMULATION
 MODEL TIME UNIT IS DAYS
 MODEL LENGTH UNIT IS UNDEFINED
  Confining bed flag for each layer:
   0

                     DELR =   200.000    

                     DELC =   200.000    

 TOP ELEVATION OF LAYER 1 =  100.0000    

   MODEL LAYER BOTTOM EL. =   0.00000     FOR LAYER   1


 STRESS PERIOD     LENGTH       TIME STEPS     MULTIPLIER FOR DELT    SS FLAG
 ----------------------------------------------------------------------------
        1         92.00000          1                    1.500         TR
        2         91.00000          1                    1.500         TR
        3         91.00000          1                    1.500         TR
        4         91.00000          1                    1.500         TR
        5         92.00000          1                    1.500         TR
        6         91.00000          1                    1.500         TR
        7         91.00000          1                    1.500         TR
        8         91.00000          1                    1.500         TR
        9         92.00000          1                    1.500         TR
       10         91.00000          1                    1.500         TR
       11         91.00000          1                    1.500         TR
       12         91.00000          1                    1.500         TR

 TRANSIENT SIMULATION



 
 #MODOFC transient water supply sample problem                                   
 #                                                                               
 THE FREE FORMAT OPTION HAS BEEN SELECTED



                     BOUNDARY ARRAY FOR LAYER   1
 READING ON UNIT   12 WITH FORMAT: (20I4)              

 AQUIFER HEAD WILL BE SET TO   0.0000     AT ALL NO-FLOW NODES (IBOUND=0).



                       INITIAL HEAD FOR LAYER   1
 READING ON UNIT   12 WITH FORMAT: (10F13.0)           

 OUTPUT CONTROL IS SPECIFIED ONLY AT TIME STEPS FOR WHICH OUTPUT IS DESIRED
 COMPACT CELL-BY-CELL BUDGET FILES WILL BE WRITTEN
 HEAD PRINT FORMAT CODE IS  18    DRAWDOWN PRINT FORMAT CODE IS   0
 HEADS WILL BE SAVED ON UNIT   51    DRAWDOWNS WILL BE SAVED ON UNIT    0

 BCF -- BLOCK-CENTERED FLOW PACKAGE, VERSION 7, 5/2/2005
         INPUT READ FROM UNIT 13
 TRANSIENT SIMULATION
 HEAD AT CELLS THAT CONVERT TO DRY=   0.0000    
 WETTING CAPABILITY IS NOT ACTIVE
      LAYER  LAYER-TYPE CODE     INTERBLOCK T
      --------------------------------------------
         1            0          0 -- HARMONIC    

 COLUMN TO ROW ANISOTROPY =  1.000000    

     PRIMARY STORAGE COEF =  5.000000E-02 FOR LAYER   1



               TRANSMIS. ALONG ROWS FOR LAYER   1
 READING ON UNIT   13 WITH FORMAT: (FREE)              

 WEL -- WELL PACKAGE, VERSION 7, 5/2/2005 INPUT READ FROM UNIT   19
 # Well package input file written by MMProc
 No named parameters
 MAXIMUM OF      8 ACTIVE WELLS AT ONE TIME


     0 Well parameters

 RCH -- RECHARGE PACKAGE, VERSION 7, 5/2/2005 INPUT READ FROM UNIT   15
 No named parameters
 OPTION 1 -- RECHARGE TO TOP LAYER


     0 Recharge parameters

 SFR7 -- STREAMFLOW ROUTING PACKAGE, VERSION 1.0.7, 2013-01-15
         INPUT READ FROM UNIT  16
 #  Supply2 test problem for GWM-VI
 #  The eighth entry in the first data line is ISTCB2 -
 #    Setting this to a negative number indicates that
 #    streamflows out of the reach will be saved to a
 #    binary file.  The absolute value of ISTCB2 is the
 #    unit to which unformatted flows will be written.
 #
 No named parameters
 Segment information will not be 
 read by reach
 No named parameters
 No specifed inflow files


 NUMBER OF STREAM REACHES IS   40

 NUMBER OF STREAM SEGMENTS IS    3

 NUMBER OF STREAM PARAMETERS IS    0

 NUMBER OF STREAM SEGMENTS DEFINED USING PARAMETERS IS              0

 MAXIMUM ERROR FOR STREAM LEAKAGE RATES IS  1.00E-04

 CONSTANT FOR MANNINGS EQUATION IS  1.2839E+05





   STREAM NETWORK DESCRIPTION: 

   LAYER    ROW    COL   SEGMENT   REACH     LENGTH
                          NUMBER   NUMBER    IN CELL        
   --------------------------------------------------
      1     13      1       1        1    2.0000E+02
      1     13      2       1        2    2.0000E+02
      1     14      3       1        3    2.0000E+02
      1     15      4       1        4    2.0000E+02
      1     16      5       1        5    2.0000E+02
      1     16      6       1        6    2.0000E+02
      1     16      7       1        7    2.0000E+02
      1     16      8       1        8    2.0000E+02
      1     16      9       1        9    2.0000E+02
      1     16     10       1       10    2.0000E+02
      1     16     11       1       11    2.0000E+02
      1     16     12       1       12    2.0000E+02
      1     15     13       1       13    2.0000E+02
      1     14     14       1       14    2.0000E+02
      1     13     15       1       15    2.0000E+02
      1     12     16       1       16    2.0000E+02
      1     12     17       1       17    2.0000E+02
      1     12     18       1       18    2.0000E+02
      1     12     19       1       19    2.0000E+02
      1     13     20       1       20    2.0000E+02
      1     14     21       1       21    2.0000E+02
      1     14     22       1       22    2.0000E+02
      1      9     30       2        1    2.0000E+02
      1      9     29       2        2    2.0000E+02
      1      9     28       2        3    2.0000E+02
      1      9     27       2        4    2.0000E+02
      1     10     26       2        5    2.0000E+02
      1     11     25       2        6    2.0000E+02
      1     12     24       2        7    2.0000E+02
      1     13     23       2        8    2.0000E+02
      1     14     22       2        9    2.0000E+02
      1     14     22       3        1    2.0000E+02
      1     15     23       3        2    2.0000E+02
      1     15     24       3        3    2.0000E+02
      1     15     25       3        4    2.0000E+02
      1     15     26       3        5    2.0000E+02
      1     16     27       3        6    2.0000E+02
      1     17     28       3        7    2.0000E+02
      1     18     29       3        8    2.0000E+02
      1     18     30       3        9    2.0000E+02




 PCG -- CONJUGATE-GRADIENT SOLUTION PACKAGE, VERSION 7, 5/2/2005
 MAXIMUM OF    500 CALLS OF SOLUTION ROUTINE
 MAXIMUM OF      5 INTERNAL ITERATIONS PER CALL TO SOLUTION ROUTINE
 MATRIX PRECONDITIONING TYPE :    1



                                    SOLUTION BY THE CONJUGATE-GRADIENT METHOD
                                   -------------------------------------------
                    MAXIMUM NUMBER OF CALLS TO PCG ROUTINE =      500
                        MAXIMUM ITERATIONS PER CALL TO PCG =        5
                               MATRIX PRECONDITIONING TYPE =        1
        RELAXATION FACTOR (ONLY USED WITH PRECOND. TYPE 1) =    0.10000E+01
 PARAMETER OF POLYNOMIAL PRECOND. = 2 (2) OR IS CALCULATED :        0
                         HEAD CHANGE CRITERION FOR CLOSURE =    0.10000E-05
                     RESIDUAL CHANGE CRITERION FOR CLOSURE =    0.10000E+01
            PCG HEAD AND RESIDUAL CHANGE PRINTOUT INTERVAL =        1
     PRINTING FROM SOLVER IS LIMITED(1) OR SUPPRESSED (>1) =        1
                            STEADY-STATE DAMPING PARAMETER =    0.10000E+01
                               TRANSIENT DAMPING PARAMETER =    0.10000E+01
1
                            STRESS PERIOD NO.    1, LENGTH =   92.00000    
                            -----------------------------------------------

                              NUMBER OF TIME STEPS =     1

                               MULTIPLIER FOR DELT =     1.500

                            INITIAL TIME STEP SIZE =   92.00000    

 WELL NO.  LAYER   ROW   COL   STRESS RATE         
 --------------------------------------------------
      1      1     14      6       0.000    
      2      1      3      9       0.000    
      3      1     20     10       0.000    
      4      1     14     20       0.000    
      5      1      4     13      -4782.    
      6      1      6     16      -7373.    
      7      1      4      8      -5811.    
      8      1      7     28     -0.1033E+05

      8 WELLS

                 RECHARGE =  5.000000E-04



 CLASSIFICATION & COUNT OF STREAM SEGMENTS BASED ON SOURCE OF INFLOW:

                HEADWATER     DIVERSION     RECEIVES TRIBUTARY FLOW
                ---------     ---------     -----------------------
                     2              0               1



                    INPUT DATA FOR EACH STREAM SEGMENT
 ---------------------------------------------------------------------------------------------

 SEGMENT    SEG.     INFLOW   OVERLAND   STREAM    STREAM   ICALC  OUTFLOW  DIVERSION PRIORITY
    NO.    LENGTH     RATE     RUNOFF      ET       PPT.    METH.  TO SEG.  FROM SEG.    NO.

      1  4.400E+03 1.000E+05 0.000E+00 0.000E+00 0.000E+00    1        3        0        0
      2  1.800E+03 5.000E+04 0.000E+00 0.000E+00 0.000E+00    1        3        0        0
      3  1.800E+03 0.000E+00 0.000E+00 0.000E+00 0.000E+00    1        0        0        0


         STREAMBED PROPERTIES AND STREAM DIMENSIONS

 SEGMENT     BED HYD. COND.      BED THICKNESS     ELEV.-TOP OF BED     WIDTH OF STREAM     DEPTH OF STREAM    STREAM ROUGHNESS
    No.     UPPER     LOWER     UPPER     LOWER     UPPER     LOWER     UPPER     LOWER     UPPER     LOWER   CHANNEL      BANK

     1  5.000E+00 5.000E+00 1.000E+00 1.000E+00 4.850E+01 3.800E+01 2.000E+01 2.000E+01                     5.000E-02
     2  5.000E+00 5.000E+00 1.000E+00 1.000E+00 4.025E+01 3.800E+01 2.000E+01 2.000E+01                     5.000E-02
     3  5.000E+00 5.000E+00 1.000E+00 1.000E+00 3.800E+01 3.000E+01 2.000E+01 2.000E+01                     5.000E-02



 
 SOLVING FOR HEAD 


     9 CALLS TO PCG ROUTINE FOR TIME STEP   1 IN STRESS PERIOD    1
    36 TOTAL ITERATIONS

 OUTPUT CONTROL FOR STRESS PERIOD    1   TIME STEP    1
    SAVE BUDGET
    SAVE HEAD FOR ALL LAYERS
    PRINT HEAD FOR ALL LAYERS
 UBDSV2 SAVING "STREAMFLOW OUT  " ON UNIT  50 AT TIME STEP  1, STRESS PERIOD   1



 STREAM LISTING     PERIOD      1   STEP        1

 LAYER ROW COL. STREAM  RCH.  FLOW INTO     FLOW TO   FLOW OUT OF   OVRLND.     DIRECT     STREAM       STREAM     STREAM     STREAM   STREAMBED  STREAMBED
                SEG.NO.  NO.  STRM. RCH.    AQUIFER    STRM. RCH.    RUNOFF     PRECIP       ET          HEAD       DEPTH      WIDTH   CONDCTNC.   GRADIENT

   1   13    1     1     1    1.0000E+05 -6.0250E+03   1.0602E+05  0.000E+00  0.000E+00  0.000E+00  4.84086E+01  1.473E-01  2.000E+01  2.000E+04 -3.012E-01
   1   13    2     1     2    1.0602E+05 -7.4910E+03   1.1352E+05  0.000E+00  0.000E+00  0.000E+00  4.79371E+01  1.530E-01  2.000E+01  2.000E+04 -3.745E-01
   1   14    3     1     3    1.1352E+05 -2.1946E+03   1.1571E+05  0.000E+00  0.000E+00  0.000E+00  4.74638E+01  1.570E-01  2.000E+01  2.000E+04 -1.097E-01
   1   15    4     1     4    1.1571E+05 -2.2683E+03   1.1798E+05  0.000E+00  0.000E+00  0.000E+00  4.69884E+01  1.588E-01  2.000E+01  2.000E+04 -1.134E-01
   1   16    5     1     5    1.1798E+05 -7.1858E+03   1.2516E+05  0.000E+00  0.000E+00  0.000E+00  4.65149E+01  1.626E-01  2.000E+01  2.000E+04 -3.593E-01
   1   16    6     1     6    1.2516E+05 -4.3038E+03   1.2947E+05  0.000E+00  0.000E+00  0.000E+00  4.60422E+01  1.672E-01  2.000E+01  2.000E+04 -2.152E-01
   1   16    7     1     7    1.2947E+05 -4.1389E+03   1.3361E+05  0.000E+00  0.000E+00  0.000E+00  4.55682E+01  1.705E-01  2.000E+01  2.000E+04 -2.069E-01
   1   16    8     1     8    1.3361E+05 -4.0984E+03   1.3771E+05  0.000E+00  0.000E+00  0.000E+00  4.50942E+01  1.737E-01  2.000E+01  2.000E+04 -2.049E-01
   1   16    9     1     9    1.3771E+05 -4.0883E+03   1.4179E+05  0.000E+00  0.000E+00  0.000E+00  4.46200E+01  1.768E-01  2.000E+01  2.000E+04 -2.044E-01
   1   16   10     1    10    1.4179E+05 -4.0863E+03   1.4588E+05  0.000E+00  0.000E+00  0.000E+00  4.41458E+01  1.799E-01  2.000E+01  2.000E+04 -2.043E-01
   1   16   11     1    11    1.4588E+05 -4.1222E+03   1.5000E+05  0.000E+00  0.000E+00  0.000E+00  4.36716E+01  1.830E-01  2.000E+01  2.000E+04 -2.061E-01
   1   16   12     1    12    1.5000E+05 -6.9865E+03   1.5699E+05  0.000E+00  0.000E+00  0.000E+00  4.31984E+01  1.871E-01  2.000E+01  2.000E+04 -3.493E-01
   1   15   13     1    13    1.5699E+05 -7.2320E+03   1.6422E+05  0.000E+00  0.000E+00  0.000E+00  4.27263E+01  1.922E-01  2.000E+01  2.000E+04 -3.616E-01
   1   14   14     1    14    1.6422E+05 -7.6419E+03   1.7186E+05  0.000E+00  0.000E+00  0.000E+00  4.22543E+01  1.975E-01  2.000E+01  2.000E+04 -3.821E-01
   1   13   15     1    15    1.7186E+05 -7.8657E+03   1.7973E+05  0.000E+00  0.000E+00  0.000E+00  4.17825E+01  2.029E-01  2.000E+01  2.000E+04 -3.933E-01
   1   12   16     1    16    1.7973E+05 -8.2669E+03   1.8800E+05  0.000E+00  0.000E+00  0.000E+00  4.13107E+01  2.085E-01  2.000E+01  2.000E+04 -4.133E-01
   1   12   17     1    17    1.8800E+05 -5.9593E+03   1.9395E+05  0.000E+00  0.000E+00  0.000E+00  4.08383E+01  2.133E-01  2.000E+01  2.000E+04 -2.980E-01
   1   12   18     1    18    1.9395E+05 -5.8590E+03   1.9981E+05  0.000E+00  0.000E+00  0.000E+00  4.03649E+01  2.172E-01  2.000E+01  2.000E+04 -2.929E-01
   1   12   19     1    19    1.9981E+05 -7.4063E+03   2.0722E+05  0.000E+00  0.000E+00  0.000E+00  3.98920E+01  2.216E-01  2.000E+01  2.000E+04 -3.703E-01
   1   13   20     1    20    2.0722E+05 -6.7318E+03   2.1395E+05  0.000E+00  0.000E+00  0.000E+00  3.94193E+01  2.261E-01  2.000E+01  2.000E+04 -3.366E-01
   1   14   21     1    21    2.1395E+05 -6.4079E+03   2.2036E+05  0.000E+00  0.000E+00  0.000E+00  3.89463E+01  2.303E-01  2.000E+01  2.000E+04 -3.204E-01
   1   14   22     1    22    2.2036E+05  3.7095E+03   2.1665E+05  0.000E+00  0.000E+00  0.000E+00  3.84698E+01  2.312E-01  2.000E+01  2.000E+04  1.855E-01
   1    9   30     2     1    5.0000E+04 -3.7944E+03   5.3794E+04  0.000E+00  0.000E+00  0.000E+00  4.02435E+01  1.185E-01  2.000E+01  2.000E+04 -1.897E-01
   1    9   29     2     2    5.3794E+04 -3.7911E+03   5.7585E+04  0.000E+00  0.000E+00  0.000E+00  3.99986E+01  1.236E-01  2.000E+01  2.000E+04 -1.896E-01
   1    9   28     2     3    5.7585E+04 -3.5994E+03   6.1185E+04  0.000E+00  0.000E+00  0.000E+00  3.97535E+01  1.285E-01  2.000E+01  2.000E+04 -1.800E-01
   1    9   27     2     4    6.1185E+04 -6.6913E+03   6.7876E+04  0.000E+00  0.000E+00  0.000E+00  3.95100E+01  1.350E-01  2.000E+01  2.000E+04 -3.346E-01
   1   10   26     2     5    6.7876E+04 -6.8145E+03   7.4691E+04  0.000E+00  0.000E+00  0.000E+00  3.92683E+01  1.433E-01  2.000E+01  2.000E+04 -3.407E-01
   1   11   25     2     6    7.4691E+04 -6.5156E+03   8.1206E+04  0.000E+00  0.000E+00  0.000E+00  3.90262E+01  1.512E-01  2.000E+01  2.000E+04 -3.258E-01
   1   12   24     2     7    8.1206E+04 -6.1110E+03   8.7317E+04  0.000E+00  0.000E+00  0.000E+00  3.87835E+01  1.585E-01  2.000E+01  2.000E+04 -3.056E-01
   1   13   23     2     8    8.7317E+04 -1.6288E+03   8.8946E+04  0.000E+00  0.000E+00  0.000E+00  3.85378E+01  1.628E-01  2.000E+01  2.000E+04 -8.144E-02
   1   14   22     2     9    8.8946E+04  8.5722E+01   8.8860E+04  0.000E+00  0.000E+00  0.000E+00  3.82887E+01  1.637E-01  2.000E+01  2.000E+04  4.286E-03
   1   14   22     3     1    3.0551E+05 -9.8392E+03   3.1535E+05  0.000E+00  0.000E+00  0.000E+00  3.77924E+01  2.369E-01  2.000E+01  2.000E+04 -4.920E-01
   1   15   23     3     2    3.1535E+05 -1.9895E+03   3.1734E+05  0.000E+00  0.000E+00  0.000E+00  3.69062E+01  2.396E-01  2.000E+01  2.000E+04 -9.948E-02
   1   15   24     3     3    3.1734E+05 -1.5300E+03   3.1887E+05  0.000E+00  0.000E+00  0.000E+00  3.60181E+01  2.403E-01  2.000E+01  2.000E+04 -7.650E-02
   1   15   25     3     4    3.1887E+05 -1.5794E+03   3.2045E+05  0.000E+00  0.000E+00  0.000E+00  3.51299E+01  2.411E-01  2.000E+01  2.000E+04 -7.897E-02
   1   15   26     3     5    3.2045E+05 -1.8824E+03   3.2233E+05  0.000E+00  0.000E+00  0.000E+00  3.42418E+01  2.418E-01  2.000E+01  2.000E+04 -9.412E-02
   1   16   27     3     6    3.2233E+05 -2.1640E+03   3.2450E+05  0.000E+00  0.000E+00  0.000E+00  3.33539E+01  2.427E-01  2.000E+01  2.000E+04 -1.082E-01
   1   17   28     3     7    3.2450E+05 -6.5771E+03   3.3107E+05  0.000E+00  0.000E+00  0.000E+00  3.24669E+01  2.447E-01  2.000E+01  2.000E+04 -3.289E-01
   1   18   29     3     8    3.3107E+05 -7.9939E+03   3.3907E+05  0.000E+00  0.000E+00  0.000E+00  3.15813E+01  2.480E-01  2.000E+01  2.000E+04 -3.997E-01
   1   18   30     3     9    3.3907E+05 -7.1737E+03   3.4624E+05  0.000E+00  0.000E+00  0.000E+00  3.06958E+01  2.513E-01  2.000E+01  2.000E+04 -3.587E-01



1
              HEAD IN LAYER   1 AT END OF TIME STEP   1 IN STRESS PERIOD    1
  ---------------------------------------------------------------------------

          1      2      3      4      5      6      7      8      9     10
         11     12     13     14     15     16     17     18     19     20
         21     22     23     24     25     26     27     28     29     30
 .........................................................................
   1  ****** ****** ****** ****** ****** ****** ****** ****** ****** ******
      ****** ****** ****** ****** ****** ****** ****** ****** ****** ******
      ****** ****** ****** ****** ****** ****** ****** ****** ****** ******
   2  ****** ****** ****** ****** ****** ****** ****** ****** ****** ******
      ****** ****** ****** ****** ****** ****** ****** ****** ****** ******
      ****** ****** ****** ****** ****** ****** ****** ****** ****** ******
   3  ****** ****** ****** ****** ****** ****** ****** ****** ****** ******
      ****** ****** ****** ****** ****** ****** ****** ****** ****** ******
      ****** ****** ****** ****** ****** ****** ****** ****** ****** ******
   4  ****** ****** ****** ****** ****** ****** ****** ****** ****** ******
      ****** ****** ****** ****** ****** ****** ****** ****** ****** ******
      ****** ****** ****** ****** ****** ****** ****** ****** ****** ******
   5  ****** ****** ****** ****** ****** ****** ****** ****** ****** ******
      ****** ****** ****** ****** ****** ****** ****** ****** ****** ******
      ****** ****** ****** ****** ****** ****** ****** ****** ****** ******
   6  ****** ****** ****** ****** ****** ****** ****** ****** ****** ******
      ****** ****** ****** ****** ****** ****** ****** ****** ****** ******
      ****** ****** ****** ****** ****** ****** ****** ****** ****** ******
   7  ****** ****** ****** ****** ****** ****** ****** ****** ****** ******
      ****** ****** ****** ****** ****** ****** ****** ****** ****** ******
      ****** ****** ****** ****** ****** ****** ****** ****** ****** ******
   8  ****** ****** ****** ****** ****** ****** ****** ****** ****** ******
      ****** ****** ****** ****** ****** ****** ****** ****** ****** ******
      ****** ****** ****** ****** ****** ****** ****** ****** ****** ******
   9  ****** ****** ****** ****** ****** ****** ****** ****** ****** ******
      ****** ****** ****** ****** ****** ****** ****** ****** ****** ******
      ****** ****** ****** ****** ****** ****** ****** ****** ****** ******
  10  ****** ****** ****** ****** ****** ****** ****** ****** ****** ******
      ****** ****** ****** ****** ****** ****** ****** ****** ****** ******
      ****** ****** ****** ****** ****** ****** ****** ****** ****** ******
  11  ****** ****** ****** ****** ****** ****** ****** ****** ****** ******
      ****** ****** ****** ****** ****** ****** ****** ****** ****** ******
      ****** ****** ****** ****** ****** ****** ****** ****** ****** ******
  12  ****** ****** ****** ****** ****** ****** ****** ****** ****** ******
      ****** ****** ****** ****** ****** ****** ****** ****** ****** ******
      ****** ****** ****** ****** ****** ****** ****** ****** ****** ******
  13  ****** ****** ****** ****** ****** ****** ****** ****** ****** ******
      ****** ****** ****** ****** ****** ****** ****** ****** ****** ******
      ****** ****** ****** ****** ****** ****** ****** ****** ****** ******
  14  ****** ****** ****** ****** ****** ****** ****** ****** ****** ******
      ****** ****** ****** ****** ****** ****** ****** ****** ****** ******
      ****** ****** ****** ****** ****** ****** ****** ****** ****** ******
  15  ****** ****** ****** ****** ****** ****** ****** ****** ****** ******
      ****** ****** ****** ****** ****** ****** ****** ****** ****** ******
      ****** ****** ****** ****** ****** ****** ****** ****** ****** ******
  16  ****** ****** ****** ****** ****** ****** ****** ****** ****** ******
      ****** ****** ****** ****** ****** ****** ****** ****** ****** ******
      ****** ****** ****** ****** ****** ****** ****** ****** ****** ******
  17  ****** ****** ****** ****** ****** ****** ****** ****** ****** ******
      ****** ****** ****** ****** ****** ****** ****** ****** ****** ******
      ****** ****** ****** ****** ****** ****** ****** ****** ****** ******
  18  ****** ****** ****** ****** ****** ****** ****** ****** ****** ******
      ****** ****** ****** ****** ****** ****** ****** ****** ****** ******
      ****** ****** ****** ****** ****** ****** ****** ****** ****** ******
  19  ****** ****** ****** ****** ****** ****** ****** ****** ****** ******
      ****** ****** ****** ****** ****** ****** ****** ****** ****** ******
      ****** ****** ****** ****** ****** ****** ****** ****** ****** ******
  20  ****** ****** ****** ****** ****** ****** ****** ****** ****** ******
      ****** ****** ****** ****** ****** ****** ****** ****** ****** ******
      ****** ****** ****** ****** ****** ****** ****** ****** ****** ******
  21  ****** ****** ****** ****** ****** ****** ****** ****** ****** ******
      ****** ****** ****** ****** ****** ****** ****** ****** ****** ******
      ****** ****** ****** ****** ****** ****** ****** ****** ****** ******
  22  ****** ****** ****** ****** ****** ****** ****** ****** ****** ******
      ****** ****** ****** ****** ****** ****** ****** ****** ****** ******
      ****** ****** ****** ****** ****** ****** ****** ****** ****** ******
  23  ****** ****** ****** ****** ****** ****** ****** ****** ****** ******
      ****** ****** ****** ****** ****** ****** ****** ****** ****** ******
      ****** ****** ****** ****** ****** ****** ****** ****** ****** ******
  24  ****** ****** ****** ****** ****** ****** ****** ****** ****** ******
      ****** ****** ****** ****** ****** ****** ****** ****** ****** ******
      ****** ****** ****** ****** ****** ****** ****** ****** ****** ******
  25  ****** ****** ****** ****** ****** ****** ****** ****** ****** ******
      ****** ****** ****** ****** ****** ****** ****** ****** ****** ******
      ****** ****** ****** ****** ****** ****** ****** ****** ****** ******

 HEAD WILL BE SAVED ON UNIT   51 AT END OF TIME STEP    1, STRESS PERIOD    1
1
  VOLUMETRIC BUDGET FOR ENTIRE MODEL AT END OF TIME STEP    1, STRESS PERIOD   1
  ------------------------------------------------------------------------------

     CUMULATIVE VOLUMES      L**3       RATES FOR THIS TIME STEP      L**3/T
     ------------------                 ------------------------

           IN:                                      IN:
           ---                                      ---
             STORAGE =    18148294.3587               STORAGE =      197264.0691
       CONSTANT HEAD =     1239878.7920         CONSTANT HEAD =       13476.9434
               WELLS =           0.0000                 WELLS =           0.0000
            RECHARGE =     1269600.0000              RECHARGE =       13800.0000
      STREAM LEAKAGE =      349164.5022        STREAM LEAKAGE =        3795.2663

            TOTAL IN =    21006937.6530              TOTAL IN =      228336.2788

          OUT:                                     OUT:
          ----                                     ----
             STORAGE =           0.0000               STORAGE =           0.0000
       CONSTANT HEAD =           0.0000         CONSTANT HEAD =           0.0000
               WELLS =     2603696.9616                 WELLS =       28301.0539
            RECHARGE =           0.0000              RECHARGE =           0.0000
      STREAM LEAKAGE =    18403240.9727        STREAM LEAKAGE =      200035.2280

           TOTAL OUT =    21006937.9343             TOTAL OUT =      228336.2819

            IN - OUT =          -0.2813              IN - OUT =      -3.0576E-03

 PERCENT DISCREPANCY =          -0.00     PERCENT DISCREPANCY =          -0.00






         TIME SUMMARY AT END OF TIME STEP    1 IN STRESS PERIOD    1
                    SECONDS     MINUTES      HOURS       DAYS        YEARS
                    -----------------------------------------------------------
   TIME STEP LENGTH 7.94880E+06 1.32480E+05  2208.0      92.000     0.25188    
 STRESS PERIOD TIME 7.94880E+06 1.32480E+05  2208.0      92.000     0.25188    
         TOTAL TIME 7.94880E+06 1.32480E+05  2208.0      92.000     0.25188    
1
1
                            STRESS PERIOD NO.    2, LENGTH =   91.00000    
                            -----------------------------------------------

                              NUMBER OF TIME STEPS =     1

                               MULTIPLIER FOR DELT =     1.500

                            INITIAL TIME STEP SIZE =   91.00000    

 WELL NO.  LAYER   ROW   COL   STRESS RATE         
 --------------------------------------------------
      1      1     14      6       0.000    
      2      1      3      9       0.000    
      3      1     20     10       0.000    
      4      1     14     20       0.000    
      5      1      4     13      -4782.    
      6      1      6     16      -7373.    
      7      1      4      8      -5811.    
      8      1      7     28     -0.1033E+05

      8 WELLS

                 RECHARGE =  2.000000E-03

 REUSING STREAM SEGMENT DATA FROM LAST STRESS PERIOD
 
 SOLVING FOR HEAD 


     7 CALLS TO PCG ROUTINE FOR TIME STEP   1 IN STRESS PERIOD    2
    27 TOTAL ITERATIONS

 OUTPUT CONTROL FOR STRESS PERIOD    2   TIME STEP    1
    SAVE BUDGET
    SAVE HEAD FOR ALL LAYERS
    PRINT HEAD FOR ALL LAYERS
 UBDSV2 SAVING "STREAMFLOW OUT  " ON UNIT  50 AT TIME STEP  1, STRESS PERIOD   2



 STREAM LISTING     PERIOD      2   STEP        1

 LAYER ROW COL. STREAM  RCH.  FLOW INTO     FLOW TO   FLOW OUT OF   OVRLND.     DIRECT     STREAM       STREAM     STREAM     STREAM   STREAMBED  STREAMBED
                SEG.NO.  NO.  STRM. RCH.    AQUIFER    STRM. RCH.    RUNOFF     PRECIP       ET          HEAD       DEPTH      WIDTH   CONDCTNC.   GRADIENT

   1   13    1     1     1    1.0000E+05 -3.7775E+03   1.0378E+05  0.000E+00  0.000E+00  0.000E+00  4.84076E+01  1.463E-01  2.000E+01  2.000E+04 -1.889E-01
   1   13    2     1     2    1.0378E+05 -5.0275E+03   1.0880E+05  0.000E+00  0.000E+00  0.000E+00  4.79341E+01  1.500E-01  2.000E+01  2.000E+04 -2.514E-01
   1   14    3     1     3    1.0880E+05 -1.1034E+03   1.0991E+05  0.000E+00  0.000E+00  0.000E+00  4.74594E+01  1.526E-01  2.000E+01  2.000E+04 -5.517E-02
   1   15    4     1     4    1.0991E+05 -1.1376E+03   1.1105E+05  0.000E+00  0.000E+00  0.000E+00  4.69831E+01  1.536E-01  2.000E+01  2.000E+04 -5.688E-02
   1   16    5     1     5    1.1105E+05 -4.2561E+03   1.1530E+05  0.000E+00  0.000E+00  0.000E+00  4.65081E+01  1.558E-01  2.000E+01  2.000E+04 -2.128E-01
   1   16    6     1     6    1.1530E+05 -2.5074E+03   1.1781E+05  0.000E+00  0.000E+00  0.000E+00  4.60336E+01  1.586E-01  2.000E+01  2.000E+04 -1.254E-01
   1   16    7     1     7    1.1781E+05 -2.4133E+03   1.2022E+05  0.000E+00  0.000E+00  0.000E+00  4.55583E+01  1.606E-01  2.000E+01  2.000E+04 -1.207E-01
   1   16    8     1     8    1.2022E+05 -2.3850E+03   1.2261E+05  0.000E+00  0.000E+00  0.000E+00  4.50830E+01  1.625E-01  2.000E+01  2.000E+04 -1.192E-01
   1   16    9     1     9    1.2261E+05 -2.3655E+03   1.2497E+05  0.000E+00  0.000E+00  0.000E+00  4.46076E+01  1.644E-01  2.000E+01  2.000E+04 -1.183E-01
   1   16   10     1    10    1.2497E+05 -2.3429E+03   1.2732E+05  0.000E+00  0.000E+00  0.000E+00  4.41322E+01  1.663E-01  2.000E+01  2.000E+04 -1.171E-01
   1   16   11     1    11    1.2732E+05 -2.3508E+03   1.2967E+05  0.000E+00  0.000E+00  0.000E+00  4.36568E+01  1.681E-01  2.000E+01  2.000E+04 -1.175E-01
   1   16   12     1    12    1.2967E+05 -4.0993E+03   1.3377E+05  0.000E+00  0.000E+00  0.000E+00  4.31820E+01  1.707E-01  2.000E+01  2.000E+04 -2.050E-01
   1   15   13     1    13    1.3377E+05 -3.9356E+03   1.3770E+05  0.000E+00  0.000E+00  0.000E+00  4.27078E+01  1.738E-01  2.000E+01  2.000E+04 -1.968E-01
   1   14   14     1    14    1.3770E+05 -4.1633E+03   1.4187E+05  0.000E+00  0.000E+00  0.000E+00  4.22337E+01  1.768E-01  2.000E+01  2.000E+04 -2.082E-01
   1   13   15     1    15    1.4187E+05 -4.3155E+03   1.4618E+05  0.000E+00  0.000E+00  0.000E+00  4.17596E+01  1.800E-01  2.000E+01  2.000E+04 -2.158E-01
   1   12   16     1    16    1.4618E+05 -4.7605E+03   1.5094E+05  0.000E+00  0.000E+00  0.000E+00  4.12857E+01  1.834E-01  2.000E+01  2.000E+04 -2.380E-01
   1   12   17     1    17    1.5094E+05 -3.2721E+03   1.5421E+05  0.000E+00  0.000E+00  0.000E+00  4.08114E+01  1.864E-01  2.000E+01  2.000E+04 -1.636E-01
   1   12   18     1    18    1.5421E+05 -3.1976E+03   1.5741E+05  0.000E+00  0.000E+00  0.000E+00  4.03365E+01  1.887E-01  2.000E+01  2.000E+04 -1.599E-01
   1   12   19     1    19    1.5741E+05 -4.0910E+03   1.6150E+05  0.000E+00  0.000E+00  0.000E+00  3.98618E+01  1.914E-01  2.000E+01  2.000E+04 -2.046E-01
   1   13   20     1    20    1.6150E+05 -3.5709E+03   1.6507E+05  0.000E+00  0.000E+00  0.000E+00  3.93873E+01  1.941E-01  2.000E+01  2.000E+04 -1.785E-01
   1   14   21     1    21    1.6507E+05 -3.7037E+03   1.6878E+05  0.000E+00  0.000E+00  0.000E+00  3.89126E+01  1.967E-01  2.000E+01  2.000E+04 -1.852E-01
   1   14   22     1    22    1.6878E+05  4.4825E+03   1.6429E+05  0.000E+00  0.000E+00  0.000E+00  3.84351E+01  1.964E-01  2.000E+01  2.000E+04  2.241E-01
   1    9   30     2     1    5.0000E+04 -8.1614E+02   5.0816E+04  0.000E+00  0.000E+00  0.000E+00  4.02414E+01  1.164E-01  2.000E+01  2.000E+04 -4.081E-02
   1    9   29     2     2    5.0816E+04 -8.1574E+02   5.1632E+04  0.000E+00  0.000E+00  0.000E+00  3.99926E+01  1.176E-01  2.000E+01  2.000E+04 -4.079E-02
   1    9   28     2     3    5.1632E+04 -6.2666E+02   5.2259E+04  0.000E+00  0.000E+00  0.000E+00  3.97435E+01  1.185E-01  2.000E+01  2.000E+04 -3.133E-02
   1    9   27     2     4    5.2259E+04 -2.8423E+03   5.5101E+04  0.000E+00  0.000E+00  0.000E+00  3.94959E+01  1.209E-01  2.000E+01  2.000E+04 -1.421E-01
   1   10   26     2     5    5.5101E+04 -3.0089E+03   5.8110E+04  0.000E+00  0.000E+00  0.000E+00  3.92498E+01  1.248E-01  2.000E+01  2.000E+04 -1.504E-01
   1   11   25     2     6    5.8110E+04 -2.9296E+03   6.1039E+04  0.000E+00  0.000E+00  0.000E+00  3.90037E+01  1.287E-01  2.000E+01  2.000E+04 -1.465E-01
   1   12   24     2     7    6.1039E+04 -2.9076E+03   6.3947E+04  0.000E+00  0.000E+00  0.000E+00  3.87575E+01  1.325E-01  2.000E+01  2.000E+04 -1.454E-01
   1   13   23     2     8    6.3947E+04 -5.7062E+02   6.4518E+04  0.000E+00  0.000E+00  0.000E+00  3.85097E+01  1.347E-01  2.000E+01  2.000E+04 -2.853E-02
   1   14   22     2     9    6.4518E+04  9.6912E+02   6.3548E+04  0.000E+00  0.000E+00  0.000E+00  3.82594E+01  1.344E-01  2.000E+01  2.000E+04  4.846E-02
   1   14   22     3     1    2.2784E+05 -9.1261E+03   2.3697E+05  0.000E+00  0.000E+00  0.000E+00  3.77546E+01  1.991E-01  2.000E+01  2.000E+04 -4.563E-01
   1   15   23     3     2    2.3697E+05 -1.0561E+03   2.3802E+05  0.000E+00  0.000E+00  0.000E+00  3.68684E+01  2.017E-01  2.000E+01  2.000E+04 -5.280E-02
   1   15   24     3     3    2.3802E+05 -6.6562E+02   2.3869E+05  0.000E+00  0.000E+00  0.000E+00  3.59799E+01  2.021E-01  2.000E+01  2.000E+04 -3.328E-02
   1   15   25     3     4    2.3869E+05 -6.7142E+02   2.3936E+05  0.000E+00  0.000E+00  0.000E+00  3.50914E+01  2.025E-01  2.000E+01  2.000E+04 -3.357E-02
   1   15   26     3     5    2.3936E+05 -7.7235E+02   2.4013E+05  0.000E+00  0.000E+00  0.000E+00  3.42028E+01  2.028E-01  2.000E+01  2.000E+04 -3.862E-02
   1   16   27     3     6    2.4013E+05 -8.9793E+02   2.4103E+05  0.000E+00  0.000E+00  0.000E+00  3.33144E+01  2.033E-01  2.000E+01  2.000E+04 -4.490E-02
   1   17   28     3     7    2.4103E+05 -3.2549E+03   2.4429E+05  0.000E+00  0.000E+00  0.000E+00  3.24265E+01  2.043E-01  2.000E+01  2.000E+04 -1.627E-01
   1   18   29     3     8    2.4429E+05 -5.0571E+03   2.4934E+05  0.000E+00  0.000E+00  0.000E+00  3.15397E+01  2.064E-01  2.000E+01  2.000E+04 -2.529E-01
   1   18   30     3     9    2.4934E+05 -4.6844E+03   2.5403E+05  0.000E+00  0.000E+00  0.000E+00  3.06533E+01  2.088E-01  2.000E+01  2.000E+04 -2.342E-01



1
              HEAD IN LAYER   1 AT END OF TIME STEP   1 IN STRESS PERIOD    2
  ---------------------------------------------------------------------------

          1      2      3      4      5      6      7      8      9     10
         11     12     13     14     15     16     17     18     19     20
         21     22     23     24     25     26     27     28     29     30
 .........................................................................
   1  ****** ****** ****** ****** ****** ****** ****** ****** ****** ******
      ****** ****** ****** ****** ****** ****** ****** ****** ****** ******
      ****** ****** ****** ****** ****** ****** ****** ****** ****** ******
   2  ****** ****** ****** ****** ****** ****** ****** ****** ****** ******
      ****** ****** ****** ****** ****** ****** ****** ****** ****** ******
      ****** ****** ****** ****** ****** ****** ****** ****** ****** ******
   3  ****** ****** ****** ****** ****** ****** ****** ****** ****** ******
      ****** ****** ****** ****** ****** ****** ****** ****** ****** ******
      ****** ****** ****** ****** ****** ****** ****** ****** ****** ******
   4  ****** ****** ****** ****** ****** ****** ****** ****** ****** ******
      ****** ****** ****** ****** ****** ****** ****** ****** ****** ******
      ****** ****** ****** ****** ****** ****** ****** ****** ****** ******
   5  ****** ****** ****** ****** ****** ****** ****** ****** ****** ******
      ****** ****** ****** ****** ****** ****** ****** ****** ****** ******
      ****** ****** ****** ****** ****** ****** ****** ****** ****** ******
   6  ****** ****** ****** ****** ****** ****** ****** ****** ****** ******
      ****** ****** ****** ****** ****** ****** ****** ****** ****** ******
      ****** ****** ****** ****** ****** ****** ****** ****** ****** ******
   7  ****** ****** ****** ****** ****** ****** ****** ****** ****** ******
      ****** ****** ****** ****** ****** ****** ****** ****** ****** ******
      ****** ****** ****** ****** ****** ****** ****** ****** ****** ******
   8  ****** ****** ****** ****** ****** ****** ****** ****** ****** ******
      ****** ****** ****** ****** ****** ****** ****** ****** ****** ******
      ****** ****** ****** ****** ****** ****** ****** ****** ****** ******
   9  ****** ****** ****** ****** ****** ****** ****** ****** ****** ******
      ****** ****** ****** ****** ****** ****** ****** ****** ****** ******
      ****** ****** ****** ****** ****** ****** ****** ****** ****** ******
  10  ****** ****** ****** ****** ****** ****** ****** ****** ****** ******
      ****** ****** ****** ****** ****** ****** ****** ****** ****** ******
      ****** ****** ****** ****** ****** ****** ****** ****** ****** ******
  11  ****** ****** ****** ****** ****** ****** ****** ****** ****** ******
      ****** ****** ****** ****** ****** ****** ****** ****** ****** ******
      ****** ****** ****** ****** ****** ****** ****** ****** ****** ******
  12  ****** ****** ****** ****** ****** ****** ****** ****** ****** ******
      ****** ****** ****** ****** ****** ****** ****** ****** ****** ******
      ****** ****** ****** ****** ****** ****** ****** ****** ****** ******
  13  ****** ****** ****** ****** ****** ****** ****** ****** ****** ******
      ****** ****** ****** ****** ****** ****** ****** ****** ****** ******
      ****** ****** ****** ****** ****** ****** ****** ****** ****** ******
  14  ****** ****** ****** ****** ****** ****** ****** ****** ****** ******
      ****** ****** ****** ****** ****** ****** ****** ****** ****** ******
      ****** ****** ****** ****** ****** ****** ****** ****** ****** ******
  15  ****** ****** ****** ****** ****** ****** ****** ****** ****** ******
      ****** ****** ****** ****** ****** ****** ****** ****** ****** ******
      ****** ****** ****** ****** ****** ****** ****** ****** ****** ******
  16  ****** ****** ****** ****** ****** ****** ****** ****** ****** ******
      ****** ****** ****** ****** ****** ****** ****** ****** ****** ******
      ****** ****** ****** ****** ****** ****** ****** ****** ****** ******
  17  ****** ****** ****** ****** ****** ****** ****** ****** ****** ******
      ****** ****** ****** ****** ****** ****** ****** ****** ****** ******
      ****** ****** ****** ****** ****** ****** ****** ****** ****** ******
  18  ****** ****** ****** ****** ****** ****** ****** ****** ****** ******
      ****** ****** ****** ****** ****** ****** ****** ****** ****** ******
      ****** ****** ****** ****** ****** ****** ****** ****** ****** ******
  19  ****** ****** ****** ****** ****** ****** ****** ****** ****** ******
      ****** ****** ****** ****** ****** ****** ****** ****** ****** ******
      ****** ****** ****** ****** ****** ****** ****** ****** ****** ******
  20  ****** ****** ****** ****** ****** ****** ****** ****** ****** ******
      ****** ****** ****** ****** ****** ****** ****** ****** ****** ******
      ****** ****** ****** ****** ****** ****** ****** ****** ****** ******
  21  ****** ****** ****** ****** ****** ****** ****** ****** ****** ******
      ****** ****** ****** ****** ****** ****** ****** ****** ****** ******
      ****** ****** ****** ****** ****** ****** ****** ****** ****** ******
  22  ****** ****** ****** ****** ****** ****** ****** ****** ****** ******
      ****** ****** ****** ****** ****** ****** ****** ****** ****** ******
      ****** ****** ****** ****** ****** ****** ****** ****** ****** ******
  23  ****** ****** ****** ****** ****** ****** ****** ****** ****** ******
      ****** ****** ****** ****** ****** ****** ****** ****** ****** ******
      ****** ****** ****** ****** ****** ****** ****** ****** ****** ******
  24  ****** ****** ****** ****** ****** ****** ****** ****** ****** ******
      ****** ****** ****** ****** ****** ****** ****** ****** ****** ******
      ****** ****** ****** ****** ****** ****** ****** ****** ****** ******
  25  ****** ****** ****** ****** ****** ****** ****** ****** ****** ******
      ****** ****** ****** ****** ****** ****** ****** ****** ****** ******
      ****** ****** ****** ****** ****** ****** ****** ****** ****** ******

 HEAD WILL BE SAVED ON UNIT   51 AT END OF TIME STEP    1, STRESS PERIOD    2
1
  VOLUMETRIC BUDGET FOR ENTIRE MODEL AT END OF TIME STEP    1, STRESS PERIOD   2
  ------------------------------------------------------------------------------

     CUMULATIVE VOLUMES      L**3       RATES FOR THIS TIME STEP      L**3/T
     ------------------                 ------------------------

           IN:                                      IN:
           ---                                      ---
             STORAGE =    23460859.2808               STORAGE =       58379.8343
       CONSTANT HEAD =     2946090.2494         CONSTANT HEAD =       18749.5765
               WELLS =           0.0000                 WELLS =           0.0000
            RECHARGE =     6292800.0000              RECHARGE =       55200.0000
      STREAM LEAKAGE =      845265.7854        STREAM LEAKAGE =        5451.6625

            TOTAL IN =    33545015.3156              TOTAL IN =      137781.0732

          OUT:                                     OUT:
          ----                                     ----
             STORAGE =           0.0000               STORAGE =           0.0000
       CONSTANT HEAD =           0.0000         CONSTANT HEAD =           0.0000
               WELLS =     5179092.8693                 WELLS =       28301.0539
            RECHARGE =           0.0000              RECHARGE =           0.0000
      STREAM LEAKAGE =    28365923.6754        STREAM LEAKAGE =      109480.0297

           TOTAL OUT =    33545016.5447             TOTAL OUT =      137781.0836

            IN - OUT =          -1.2291              IN - OUT =      -1.0415E-02

 PERCENT DISCREPANCY =          -0.00     PERCENT DISCREPANCY =          -0.00






         TIME SUMMARY AT END OF TIME STEP    1 IN STRESS PERIOD    2
                    SECONDS     MINUTES      HOURS       DAYS        YEARS
                    -----------------------------------------------------------
   TIME STEP LENGTH 7.86240E+06 1.31040E+05  2184.0      91.000     0.24914    
 STRESS PERIOD TIME 7.86240E+06 1.31040E+05  2184.0      91.000     0.24914    
         TOTAL TIME 1.58112E+07 2.63520E+05  4392.0      183.00     0.50103    
1
1
                            STRESS PERIOD NO.    3, LENGTH =   91.00000    
                            -----------------------------------------------

                              NUMBER OF TIME STEPS =     1

                               MULTIPLIER FOR DELT =     1.500

                            INITIAL TIME STEP SIZE =   91.00000    

 WELL NO.  LAYER   ROW   COL   STRESS RATE         
 --------------------------------------------------
      1      1     14      6       0.000    
      2      1      3      9       0.000    
      3      1     20     10       0.000    
      4      1     14     20       0.000    
      5      1      4     13      -4782.    
      6      1      6     16      -7373.    
      7      1      4      8      -5811.    
      8      1      7     28     -0.1033E+05

      8 WELLS

                 RECHARGE =   0.00000    

 REUSING STREAM SEGMENT DATA FROM LAST STRESS PERIOD
 
 SOLVING FOR HEAD 


     7 CALLS TO PCG ROUTINE FOR TIME STEP   1 IN STRESS PERIOD    3
    27 TOTAL ITERATIONS

 OUTPUT CONTROL FOR STRESS PERIOD    3   TIME STEP    1
    SAVE BUDGET
    SAVE HEAD FOR ALL LAYERS
    PRINT HEAD FOR ALL LAYERS
 UBDSV2 SAVING "STREAMFLOW OUT  " ON UNIT  50 AT TIME STEP  1, STRESS PERIOD   3



 STREAM LISTING     PERIOD      3   STEP        1

 LAYER ROW COL. STREAM  RCH.  FLOW INTO     FLOW TO   FLOW OUT OF   OVRLND.     DIRECT     STREAM       STREAM     STREAM     STREAM   STREAMBED  STREAMBED
                SEG.NO.  NO.  STRM. RCH.    AQUIFER    STRM. RCH.    RUNOFF     PRECIP       ET          HEAD       DEPTH      WIDTH   CONDCTNC.   GRADIENT

   1   13    1     1     1    1.0000E+05 -2.4065E+03   1.0241E+05  0.000E+00  0.000E+00  0.000E+00  4.84071E+01  1.457E-01  2.000E+01  2.000E+04 -1.203E-01
   1   13    2     1     2    1.0241E+05 -3.4921E+03   1.0590E+05  0.000E+00  0.000E+00  0.000E+00  4.79323E+01  1.482E-01  2.000E+01  2.000E+04 -1.746E-01
   1   14    3     1     3    1.0590E+05 -6.3252E+02   1.0653E+05  0.000E+00  0.000E+00  0.000E+00  4.74568E+01  1.500E-01  2.000E+01  2.000E+04 -3.163E-02
   1   15    4     1     4    1.0653E+05 -6.2676E+02   1.0716E+05  0.000E+00  0.000E+00  0.000E+00  4.69801E+01  1.505E-01  2.000E+01  2.000E+04 -3.134E-02
   1   16    5     1     5    1.0716E+05 -2.4636E+03   1.0962E+05  0.000E+00  0.000E+00  0.000E+00  4.65041E+01  1.518E-01  2.000E+01  2.000E+04 -1.232E-01
   1   16    6     1     6    1.0962E+05 -1.5033E+03   1.1112E+05  0.000E+00  0.000E+00  0.000E+00  4.60285E+01  1.535E-01  2.000E+01  2.000E+04 -7.516E-02
   1   16    7     1     7    1.1112E+05 -1.4669E+03   1.1259E+05  0.000E+00  0.000E+00  0.000E+00  4.55524E+01  1.547E-01  2.000E+01  2.000E+04 -7.335E-02
   1   16    8     1     8    1.1259E+05 -1.4568E+03   1.1405E+05  0.000E+00  0.000E+00  0.000E+00  4.50764E+01  1.559E-01  2.000E+01  2.000E+04 -7.284E-02
   1   16    9     1     9    1.1405E+05 -1.4425E+03   1.1549E+05  0.000E+00  0.000E+00  0.000E+00  4.46003E+01  1.571E-01  2.000E+01  2.000E+04 -7.212E-02
   1   16   10     1    10    1.1549E+05 -1.4217E+03   1.1691E+05  0.000E+00  0.000E+00  0.000E+00  4.41242E+01  1.583E-01  2.000E+01  2.000E+04 -7.108E-02
   1   16   11     1    11    1.1691E+05 -1.4259E+03   1.1834E+05  0.000E+00  0.000E+00  0.000E+00  4.36481E+01  1.595E-01  2.000E+01  2.000E+04 -7.130E-02
   1   16   12     1    12    1.1834E+05 -2.4826E+03   1.2082E+05  0.000E+00  0.000E+00  0.000E+00  4.31724E+01  1.610E-01  2.000E+01  2.000E+04 -1.241E-01
   1   15   13     1    13    1.2082E+05 -2.2322E+03   1.2305E+05  0.000E+00  0.000E+00  0.000E+00  4.26970E+01  1.629E-01  2.000E+01  2.000E+04 -1.116E-01
   1   14   14     1    14    1.2305E+05 -2.3695E+03   1.2542E+05  0.000E+00  0.000E+00  0.000E+00  4.22216E+01  1.648E-01  2.000E+01  2.000E+04 -1.185E-01
   1   13   15     1    15    1.2542E+05 -2.4709E+03   1.2789E+05  0.000E+00  0.000E+00  0.000E+00  4.17462E+01  1.667E-01  2.000E+01  2.000E+04 -1.235E-01
   1   12   16     1    16    1.2789E+05 -2.7696E+03   1.3066E+05  0.000E+00  0.000E+00  0.000E+00  4.12710E+01  1.687E-01  2.000E+01  2.000E+04 -1.385E-01
   1   12   17     1    17    1.3066E+05 -1.8774E+03   1.3254E+05  0.000E+00  0.000E+00  0.000E+00  4.07956E+01  1.706E-01  2.000E+01  2.000E+04 -9.387E-02
   1   12   18     1    18    1.3254E+05 -1.8387E+03   1.3438E+05  0.000E+00  0.000E+00  0.000E+00  4.03197E+01  1.720E-01  2.000E+01  2.000E+04 -9.193E-02
   1   12   19     1    19    1.3438E+05 -2.3816E+03   1.3676E+05  0.000E+00  0.000E+00  0.000E+00  3.98441E+01  1.736E-01  2.000E+01  2.000E+04 -1.191E-01
   1   13   20     1    20    1.3676E+05 -2.0810E+03   1.3884E+05  0.000E+00  0.000E+00  0.000E+00  3.93685E+01  1.753E-01  2.000E+01  2.000E+04 -1.040E-01
   1   14   21     1    21    1.3884E+05 -2.2424E+03   1.4108E+05  0.000E+00  0.000E+00  0.000E+00  3.88929E+01  1.770E-01  2.000E+01  2.000E+04 -1.121E-01
   1   14   22     1    22    1.4108E+05  4.8441E+03   1.3624E+05  0.000E+00  0.000E+00  0.000E+00  3.84146E+01  1.760E-01  2.000E+01  2.000E+04  2.422E-01
   1    9   30     2     1    5.0000E+04  4.6694E+02   4.9533E+04  0.000E+00  0.000E+00  0.000E+00  4.02405E+01  1.155E-01  2.000E+01  2.000E+04  2.335E-02
   1    9   29     2     2    4.9533E+04  4.6746E+02   4.9066E+04  0.000E+00  0.000E+00  0.000E+00  3.99899E+01  1.149E-01  2.000E+01  2.000E+04  2.337E-02
   1    9   28     2     3    4.9066E+04  6.7549E+02   4.8390E+04  0.000E+00  0.000E+00  0.000E+00  3.97391E+01  1.141E-01  2.000E+01  2.000E+04  3.377E-02
   1    9   27     2     4    4.8390E+04 -9.4667E+02   4.9337E+04  0.000E+00  0.000E+00  0.000E+00  3.94893E+01  1.143E-01  2.000E+01  2.000E+04 -4.733E-02
   1   10   26     2     5    4.9337E+04 -1.2794E+03   5.0616E+04  0.000E+00  0.000E+00  0.000E+00  3.92408E+01  1.158E-01  2.000E+01  2.000E+04 -6.397E-02
   1   11   25     2     6    5.0616E+04 -1.3302E+03   5.1946E+04  0.000E+00  0.000E+00  0.000E+00  3.89926E+01  1.176E-01  2.000E+01  2.000E+04 -6.651E-02
   1   12   24     2     7    5.1946E+04 -1.4767E+03   5.3423E+04  0.000E+00  0.000E+00  0.000E+00  3.87446E+01  1.196E-01  2.000E+01  2.000E+04 -7.383E-02
   1   13   23     2     8    5.3423E+04 -2.2367E+02   5.3647E+04  0.000E+00  0.000E+00  0.000E+00  3.84957E+01  1.207E-01  2.000E+01  2.000E+04 -1.118E-02
   1   14   22     2     9    5.3647E+04  1.4492E+03   5.2198E+04  0.000E+00  0.000E+00  0.000E+00  3.82449E+01  1.199E-01  2.000E+01  2.000E+04  7.246E-02
   1   14   22     3     1    1.8844E+05 -8.7775E+03   1.9722E+05  0.000E+00  0.000E+00  0.000E+00  3.77335E+01  1.780E-01  2.000E+01  2.000E+04 -4.389E-01
   1   15   23     3     2    1.9722E+05 -6.7065E+02   1.9789E+05  0.000E+00  0.000E+00  0.000E+00  3.68473E+01  1.806E-01  2.000E+01  2.000E+04 -3.353E-02
   1   15   24     3     3    1.9789E+05 -3.4577E+02   1.9823E+05  0.000E+00  0.000E+00  0.000E+00  3.59587E+01  1.809E-01  2.000E+01  2.000E+04 -1.729E-02
   1   15   25     3     4    1.9823E+05 -3.3436E+02   1.9857E+05  0.000E+00  0.000E+00  0.000E+00  3.50699E+01  1.811E-01  2.000E+01  2.000E+04 -1.672E-02
   1   15   26     3     5    1.9857E+05 -3.6967E+02   1.9894E+05  0.000E+00  0.000E+00  0.000E+00  3.41813E+01  1.813E-01  2.000E+01  2.000E+04 -1.848E-02
   1   16   27     3     6    1.9894E+05 -4.3437E+02   1.9937E+05  0.000E+00  0.000E+00  0.000E+00  3.32926E+01  1.815E-01  2.000E+01  2.000E+04 -2.172E-02
   1   17   28     3     7    1.9937E+05 -1.8497E+03   2.0122E+05  0.000E+00  0.000E+00  0.000E+00  3.24043E+01  1.821E-01  2.000E+01  2.000E+04 -9.249E-02
   1   18   29     3     8    2.0122E+05 -3.5548E+03   2.0477E+05  0.000E+00  0.000E+00  0.000E+00  3.15169E+01  1.836E-01  2.000E+01  2.000E+04 -1.777E-01
   1   18   30     3     9    2.0477E+05 -3.5567E+03   2.0833E+05  0.000E+00  0.000E+00  0.000E+00  3.06299E+01  1.855E-01  2.000E+01  2.000E+04 -1.778E-01



1
              HEAD IN LAYER   1 AT END OF TIME STEP   1 IN STRESS PERIOD    3
  ---------------------------------------------------------------------------

          1      2      3      4      5      6      7      8      9     10
         11     12     13     14     15     16     17     18     19     20
         21     22     23     24     25     26     27     28     29     30
 .........................................................................
   1  ****** ****** ****** ****** ****** ****** ****** ****** ****** ******
      ****** ****** ****** ****** ****** ****** ****** ****** ****** ******
      ****** ****** ****** ****** ****** ****** ****** ****** ****** ******
   2  ****** ****** ****** ****** ****** ****** ****** ****** ****** ******
      ****** ****** ****** ****** ****** ****** ****** ****** ****** ******
      ****** ****** ****** ****** ****** ****** ****** ****** ****** ******
   3  ****** ****** ****** ****** ****** ****** ****** ****** ****** ******
      ****** ****** ****** ****** ****** ****** ****** ****** ****** ******
      ****** ****** ****** ****** ****** ****** ****** ****** ****** ******
   4  ****** ****** ****** ****** ****** ****** ****** ****** ****** ******
      ****** ****** ****** ****** ****** ****** ****** ****** ****** ******
      ****** ****** ****** ****** ****** ****** ****** ****** ****** ******
   5  ****** ****** ****** ****** ****** ****** ****** ****** ****** ******
      ****** ****** ****** ****** ****** ****** ****** ****** ****** ******
      ****** ****** ****** ****** ****** ****** ****** ****** ****** ******
   6  ****** ****** ****** ****** ****** ****** ****** ****** ****** ******
      ****** ****** ****** ****** ****** ****** ****** ****** ****** ******
      ****** ****** ****** ****** ****** ****** ****** ****** ****** ******
   7  ****** ****** ****** ****** ****** ****** ****** ****** ****** ******
      ****** ****** ****** ****** ****** ****** ****** ****** ****** ******
      ****** ****** ****** ****** ****** ****** ****** ****** ****** ******
   8  ****** ****** ****** ****** ****** ****** ****** ****** ****** ******
      ****** ****** ****** ****** ****** ****** ****** ****** ****** ******
      ****** ****** ****** ****** ****** ****** ****** ****** ****** ******
   9  ****** ****** ****** ****** ****** ****** ****** ****** ****** ******
      ****** ****** ****** ****** ****** ****** ****** ****** ****** ******
      ****** ****** ****** ****** ****** ****** ****** ****** ****** ******
  10  ****** ****** ****** ****** ****** ****** ****** ****** ****** ******
      ****** ****** ****** ****** ****** ****** ****** ****** ****** ******
      ****** ****** ****** ****** ****** ****** ****** ****** ****** ******
  11  ****** ****** ****** ****** ****** ****** ****** ****** ****** ******
      ****** ****** ****** ****** ****** ****** ****** ****** ****** ******
      ****** ****** ****** ****** ****** ****** ****** ****** ****** ******
  12  ****** ****** ****** ****** ****** ****** ****** ****** ****** ******
      ****** ****** ****** ****** ****** ****** ****** ****** ****** ******
      ****** ****** ****** ****** ****** ****** ****** ****** ****** ******
  13  ****** ****** ****** ****** ****** ****** ****** ****** ****** ******
      ****** ****** ****** ****** ****** ****** ****** ****** ****** ******
      ****** ****** ****** ****** ****** ****** ****** ****** ****** ******
  14  ****** ****** ****** ****** ****** ****** ****** ****** ****** ******
      ****** ****** ****** ****** ****** ****** ****** ****** ****** ******
      ****** ****** ****** ****** ****** ****** ****** ****** ****** ******
  15  ****** ****** ****** ****** ****** ****** ****** ****** ****** ******
      ****** ****** ****** ****** ****** ****** ****** ****** ****** ******
      ****** ****** ****** ****** ****** ****** ****** ****** ****** ******
  16  ****** ****** ****** ****** ****** ****** ****** ****** ****** ******
      ****** ****** ****** ****** ****** ****** ****** ****** ****** ******
      ****** ****** ****** ****** ****** ****** ****** ****** ****** ******
  17  ****** ****** ****** ****** ****** ****** ****** ****** ****** ******
      ****** ****** ****** ****** ****** ****** ****** ****** ****** ******
      ****** ****** ****** ****** ****** ****** ****** ****** ****** ******
  18  ****** ****** ****** ****** ****** ****** ****** ****** ****** ******
      ****** ****** ****** ****** ****** ****** ****** ****** ****** ******
      ****** ****** ****** ****** ****** ****** ****** ****** ****** ******
  19  ****** ****** ****** ****** ****** ****** ****** ****** ****** ******
      ****** ****** ****** ****** ****** ****** ****** ****** ****** ******
      ****** ****** ****** ****** ****** ****** ****** ****** ****** ******
  20  ****** ****** ****** ****** ****** ****** ****** ****** ****** ******
      ****** ****** ****** ****** ****** ****** ****** ****** ****** ******
      ****** ****** ****** ****** ****** ****** ****** ****** ****** ******
  21  ****** ****** ****** ****** ****** ****** ****** ****** ****** ******
      ****** ****** ****** ****** ****** ****** ****** ****** ****** ******
      ****** ****** ****** ****** ****** ****** ****** ****** ****** ******
  22  ****** ****** ****** ****** ****** ****** ****** ****** ****** ******
      ****** ****** ****** ****** ****** ****** ****** ****** ****** ******
      ****** ****** ****** ****** ****** ****** ****** ****** ****** ******
  23  ****** ****** ****** ****** ****** ****** ****** ****** ****** ******
      ****** ****** ****** ****** ****** ****** ****** ****** ****** ******
      ****** ****** ****** ****** ****** ****** ****** ****** ****** ******
  24  ****** ****** ****** ****** ****** ****** ****** ****** ****** ******
      ****** ****** ****** ****** ****** ****** ****** ****** ****** ******
      ****** ****** ****** ****** ****** ****** ****** ****** ****** ******
  25  ****** ****** ****** ****** ****** ****** ****** ****** ****** ******
      ****** ****** ****** ****** ****** ****** ****** ****** ****** ******
      ****** ****** ****** ****** ****** ****** ****** ****** ****** ******

 HEAD WILL BE SAVED ON UNIT   51 AT END OF TIME STEP    1, STRESS PERIOD    3
1
  VOLUMETRIC BUDGET FOR ENTIRE MODEL AT END OF TIME STEP    1, STRESS PERIOD   3
  ------------------------------------------------------------------------------

     CUMULATIVE VOLUMES      L**3       RATES FOR THIS TIME STEP      L**3/T
     ------------------                 ------------------------

           IN:                                      IN:
           ---                                      ---
             STORAGE =    28811891.8855               STORAGE =       58802.5561
       CONSTANT HEAD =     5478596.7870         CONSTANT HEAD =       27829.7422
               WELLS =           0.0000                 WELLS =           0.0000
            RECHARGE =     6292800.0000              RECHARGE =           0.0000
      STREAM LEAKAGE =     1564458.2085        STREAM LEAKAGE =        7903.2134

            TOTAL IN =    42147746.8809              TOTAL IN =       94535.5117

          OUT:                                     OUT:
          ----                                     ----
             STORAGE =           0.0000               STORAGE =           0.0000
       CONSTANT HEAD =           0.0000         CONSTANT HEAD =           0.0000
               WELLS =     7754488.7770                 WELLS =       28301.0539
            RECHARGE =           0.0000              RECHARGE =           0.0000
      STREAM LEAKAGE =    34393260.0100        STREAM LEAKAGE =       66234.4652

           TOTAL OUT =    42147748.7870             TOTAL OUT =       94535.5191

            IN - OUT =          -1.9061              IN - OUT =      -7.4395E-03

 PERCENT DISCREPANCY =          -0.00     PERCENT DISCREPANCY =          -0.00






         TIME SUMMARY AT END OF TIME STEP    1 IN STRESS PERIOD    3
                    SECONDS     MINUTES      HOURS       DAYS        YEARS
                    -----------------------------------------------------------
   TIME STEP LENGTH 7.86240E+06 1.31040E+05  2184.0      91.000     0.24914    
 STRESS PERIOD TIME 7.86240E+06 1.31040E+05  2184.0      91.000     0.24914    
         TOTAL TIME 2.36736E+07 3.94560E+05  6576.0      274.00     0.75017    
1
1
                            STRESS PERIOD NO.    4, LENGTH =   91.00000    
                            -----------------------------------------------

                              NUMBER OF TIME STEPS =     1

                               MULTIPLIER FOR DELT =     1.500

                            INITIAL TIME STEP SIZE =   91.00000    

 WELL NO.  LAYER   ROW   COL   STRESS RATE         
 --------------------------------------------------
      1      1     14      6       0.000    
      2      1      3      9       0.000    
      3      1     20     10       0.000    
      4      1     14     20       0.000    
      5      1      4     13      -4782.    
      6      1      6     16      -7373.    
      7      1      4      8      -5811.    
      8      1      7     28     -0.1033E+05

      8 WELLS

                 RECHARGE =  1.000000E-03

 REUSING STREAM SEGMENT DATA FROM LAST STRESS PERIOD
 
 SOLVING FOR HEAD 


     6 CALLS TO PCG ROUTINE FOR TIME STEP   1 IN STRESS PERIOD    4
    23 TOTAL ITERATIONS

 OUTPUT CONTROL FOR STRESS PERIOD    4   TIME STEP    1
    SAVE BUDGET
    SAVE HEAD FOR ALL LAYERS
    PRINT HEAD FOR ALL LAYERS
 UBDSV2 SAVING "STREAMFLOW OUT  " ON UNIT  50 AT TIME STEP  1, STRESS PERIOD   4



 STREAM LISTING     PERIOD      4   STEP        1

 LAYER ROW COL. STREAM  RCH.  FLOW INTO     FLOW TO   FLOW OUT OF   OVRLND.     DIRECT     STREAM       STREAM     STREAM     STREAM   STREAMBED  STREAMBED
                SEG.NO.  NO.  STRM. RCH.    AQUIFER    STRM. RCH.    RUNOFF     PRECIP       ET          HEAD       DEPTH      WIDTH   CONDCTNC.   GRADIENT

   1   13    1     1     1    1.0000E+05 -2.0737E+03   1.0207E+05  0.000E+00  0.000E+00  0.000E+00  4.84069E+01  1.456E-01  2.000E+01  2.000E+04 -1.037E-01
   1   13    2     1     2    1.0207E+05 -3.1101E+03   1.0518E+05  0.000E+00  0.000E+00  0.000E+00  4.79319E+01  1.478E-01  2.000E+01  2.000E+04 -1.555E-01
   1   14    3     1     3    1.0518E+05 -5.9407E+02   1.0578E+05  0.000E+00  0.000E+00  0.000E+00  4.74562E+01  1.494E-01  2.000E+01  2.000E+04 -2.970E-02
   1   15    4     1     4    1.0578E+05 -5.8219E+02   1.0636E+05  0.000E+00  0.000E+00  0.000E+00  4.69794E+01  1.499E-01  2.000E+01  2.000E+04 -2.911E-02
   1   16    5     1     5    1.0636E+05 -2.1641E+03   1.0852E+05  0.000E+00  0.000E+00  0.000E+00  4.65033E+01  1.510E-01  2.000E+01  2.000E+04 -1.082E-01
   1   16    6     1     6    1.0852E+05 -1.3533E+03   1.0988E+05  0.000E+00  0.000E+00  0.000E+00  4.60275E+01  1.525E-01  2.000E+01  2.000E+04 -6.766E-02
   1   16    7     1     7    1.0988E+05 -1.3278E+03   1.1121E+05  0.000E+00  0.000E+00  0.000E+00  4.55513E+01  1.536E-01  2.000E+01  2.000E+04 -6.639E-02
   1   16    8     1     8    1.1121E+05 -1.3223E+03   1.1253E+05  0.000E+00  0.000E+00  0.000E+00  4.50752E+01  1.547E-01  2.000E+01  2.000E+04 -6.611E-02
   1   16    9     1     9    1.1253E+05 -1.3119E+03   1.1384E+05  0.000E+00  0.000E+00  0.000E+00  4.45990E+01  1.558E-01  2.000E+01  2.000E+04 -6.559E-02
   1   16   10     1    10    1.1384E+05 -1.2964E+03   1.1514E+05  0.000E+00  0.000E+00  0.000E+00  4.41228E+01  1.569E-01  2.000E+01  2.000E+04 -6.482E-02
   1   16   11     1    11    1.1514E+05 -1.3037E+03   1.1644E+05  0.000E+00  0.000E+00  0.000E+00  4.36466E+01  1.580E-01  2.000E+01  2.000E+04 -6.518E-02
   1   16   12     1    12    1.1644E+05 -2.2189E+03   1.1866E+05  0.000E+00  0.000E+00  0.000E+00  4.31708E+01  1.594E-01  2.000E+01  2.000E+04 -1.109E-01
   1   15   13     1    13    1.1866E+05 -1.9548E+03   1.2061E+05  0.000E+00  0.000E+00  0.000E+00  4.26952E+01  1.611E-01  2.000E+01  2.000E+04 -9.774E-02
   1   14   14     1    14    1.2061E+05 -2.0430E+03   1.2266E+05  0.000E+00  0.000E+00  0.000E+00  4.22195E+01  1.627E-01  2.000E+01  2.000E+04 -1.022E-01
   1   13   15     1    15    1.2266E+05 -2.0922E+03   1.2475E+05  0.000E+00  0.000E+00  0.000E+00  4.17439E+01  1.643E-01  2.000E+01  2.000E+04 -1.046E-01
   1   12   16     1    16    1.2475E+05 -2.2458E+03   1.2699E+05  0.000E+00  0.000E+00  0.000E+00  4.12683E+01  1.661E-01  2.000E+01  2.000E+04 -1.123E-01
   1   12   17     1    17    1.2699E+05 -1.5768E+03   1.2857E+05  0.000E+00  0.000E+00  0.000E+00  4.07926E+01  1.676E-01  2.000E+01  2.000E+04 -7.884E-02
   1   12   18     1    18    1.2857E+05 -1.5652E+03   1.3014E+05  0.000E+00  0.000E+00  0.000E+00  4.03165E+01  1.688E-01  2.000E+01  2.000E+04 -7.826E-02
   1   12   19     1    19    1.3014E+05 -2.0391E+03   1.3218E+05  0.000E+00  0.000E+00  0.000E+00  3.98407E+01  1.702E-01  2.000E+01  2.000E+04 -1.020E-01
   1   13   20     1    20    1.3218E+05 -1.8887E+03   1.3406E+05  0.000E+00  0.000E+00  0.000E+00  3.93649E+01  1.717E-01  2.000E+01  2.000E+04 -9.444E-02
   1   14   21     1    21    1.3406E+05 -2.0240E+03   1.3609E+05  0.000E+00  0.000E+00  0.000E+00  3.88892E+01  1.732E-01  2.000E+01  2.000E+04 -1.012E-01
   1   14   22     1    22    1.3609E+05  4.8785E+03   1.3121E+05  0.000E+00  0.000E+00  0.000E+00  3.84108E+01  1.721E-01  2.000E+01  2.000E+04  2.439E-01
   1    9   30     2     1    5.0000E+04  5.8993E+02   4.9410E+04  0.000E+00  0.000E+00  0.000E+00  4.02405E+01  1.155E-01  2.000E+01  2.000E+04  2.950E-02
   1    9   29     2     2    4.9410E+04  5.9888E+02   4.8811E+04  0.000E+00  0.000E+00  0.000E+00  3.99896E+01  1.146E-01  2.000E+01  2.000E+04  2.994E-02
   1    9   28     2     3    4.8811E+04  8.3136E+02   4.7980E+04  0.000E+00  0.000E+00  0.000E+00  3.97386E+01  1.136E-01  2.000E+01  2.000E+04  4.157E-02
   1    9   27     2     4    4.7980E+04 -6.0571E+02   4.8586E+04  0.000E+00  0.000E+00  0.000E+00  3.94885E+01  1.135E-01  2.000E+01  2.000E+04 -3.029E-02
   1   10   26     2     5    4.8586E+04 -1.0688E+03   4.9654E+04  0.000E+00  0.000E+00  0.000E+00  3.92396E+01  1.146E-01  2.000E+01  2.000E+04 -5.344E-02
   1   11   25     2     6    4.9654E+04 -1.1666E+03   5.0821E+04  0.000E+00  0.000E+00  0.000E+00  3.89912E+01  1.162E-01  2.000E+01  2.000E+04 -5.833E-02
   1   12   24     2     7    5.0821E+04 -1.3327E+03   5.2154E+04  0.000E+00  0.000E+00  0.000E+00  3.87429E+01  1.179E-01  2.000E+01  2.000E+04 -6.664E-02
   1   13   23     2     8    5.2154E+04 -2.4235E+02   5.2396E+04  0.000E+00  0.000E+00  0.000E+00  3.84940E+01  1.190E-01  2.000E+01  2.000E+04 -1.212E-02
   1   14   22     2     9    5.2396E+04  1.5252E+03   5.0871E+04  0.000E+00  0.000E+00  0.000E+00  3.82431E+01  1.181E-01  2.000E+01  2.000E+04  7.626E-02
   1   14   22     3     1    1.8208E+05 -8.7374E+03   1.9082E+05  0.000E+00  0.000E+00  0.000E+00  3.77300E+01  1.744E-01  2.000E+01  2.000E+04 -4.369E-01
   1   15   23     3     2    1.9082E+05 -6.5227E+02   1.9147E+05  0.000E+00  0.000E+00  0.000E+00  3.68437E+01  1.771E-01  2.000E+01  2.000E+04 -3.261E-02
   1   15   24     3     3    1.9147E+05 -3.4749E+02   1.9182E+05  0.000E+00  0.000E+00  0.000E+00  3.59551E+01  1.773E-01  2.000E+01  2.000E+04 -1.737E-02
   1   15   25     3     4    1.9182E+05 -3.3549E+02   1.9215E+05  0.000E+00  0.000E+00  0.000E+00  3.50664E+01  1.775E-01  2.000E+01  2.000E+04 -1.677E-02
   1   15   26     3     5    1.9215E+05 -3.7991E+02   1.9253E+05  0.000E+00  0.000E+00  0.000E+00  3.41777E+01  1.777E-01  2.000E+01  2.000E+04 -1.900E-02
   1   16   27     3     6    1.9253E+05 -4.3679E+02   1.9297E+05  0.000E+00  0.000E+00  0.000E+00  3.32891E+01  1.780E-01  2.000E+01  2.000E+04 -2.184E-02
   1   17   28     3     7    1.9297E+05 -1.7938E+03   1.9476E+05  0.000E+00  0.000E+00  0.000E+00  3.24008E+01  1.786E-01  2.000E+01  2.000E+04 -8.969E-02
   1   18   29     3     8    1.9476E+05 -3.3540E+03   1.9812E+05  0.000E+00  0.000E+00  0.000E+00  3.15133E+01  1.800E-01  2.000E+01  2.000E+04 -1.677E-01
   1   18   30     3     9    1.9812E+05 -3.4588E+03   2.0158E+05  0.000E+00  0.000E+00  0.000E+00  3.06263E+01  1.819E-01  2.000E+01  2.000E+04 -1.729E-01



1
              HEAD IN LAYER   1 AT END OF TIME STEP   1 IN STRESS PERIOD    4
  ---------------------------------------------------------------------------

          1      2      3      4      5      6      7      8      9     10
         11     12     13     14     15     16     17     18     19     20
         21     22     23     24     25     26     27     28     29     30
 .........................................................................
   1  ****** ****** ****** ****** ****** ****** ****** ****** ****** ******
      ****** ****** ****** ****** ****** ****** ****** ****** ****** ******
      ****** ****** ****** ****** ****** ****** ****** ****** ****** ******
   2  ****** ****** ****** ****** ****** ****** ****** ****** ****** ******
      ****** ****** ****** ****** ****** ****** ****** ****** ****** ******
      ****** ****** ****** ****** ****** ****** ****** ****** ****** ******
   3  ****** ****** ****** ****** ****** ****** ****** ****** ****** ******
      ****** ****** ****** ****** ****** ****** ****** ****** ****** ******
      ****** ****** ****** ****** ****** ****** ****** ****** ****** ******
   4  ****** ****** ****** ****** ****** ****** ****** ****** ****** ******
      ****** ****** ****** ****** ****** ****** ****** ****** ****** ******
      ****** ****** ****** ****** ****** ****** ****** ****** ****** ******
   5  ****** ****** ****** ****** ****** ****** ****** ****** ****** ******
      ****** ****** ****** ****** ****** ****** ****** ****** ****** ******
      ****** ****** ****** ****** ****** ****** ****** ****** ****** ******
   6  ****** ****** ****** ****** ****** ****** ****** ****** ****** ******
      ****** ****** ****** ****** ****** ****** ****** ****** ****** ******
      ****** ****** ****** ****** ****** ****** ****** ****** ****** ******
   7  ****** ****** ****** ****** ****** ****** ****** ****** ****** ******
      ****** ****** ****** ****** ****** ****** ****** ****** ****** ******
      ****** ****** ****** ****** ****** ****** ****** ****** ****** ******
   8  ****** ****** ****** ****** ****** ****** ****** ****** ****** ******
      ****** ****** ****** ****** ****** ****** ****** ****** ****** ******
      ****** ****** ****** ****** ****** ****** ****** ****** ****** ******
   9  ****** ****** ****** ****** ****** ****** ****** ****** ****** ******
      ****** ****** ****** ****** ****** ****** ****** ****** ****** ******
      ****** ****** ****** ****** ****** ****** ****** ****** ****** ******
  10  ****** ****** ****** ****** ****** ****** ****** ****** ****** ******
      ****** ****** ****** ****** ****** ****** ****** ****** ****** ******
      ****** ****** ****** ****** ****** ****** ****** ****** ****** ******
  11  ****** ****** ****** ****** ****** ****** ****** ****** ****** ******
      ****** ****** ****** ****** ****** ****** ****** ****** ****** ******
      ****** ****** ****** ****** ****** ****** ****** ****** ****** ******
  12  ****** ****** ****** ****** ****** ****** ****** ****** ****** ******
      ****** ****** ****** ****** ****** ****** ****** ****** ****** ******
      ****** ****** ****** ****** ****** ****** ****** ****** ****** ******
  13  ****** ****** ****** ****** ****** ****** ****** ****** ****** ******
      ****** ****** ****** ****** ****** ****** ****** ****** ****** ******
      ****** ****** ****** ****** ****** ****** ****** ****** ****** ******
  14  ****** ****** ****** ****** ****** ****** ****** ****** ****** ******
      ****** ****** ****** ****** ****** ****** ****** ****** ****** ******
      ****** ****** ****** ****** ****** ****** ****** ****** ****** ******
  15  ****** ****** ****** ****** ****** ****** ****** ****** ****** ******
      ****** ****** ****** ****** ****** ****** ****** ****** ****** ******
      ****** ****** ****** ****** ****** ****** ****** ****** ****** ******
  16  ****** ****** ****** ****** ****** ****** ****** ****** ****** ******
      ****** ****** ****** ****** ****** ****** ****** ****** ****** ******
      ****** ****** ****** ****** ****** ****** ****** ****** ****** ******
  17  ****** ****** ****** ****** ****** ****** ****** ****** ****** ******
      ****** ****** ****** ****** ****** ****** ****** ****** ****** ******
      ****** ****** ****** ****** ****** ****** ****** ****** ****** ******
  18  ****** ****** ****** ****** ****** ****** ****** ****** ****** ******
      ****** ****** ****** ****** ****** ****** ****** ****** ****** ******
      ****** ****** ****** ****** ****** ****** ****** ****** ****** ******
  19  ****** ****** ****** ****** ****** ****** ****** ****** ****** ******
      ****** ****** ****** ****** ****** ****** ****** ****** ****** ******
      ****** ****** ****** ****** ****** ****** ****** ****** ****** ******
  20  ****** ****** ****** ****** ****** ****** ****** ****** ****** ******
      ****** ****** ****** ****** ****** ****** ****** ****** ****** ******
      ****** ****** ****** ****** ****** ****** ****** ****** ****** ******
  21  ****** ****** ****** ****** ****** ****** ****** ****** ****** ******
      ****** ****** ****** ****** ****** ****** ****** ****** ****** ******
      ****** ****** ****** ****** ****** ****** ****** ****** ****** ******
  22  ****** ****** ****** ****** ****** ****** ****** ****** ****** ******
      ****** ****** ****** ****** ****** ****** ****** ****** ****** ******
      ****** ****** ****** ****** ****** ****** ****** ****** ****** ******
  23  ****** ****** ****** ****** ****** ****** ****** ****** ****** ******
      ****** ****** ****** ****** ****** ****** ****** ****** ****** ******
      ****** ****** ****** ****** ****** ****** ****** ****** ****** ******
  24  ****** ****** ****** ****** ****** ****** ****** ****** ****** ******
      ****** ****** ****** ****** ****** ****** ****** ****** ****** ******
      ****** ****** ****** ****** ****** ****** ****** ****** ****** ******
  25  ****** ****** ****** ****** ****** ****** ****** ****** ****** ******
      ****** ****** ****** ****** ****** ****** ****** ****** ****** ******
      ****** ****** ****** ****** ****** ****** ****** ****** ****** ******

 HEAD WILL BE SAVED ON UNIT   51 AT END OF TIME STEP    1, STRESS PERIOD    4
1
  VOLUMETRIC BUDGET FOR ENTIRE MODEL AT END OF TIME STEP    1, STRESS PERIOD   4
  ------------------------------------------------------------------------------

     CUMULATIVE VOLUMES      L**3       RATES FOR THIS TIME STEP      L**3/T
     ------------------                 ------------------------

           IN:                                      IN:
           ---                                      ---
             STORAGE =    30766989.8333               STORAGE =       21484.5928
       CONSTANT HEAD =     8281902.2769         CONSTANT HEAD =       30805.5548
               WELLS =           0.0000                 WELLS =           0.0000
            RECHARGE =     8804400.0000              RECHARGE =       27600.0000
      STREAM LEAKAGE =     2331027.1952        STREAM LEAKAGE =        8423.8350

            TOTAL IN =    50184319.3054              TOTAL IN =       88313.9827

          OUT:                                     OUT:
          ----                                     ----
             STORAGE =        1139.0820               STORAGE =          12.5174
       CONSTANT HEAD =           0.0000         CONSTANT HEAD =           0.0000
               WELLS =    10329884.6846                 WELLS =       28301.0539
            RECHARGE =           0.0000              RECHARGE =           0.0000
      STREAM LEAKAGE =    39853297.5328        STREAM LEAKAGE =       60000.4123

           TOTAL OUT =    50184321.2995             TOTAL OUT =       88313.9837

            IN - OUT =          -1.9940              IN - OUT =      -9.6642E-04

 PERCENT DISCREPANCY =          -0.00     PERCENT DISCREPANCY =          -0.00






         TIME SUMMARY AT END OF TIME STEP    1 IN STRESS PERIOD    4
                    SECONDS     MINUTES      HOURS       DAYS        YEARS
                    -----------------------------------------------------------
   TIME STEP LENGTH 7.86240E+06 1.31040E+05  2184.0      91.000     0.24914    
 STRESS PERIOD TIME 7.86240E+06 1.31040E+05  2184.0      91.000     0.24914    
         TOTAL TIME 3.15360E+07 5.25600E+05  8760.0      365.00     0.99932    
1
1
                            STRESS PERIOD NO.    5, LENGTH =   92.00000    
                            -----------------------------------------------

                              NUMBER OF TIME STEPS =     1

                               MULTIPLIER FOR DELT =     1.500

                            INITIAL TIME STEP SIZE =   92.00000    

 WELL NO.  LAYER   ROW   COL   STRESS RATE         
 --------------------------------------------------
      1      1     14      6       0.000    
      2      1      3      9       0.000    
      3      1     20     10       0.000    
      4      1     14     20       0.000    
      5      1      4     13      -4782.    
      6      1      6     16      -7373.    
      7      1      4      8      -5811.    
      8      1      7     28     -0.1033E+05

      8 WELLS

                 RECHARGE =  5.000000E-04

 REUSING STREAM SEGMENT DATA FROM LAST STRESS PERIOD
 
 SOLVING FOR HEAD 


     7 CALLS TO PCG ROUTINE FOR TIME STEP   1 IN STRESS PERIOD    5
    26 TOTAL ITERATIONS

 OUTPUT CONTROL FOR STRESS PERIOD    5   TIME STEP    1
    SAVE BUDGET
    SAVE HEAD FOR ALL LAYERS
    PRINT HEAD FOR ALL LAYERS
 UBDSV2 SAVING "STREAMFLOW OUT  " ON UNIT  50 AT TIME STEP  1, STRESS PERIOD   5



 STREAM LISTING     PERIOD      5   STEP        1

 LAYER ROW COL. STREAM  RCH.  FLOW INTO     FLOW TO   FLOW OUT OF   OVRLND.     DIRECT     STREAM       STREAM     STREAM     STREAM   STREAMBED  STREAMBED
                SEG.NO.  NO.  STRM. RCH.    AQUIFER    STRM. RCH.    RUNOFF     PRECIP       ET          HEAD       DEPTH      WIDTH   CONDCTNC.   GRADIENT

   1   13    1     1     1    1.0000E+05 -1.5832E+03   1.0158E+05  0.000E+00  0.000E+00  0.000E+00  4.84067E+01  1.453E-01  2.000E+01  2.000E+04 -7.916E-02
   1   13    2     1     2    1.0158E+05 -2.5555E+03   1.0414E+05  0.000E+00  0.000E+00  0.000E+00  4.79312E+01  1.471E-01  2.000E+01  2.000E+04 -1.278E-01
   1   14    3     1     3    1.0414E+05 -4.6276E+02   1.0460E+05  0.000E+00  0.000E+00  0.000E+00  4.74552E+01  1.484E-01  2.000E+01  2.000E+04 -2.314E-02
   1   15    4     1     4    1.0460E+05 -4.4730E+02   1.0505E+05  0.000E+00  0.000E+00  0.000E+00  4.69783E+01  1.488E-01  2.000E+01  2.000E+04 -2.236E-02
   1   16    5     1     5    1.0505E+05 -1.7342E+03   1.0678E+05  0.000E+00  0.000E+00  0.000E+00  4.65020E+01  1.497E-01  2.000E+01  2.000E+04 -8.671E-02
   1   16    6     1     6    1.0678E+05 -1.0985E+03   1.0788E+05  0.000E+00  0.000E+00  0.000E+00  4.60259E+01  1.509E-01  2.000E+01  2.000E+04 -5.493E-02
   1   16    7     1     7    1.0788E+05 -1.0829E+03   1.0896E+05  0.000E+00  0.000E+00  0.000E+00  4.55496E+01  1.518E-01  2.000E+01  2.000E+04 -5.415E-02
   1   16    8     1     8    1.0896E+05 -1.0813E+03   1.1005E+05  0.000E+00  0.000E+00  0.000E+00  4.50732E+01  1.528E-01  2.000E+01  2.000E+04 -5.407E-02
   1   16    9     1     9    1.1005E+05 -1.0748E+03   1.1112E+05  0.000E+00  0.000E+00  0.000E+00  4.45968E+01  1.537E-01  2.000E+01  2.000E+04 -5.374E-02
   1   16   10     1    10    1.1112E+05 -1.0645E+03   1.1219E+05  0.000E+00  0.000E+00  0.000E+00  4.41205E+01  1.545E-01  2.000E+01  2.000E+04 -5.322E-02
   1   16   11     1    11    1.1219E+05 -1.0737E+03   1.1326E+05  0.000E+00  0.000E+00  0.000E+00  4.36441E+01  1.554E-01  2.000E+01  2.000E+04 -5.369E-02
   1   16   12     1    12    1.1326E+05 -1.8037E+03   1.1506E+05  0.000E+00  0.000E+00  0.000E+00  4.31680E+01  1.566E-01  2.000E+01  2.000E+04 -9.018E-02
   1   15   13     1    13    1.1506E+05 -1.4950E+03   1.1656E+05  0.000E+00  0.000E+00  0.000E+00  4.26921E+01  1.580E-01  2.000E+01  2.000E+04 -7.475E-02
   1   14   14     1    14    1.1656E+05 -1.5378E+03   1.1810E+05  0.000E+00  0.000E+00  0.000E+00  4.22160E+01  1.592E-01  2.000E+01  2.000E+04 -7.689E-02
   1   13   15     1    15    1.1810E+05 -1.5528E+03   1.1965E+05  0.000E+00  0.000E+00  0.000E+00  4.17400E+01  1.605E-01  2.000E+01  2.000E+04 -7.764E-02
   1   12   16     1    16    1.1965E+05 -1.6301E+03   1.2128E+05  0.000E+00  0.000E+00  0.000E+00  4.12640E+01  1.617E-01  2.000E+01  2.000E+04 -8.150E-02
   1   12   17     1    17    1.2128E+05 -1.1787E+03   1.2246E+05  0.000E+00  0.000E+00  0.000E+00  4.07879E+01  1.629E-01  2.000E+01  2.000E+04 -5.893E-02
   1   12   18     1    18    1.2246E+05 -1.1912E+03   1.2365E+05  0.000E+00  0.000E+00  0.000E+00  4.03116E+01  1.638E-01  2.000E+01  2.000E+04 -5.956E-02
   1   12   19     1    19    1.2365E+05 -1.5837E+03   1.2523E+05  0.000E+00  0.000E+00  0.000E+00  3.98354E+01  1.649E-01  2.000E+01  2.000E+04 -7.918E-02
   1   13   20     1    20    1.2523E+05 -1.5191E+03   1.2675E+05  0.000E+00  0.000E+00  0.000E+00  3.93593E+01  1.662E-01  2.000E+01  2.000E+04 -7.595E-02
   1   14   21     1    21    1.2675E+05 -1.6511E+03   1.2840E+05  0.000E+00  0.000E+00  0.000E+00  3.88833E+01  1.674E-01  2.000E+01  2.000E+04 -8.256E-02
   1   14   22     1    22    1.2840E+05  4.9579E+03   1.2344E+05  0.000E+00  0.000E+00  0.000E+00  3.84047E+01  1.661E-01  2.000E+01  2.000E+04  2.479E-01
   1    9   30     2     1    5.0000E+04  8.3830E+02   4.9162E+04  0.000E+00  0.000E+00  0.000E+00  4.02403E+01  1.153E-01  2.000E+01  2.000E+04  4.191E-02
   1    9   29     2     2    4.9162E+04  8.5173E+02   4.8310E+04  0.000E+00  0.000E+00  0.000E+00  3.99891E+01  1.141E-01  2.000E+01  2.000E+04  4.259E-02
   1    9   28     2     3    4.8310E+04  1.0987E+03   4.7211E+04  0.000E+00  0.000E+00  0.000E+00  3.97377E+01  1.127E-01  2.000E+01  2.000E+04  5.493E-02
   1    9   27     2     4    4.7211E+04 -1.7667E+02   4.7388E+04  0.000E+00  0.000E+00  0.000E+00  3.94871E+01  1.121E-01  2.000E+01  2.000E+04 -8.833E-03
   1   10   26     2     5    4.7388E+04 -6.9803E+02   4.8086E+04  0.000E+00  0.000E+00  0.000E+00  3.92377E+01  1.127E-01  2.000E+01  2.000E+04 -3.490E-02
   1   11   25     2     6    4.8086E+04 -8.2686E+02   4.8913E+04  0.000E+00  0.000E+00  0.000E+00  3.89888E+01  1.138E-01  2.000E+01  2.000E+04 -4.134E-02
   1   12   24     2     7    4.8913E+04 -1.0208E+03   4.9934E+04  0.000E+00  0.000E+00  0.000E+00  3.87401E+01  1.151E-01  2.000E+01  2.000E+04 -5.104E-02
   1   13   23     2     8    4.9934E+04 -1.6968E+02   5.0103E+04  0.000E+00  0.000E+00  0.000E+00  3.84909E+01  1.159E-01  2.000E+01  2.000E+04 -8.484E-03
   1   14   22     2     9    5.0103E+04  1.6601E+03   4.8443E+04  0.000E+00  0.000E+00  0.000E+00  3.82399E+01  1.149E-01  2.000E+01  2.000E+04  8.300E-02
   1   14   22     3     1    1.7189E+05 -8.6534E+03   1.8054E+05  0.000E+00  0.000E+00  0.000E+00  3.77242E+01  1.686E-01  2.000E+01  2.000E+04 -4.327E-01
   1   15   23     3     2    1.8054E+05 -5.5639E+02   1.8110E+05  0.000E+00  0.000E+00  0.000E+00  3.68379E+01  1.713E-01  2.000E+01  2.000E+04 -2.782E-02
   1   15   24     3     3    1.8110E+05 -2.7663E+02   1.8137E+05  0.000E+00  0.000E+00  0.000E+00  3.59493E+01  1.715E-01  2.000E+01  2.000E+04 -1.383E-02
   1   15   25     3     4    1.8137E+05 -2.6504E+02   1.8164E+05  0.000E+00  0.000E+00  0.000E+00  3.50605E+01  1.716E-01  2.000E+01  2.000E+04 -1.325E-02
   1   15   26     3     5    1.8164E+05 -3.0831E+02   1.8195E+05  0.000E+00  0.000E+00  0.000E+00  3.41718E+01  1.718E-01  2.000E+01  2.000E+04 -1.542E-02
   1   16   27     3     6    1.8195E+05 -3.4721E+02   1.8229E+05  0.000E+00  0.000E+00  0.000E+00  3.32831E+01  1.720E-01  2.000E+01  2.000E+04 -1.736E-02
   1   17   28     3     7    1.8229E+05 -1.5293E+03   1.8382E+05  0.000E+00  0.000E+00  0.000E+00  3.23947E+01  1.725E-01  2.000E+01  2.000E+04 -7.647E-02
   1   18   29     3     8    1.8382E+05 -2.9875E+03   1.8681E+05  0.000E+00  0.000E+00  0.000E+00  3.15071E+01  1.738E-01  2.000E+01  2.000E+04 -1.494E-01
   1   18   30     3     9    1.8681E+05 -3.2057E+03   1.9002E+05  0.000E+00  0.000E+00  0.000E+00  3.06200E+01  1.755E-01  2.000E+01  2.000E+04 -1.603E-01



1
              HEAD IN LAYER   1 AT END OF TIME STEP   1 IN STRESS PERIOD    5
  ---------------------------------------------------------------------------

          1      2      3      4      5      6      7      8      9     10
         11     12     13     14     15     16     17     18     19     20
         21     22     23     24     25     26     27     28     29     30
 .........................................................................
   1  ****** ****** ****** ****** ****** ****** ****** ****** ****** ******
      ****** ****** ****** ****** ****** ****** ****** ****** ****** ******
      ****** ****** ****** ****** ****** ****** ****** ****** ****** ******
   2  ****** ****** ****** ****** ****** ****** ****** ****** ****** ******
      ****** ****** ****** ****** ****** ****** ****** ****** ****** ******
      ****** ****** ****** ****** ****** ****** ****** ****** ****** ******
   3  ****** ****** ****** ****** ****** ****** ****** ****** ****** ******
      ****** ****** ****** ****** ****** ****** ****** ****** ****** ******
      ****** ****** ****** ****** ****** ****** ****** ****** ****** ******
   4  ****** ****** ****** ****** ****** ****** ****** ****** ****** ******
      ****** ****** ****** ****** ****** ****** ****** ****** ****** ******
      ****** ****** ****** ****** ****** ****** ****** ****** ****** ******
   5  ****** ****** ****** ****** ****** ****** ****** ****** ****** ******
      ****** ****** ****** ****** ****** ****** ****** ****** ****** ******
      ****** ****** ****** ****** ****** ****** ****** ****** ****** ******
   6  ****** ****** ****** ****** ****** ****** ****** ****** ****** ******
      ****** ****** ****** ****** ****** ****** ****** ****** ****** ******
      ****** ****** ****** ****** ****** ****** ****** ****** ****** ******
   7  ****** ****** ****** ****** ****** ****** ****** ****** ****** ******
      ****** ****** ****** ****** ****** ****** ****** ****** ****** ******
      ****** ****** ****** ****** ****** ****** ****** ****** ****** ******
   8  ****** ****** ****** ****** ****** ****** ****** ****** ****** ******
      ****** ****** ****** ****** ****** ****** ****** ****** ****** ******
      ****** ****** ****** ****** ****** ****** ****** ****** ****** ******
   9  ****** ****** ****** ****** ****** ****** ****** ****** ****** ******
      ****** ****** ****** ****** ****** ****** ****** ****** ****** ******
      ****** ****** ****** ****** ****** ****** ****** ****** ****** ******
  10  ****** ****** ****** ****** ****** ****** ****** ****** ****** ******
      ****** ****** ****** ****** ****** ****** ****** ****** ****** ******
      ****** ****** ****** ****** ****** ****** ****** ****** ****** ******
  11  ****** ****** ****** ****** ****** ****** ****** ****** ****** ******
      ****** ****** ****** ****** ****** ****** ****** ****** ****** ******
      ****** ****** ****** ****** ****** ****** ****** ****** ****** ******
  12  ****** ****** ****** ****** ****** ****** ****** ****** ****** ******
      ****** ****** ****** ****** ****** ****** ****** ****** ****** ******
      ****** ****** ****** ****** ****** ****** ****** ****** ****** ******
  13  ****** ****** ****** ****** ****** ****** ****** ****** ****** ******
      ****** ****** ****** ****** ****** ****** ****** ****** ****** ******
      ****** ****** ****** ****** ****** ****** ****** ****** ****** ******
  14  ****** ****** ****** ****** ****** ****** ****** ****** ****** ******
      ****** ****** ****** ****** ****** ****** ****** ****** ****** ******
      ****** ****** ****** ****** ****** ****** ****** ****** ****** ******
  15  ****** ****** ****** ****** ****** ****** ****** ****** ****** ******
      ****** ****** ****** ****** ****** ****** ****** ****** ****** ******
      ****** ****** ****** ****** ****** ****** ****** ****** ****** ******
  16  ****** ****** ****** ****** ****** ****** ****** ****** ****** ******
      ****** ****** ****** ****** ****** ****** ****** ****** ****** ******
      ****** ****** ****** ****** ****** ****** ****** ****** ****** ******
  17  ****** ****** ****** ****** ****** ****** ****** ****** ****** ******
      ****** ****** ****** ****** ****** ****** ****** ****** ****** ******
      ****** ****** ****** ****** ****** ****** ****** ****** ****** ******
  18  ****** ****** ****** ****** ****** ****** ****** ****** ****** ******
      ****** ****** ****** ****** ****** ****** ****** ****** ****** ******
      ****** ****** ****** ****** ****** ****** ****** ****** ****** ******
  19  ****** ****** ****** ****** ****** ****** ****** ****** ****** ******
      ****** ****** ****** ****** ****** ****** ****** ****** ****** ******
      ****** ****** ****** ****** ****** ****** ****** ****** ****** ******
  20  ****** ****** ****** ****** ****** ****** ****** ****** ****** ******
      ****** ****** ****** ****** ****** ****** ****** ****** ****** ******
      ****** ****** ****** ****** ****** ****** ****** ****** ****** ******
  21  ****** ****** ****** ****** ****** ****** ****** ****** ****** ******
      ****** ****** ****** ****** ****** ****** ****** ****** ****** ******
      ****** ****** ****** ****** ****** ****** ****** ****** ****** ******
  22  ****** ****** ****** ****** ****** ****** ****** ****** ****** ******
      ****** ****** ****** ****** ****** ****** ****** ****** ****** ******
      ****** ****** ****** ****** ****** ****** ****** ****** ****** ******
  23  ****** ****** ****** ****** ****** ****** ****** ****** ****** ******
      ****** ****** ****** ****** ****** ****** ****** ****** ****** ******
      ****** ****** ****** ****** ****** ****** ****** ****** ****** ******
  24  ****** ****** ****** ****** ****** ****** ****** ****** ****** ******
      ****** ****** ****** ****** ****** ****** ****** ****** ****** ******
      ****** ****** ****** ****** ****** ****** ****** ****** ****** ******
  25  ****** ****** ****** ****** ****** ****** ****** ****** ****** ******
      ****** ****** ****** ****** ****** ****** ****** ****** ****** ******
      ****** ****** ****** ****** ****** ****** ****** ****** ****** ******

 HEAD WILL BE SAVED ON UNIT   51 AT END OF TIME STEP    1, STRESS PERIOD    5
1
  VOLUMETRIC BUDGET FOR ENTIRE MODEL AT END OF TIME STEP    1, STRESS PERIOD   5
  ------------------------------------------------------------------------------

     CUMULATIVE VOLUMES      L**3       RATES FOR THIS TIME STEP      L**3/T
     ------------------                 ------------------------

           IN:                                      IN:
           ---                                      ---
             STORAGE =    32654965.7447               STORAGE =       20521.4773
       CONSTANT HEAD =    11409554.7445         CONSTANT HEAD =       33996.2225
               WELLS =           0.0000                 WELLS =           0.0000
            RECHARGE =    10074000.0000              RECHARGE =       13800.0000
      STREAM LEAKAGE =     3196439.8935        STREAM LEAKAGE =        9406.6598

            TOTAL IN =    57334960.3826              TOTAL IN =       77724.3595

          OUT:                                     OUT:
          ----                                     ----
             STORAGE =        1139.0820               STORAGE =           0.0000
       CONSTANT HEAD =           0.0000         CONSTANT HEAD =           0.0000
               WELLS =    12933581.6462                 WELLS =       28301.0539
            RECHARGE =           0.0000              RECHARGE =           0.0000
      STREAM LEAKAGE =    44400241.9556        STREAM LEAKAGE =       49423.3089

           TOTAL OUT =    57334962.6838             TOTAL OUT =       77724.3629

            IN - OUT =          -2.3012              IN - OUT =      -3.3388E-03

 PERCENT DISCREPANCY =          -0.00     PERCENT DISCREPANCY =          -0.00






         TIME SUMMARY AT END OF TIME STEP    1 IN STRESS PERIOD    5
                    SECONDS     MINUTES      HOURS       DAYS        YEARS
                    -----------------------------------------------------------
   TIME STEP LENGTH 7.94880E+06 1.32480E+05  2208.0      92.000     0.25188    
 STRESS PERIOD TIME 7.94880E+06 1.32480E+05  2208.0      92.000     0.25188    
         TOTAL TIME 3.94848E+07 6.58080E+05  10968.      457.00      1.2512    
1
1
                            STRESS PERIOD NO.    6, LENGTH =   91.00000    
                            -----------------------------------------------

                              NUMBER OF TIME STEPS =     1

                               MULTIPLIER FOR DELT =     1.500

                            INITIAL TIME STEP SIZE =   91.00000    

 WELL NO.  LAYER   ROW   COL   STRESS RATE         
 --------------------------------------------------
      1      1     14      6       0.000    
      2      1      3      9       0.000    
      3      1     20     10       0.000    
      4      1     14     20       0.000    
      5      1      4     13      -4782.    
      6      1      6     16      -7373.    
      7      1      4      8      -5811.    
      8      1      7     28     -0.1033E+05

      8 WELLS

                 RECHARGE =  2.000000E-03

 REUSING STREAM SEGMENT DATA FROM LAST STRESS PERIOD
 
 SOLVING FOR HEAD 


     7 CALLS TO PCG ROUTINE FOR TIME STEP   1 IN STRESS PERIOD    6
    26 TOTAL ITERATIONS

 OUTPUT CONTROL FOR STRESS PERIOD    6   TIME STEP    1
    SAVE BUDGET
    SAVE HEAD FOR ALL LAYERS
    PRINT HEAD FOR ALL LAYERS
 UBDSV2 SAVING "STREAMFLOW OUT  " ON UNIT  50 AT TIME STEP  1, STRESS PERIOD   6



 STREAM LISTING     PERIOD      6   STEP        1

 LAYER ROW COL. STREAM  RCH.  FLOW INTO     FLOW TO   FLOW OUT OF   OVRLND.     DIRECT     STREAM       STREAM     STREAM     STREAM   STREAMBED  STREAMBED
                SEG.NO.  NO.  STRM. RCH.    AQUIFER    STRM. RCH.    RUNOFF     PRECIP       ET          HEAD       DEPTH      WIDTH   CONDCTNC.   GRADIENT

   1   13    1     1     1    1.0000E+05 -1.8423E+03   1.0184E+05  0.000E+00  0.000E+00  0.000E+00  4.84068E+01  1.455E-01  2.000E+01  2.000E+04 -9.212E-02
   1   13    2     1     2    1.0184E+05 -2.8364E+03   1.0468E+05  0.000E+00  0.000E+00  0.000E+00  4.79316E+01  1.475E-01  2.000E+01  2.000E+04 -1.418E-01
   1   14    3     1     3    1.0468E+05 -6.1009E+02   1.0529E+05  0.000E+00  0.000E+00  0.000E+00  4.74558E+01  1.489E-01  2.000E+01  2.000E+04 -3.050E-02
   1   15    4     1     4    1.0529E+05 -6.0827E+02   1.0590E+05  0.000E+00  0.000E+00  0.000E+00  4.69790E+01  1.495E-01  2.000E+01  2.000E+04 -3.041E-02
   1   16    5     1     5    1.0590E+05 -2.2303E+03   1.0813E+05  0.000E+00  0.000E+00  0.000E+00  4.65029E+01  1.507E-01  2.000E+01  2.000E+04 -1.115E-01
   1   16    6     1     6    1.0813E+05 -1.3868E+03   1.0951E+05  0.000E+00  0.000E+00  0.000E+00  4.60272E+01  1.522E-01  2.000E+01  2.000E+04 -6.934E-02
   1   16    7     1     7    1.0951E+05 -1.3554E+03   1.1087E+05  0.000E+00  0.000E+00  0.000E+00  4.55511E+01  1.533E-01  2.000E+01  2.000E+04 -6.777E-02
   1   16    8     1     8    1.1087E+05 -1.3494E+03   1.1222E+05  0.000E+00  0.000E+00  0.000E+00  4.50749E+01  1.545E-01  2.000E+01  2.000E+04 -6.747E-02
   1   16    9     1     9    1.1222E+05 -1.3432E+03   1.1356E+05  0.000E+00  0.000E+00  0.000E+00  4.45987E+01  1.556E-01  2.000E+01  2.000E+04 -6.716E-02
   1   16   10     1    10    1.1356E+05 -1.3358E+03   1.1490E+05  0.000E+00  0.000E+00  0.000E+00  4.41226E+01  1.567E-01  2.000E+01  2.000E+04 -6.679E-02
   1   16   11     1    11    1.1490E+05 -1.3503E+03   1.1625E+05  0.000E+00  0.000E+00  0.000E+00  4.36464E+01  1.578E-01  2.000E+01  2.000E+04 -6.751E-02
   1   16   12     1    12    1.1625E+05 -2.2479E+03   1.1850E+05  0.000E+00  0.000E+00  0.000E+00  4.31706E+01  1.592E-01  2.000E+01  2.000E+04 -1.124E-01
   1   15   13     1    13    1.1850E+05 -1.9338E+03   1.2043E+05  0.000E+00  0.000E+00  0.000E+00  4.26950E+01  1.609E-01  2.000E+01  2.000E+04 -9.669E-02
   1   14   14     1    14    1.2043E+05 -1.9602E+03   1.2239E+05  0.000E+00  0.000E+00  0.000E+00  4.22193E+01  1.625E-01  2.000E+01  2.000E+04 -9.801E-02
   1   13   15     1    15    1.2239E+05 -1.9451E+03   1.2434E+05  0.000E+00  0.000E+00  0.000E+00  4.17436E+01  1.641E-01  2.000E+01  2.000E+04 -9.726E-02
   1   12   16     1    16    1.2434E+05 -1.9576E+03   1.2629E+05  0.000E+00  0.000E+00  0.000E+00  4.12679E+01  1.656E-01  2.000E+01  2.000E+04 -9.788E-02
   1   12   17     1    17    1.2629E+05 -1.4641E+03   1.2776E+05  0.000E+00  0.000E+00  0.000E+00  4.07920E+01  1.670E-01  2.000E+01  2.000E+04 -7.321E-02
   1   12   18     1    18    1.2776E+05 -1.4851E+03   1.2924E+05  0.000E+00  0.000E+00  0.000E+00  4.03159E+01  1.681E-01  2.000E+01  2.000E+04 -7.426E-02
   1   12   19     1    19    1.2924E+05 -1.9488E+03   1.3119E+05  0.000E+00  0.000E+00  0.000E+00  3.98399E+01  1.695E-01  2.000E+01  2.000E+04 -9.744E-02
   1   13   20     1    20    1.3119E+05 -1.9322E+03   1.3312E+05  0.000E+00  0.000E+00  0.000E+00  3.93642E+01  1.710E-01  2.000E+01  2.000E+04 -9.661E-02
   1   14   21     1    21    1.3312E+05 -2.0665E+03   1.3519E+05  0.000E+00  0.000E+00  0.000E+00  3.88884E+01  1.725E-01  2.000E+01  2.000E+04 -1.033E-01
   1   14   22     1    22    1.3519E+05  4.8476E+03   1.3034E+05  0.000E+00  0.000E+00  0.000E+00  3.84101E+01  1.715E-01  2.000E+01  2.000E+04  2.424E-01
   1    9   30     2     1    5.0000E+04  4.8349E+02   4.9517E+04  0.000E+00  0.000E+00  0.000E+00  4.02405E+01  1.155E-01  2.000E+01  2.000E+04  2.417E-02
   1    9   29     2     2    4.9517E+04  5.0189E+02   4.9015E+04  0.000E+00  0.000E+00  0.000E+00  3.99898E+01  1.148E-01  2.000E+01  2.000E+04  2.509E-02
   1    9   28     2     3    4.9015E+04  7.5720E+02   4.8257E+04  0.000E+00  0.000E+00  0.000E+00  3.97390E+01  1.140E-01  2.000E+01  2.000E+04  3.786E-02
   1    9   27     2     4    4.8257E+04 -6.0000E+02   4.8857E+04  0.000E+00  0.000E+00  0.000E+00  3.94888E+01  1.138E-01  2.000E+01  2.000E+04 -3.000E-02
   1   10   26     2     5    4.8857E+04 -1.1499E+03   5.0007E+04  0.000E+00  0.000E+00  0.000E+00  3.92401E+01  1.151E-01  2.000E+01  2.000E+04 -5.749E-02
   1   11   25     2     6    5.0007E+04 -1.2655E+03   5.1273E+04  0.000E+00  0.000E+00  0.000E+00  3.89918E+01  1.168E-01  2.000E+01  2.000E+04 -6.328E-02
   1   12   24     2     7    5.1273E+04 -1.4150E+03   5.2688E+04  0.000E+00  0.000E+00  0.000E+00  3.87436E+01  1.186E-01  2.000E+01  2.000E+04 -7.075E-02
   1   13   23     2     8    5.2688E+04 -3.0509E+02   5.2993E+04  0.000E+00  0.000E+00  0.000E+00  3.84948E+01  1.198E-01  2.000E+01  2.000E+04 -1.525E-02
   1   14   22     2     9    5.2993E+04  1.5243E+03   5.1469E+04  0.000E+00  0.000E+00  0.000E+00  3.82439E+01  1.189E-01  2.000E+01  2.000E+04  7.622E-02
   1   14   22     3     1    1.8181E+05 -8.7576E+03   1.9057E+05  0.000E+00  0.000E+00  0.000E+00  3.77298E+01  1.743E-01  2.000E+01  2.000E+04 -4.379E-01
   1   15   23     3     2    1.9057E+05 -6.9562E+02   1.9126E+05  0.000E+00  0.000E+00  0.000E+00  3.68436E+01  1.769E-01  2.000E+01  2.000E+04 -3.478E-02
   1   15   24     3     3    1.9126E+05 -3.9963E+02   1.9166E+05  0.000E+00  0.000E+00  0.000E+00  3.59550E+01  1.772E-01  2.000E+01  2.000E+04 -1.998E-02
   1   15   25     3     4    1.9166E+05 -3.9238E+02   1.9206E+05  0.000E+00  0.000E+00  0.000E+00  3.50663E+01  1.775E-01  2.000E+01  2.000E+04 -1.962E-02
   1   15   26     3     5    1.9206E+05 -4.6030E+02   1.9252E+05  0.000E+00  0.000E+00  0.000E+00  3.41777E+01  1.777E-01  2.000E+01  2.000E+04 -2.301E-02
   1   16   27     3     6    1.9252E+05 -5.1703E+02   1.9303E+05  0.000E+00  0.000E+00  0.000E+00  3.32891E+01  1.780E-01  2.000E+01  2.000E+04 -2.585E-02
   1   17   28     3     7    1.9303E+05 -1.9962E+03   1.9503E+05  0.000E+00  0.000E+00  0.000E+00  3.24009E+01  1.787E-01  2.000E+01  2.000E+04 -9.981E-02
   1   18   29     3     8    1.9503E+05 -3.4360E+03   1.9847E+05  0.000E+00  0.000E+00  0.000E+00  3.15135E+01  1.802E-01  2.000E+01  2.000E+04 -1.718E-01
   1   18   30     3     9    1.9847E+05 -3.5674E+03   2.0203E+05  0.000E+00  0.000E+00  0.000E+00  3.06265E+01  1.821E-01  2.000E+01  2.000E+04 -1.784E-01



1
              HEAD IN LAYER   1 AT END OF TIME STEP   1 IN STRESS PERIOD    6
  ---------------------------------------------------------------------------

          1      2      3      4      5      6      7      8      9     10
         11     12     13     14     15     16     17     18     19     20
         21     22     23     24     25     26     27     28     29     30
 .........................................................................
   1  ****** ****** ****** ****** ****** ****** ****** ****** ****** ******
      ****** ****** ****** ****** ****** ****** ****** ****** ****** ******
      ****** ****** ****** ****** ****** ****** ****** ****** ****** ******
   2  ****** ****** ****** ****** ****** ****** ****** ****** ****** ******
      ****** ****** ****** ****** ****** ****** ****** ****** ****** ******
      ****** ****** ****** ****** ****** ****** ****** ****** ****** ******
   3  ****** ****** ****** ****** ****** ****** ****** ****** ****** ******
      ****** ****** ****** ****** ****** ****** ****** ****** ****** ******
      ****** ****** ****** ****** ****** ****** ****** ****** ****** ******
   4  ****** ****** ****** ****** ****** ****** ****** ****** ****** ******
      ****** ****** ****** ****** ****** ****** ****** ****** ****** ******
      ****** ****** ****** ****** ****** ****** ****** ****** ****** ******
   5  ****** ****** ****** ****** ****** ****** ****** ****** ****** ******
      ****** ****** ****** ****** ****** ****** ****** ****** ****** ******
      ****** ****** ****** ****** ****** ****** ****** ****** ****** ******
   6  ****** ****** ****** ****** ****** ****** ****** ****** ****** ******
      ****** ****** ****** ****** ****** ****** ****** ****** ****** ******
      ****** ****** ****** ****** ****** ****** ****** ****** ****** ******
   7  ****** ****** ****** ****** ****** ****** ****** ****** ****** ******
      ****** ****** ****** ****** ****** ****** ****** ****** ****** ******
      ****** ****** ****** ****** ****** ****** ****** ****** ****** ******
   8  ****** ****** ****** ****** ****** ****** ****** ****** ****** ******
      ****** ****** ****** ****** ****** ****** ****** ****** ****** ******
      ****** ****** ****** ****** ****** ****** ****** ****** ****** ******
   9  ****** ****** ****** ****** ****** ****** ****** ****** ****** ******
      ****** ****** ****** ****** ****** ****** ****** ****** ****** ******
      ****** ****** ****** ****** ****** ****** ****** ****** ****** ******
  10  ****** ****** ****** ****** ****** ****** ****** ****** ****** ******
      ****** ****** ****** ****** ****** ****** ****** ****** ****** ******
      ****** ****** ****** ****** ****** ****** ****** ****** ****** ******
  11  ****** ****** ****** ****** ****** ****** ****** ****** ****** ******
      ****** ****** ****** ****** ****** ****** ****** ****** ****** ******
      ****** ****** ****** ****** ****** ****** ****** ****** ****** ******
  12  ****** ****** ****** ****** ****** ****** ****** ****** ****** ******
      ****** ****** ****** ****** ****** ****** ****** ****** ****** ******
      ****** ****** ****** ****** ****** ****** ****** ****** ****** ******
  13  ****** ****** ****** ****** ****** ****** ****** ****** ****** ******
      ****** ****** ****** ****** ****** ****** ****** ****** ****** ******
      ****** ****** ****** ****** ****** ****** ****** ****** ****** ******
  14  ****** ****** ****** ****** ****** ****** ****** ****** ****** ******
      ****** ****** ****** ****** ****** ****** ****** ****** ****** ******
      ****** ****** ****** ****** ****** ****** ****** ****** ****** ******
  15  ****** ****** ****** ****** ****** ****** ****** ****** ****** ******
      ****** ****** ****** ****** ****** ****** ****** ****** ****** ******
      ****** ****** ****** ****** ****** ****** ****** ****** ****** ******
  16  ****** ****** ****** ****** ****** ****** ****** ****** ****** ******
      ****** ****** ****** ****** ****** ****** ****** ****** ****** ******
      ****** ****** ****** ****** ****** ****** ****** ****** ****** ******
  17  ****** ****** ****** ****** ****** ****** ****** ****** ****** ******
      ****** ****** ****** ****** ****** ****** ****** ****** ****** ******
      ****** ****** ****** ****** ****** ****** ****** ****** ****** ******
  18  ****** ****** ****** ****** ****** ****** ****** ****** ****** ******
      ****** ****** ****** ****** ****** ****** ****** ****** ****** ******
      ****** ****** ****** ****** ****** ****** ****** ****** ****** ******
  19  ****** ****** ****** ****** ****** ****** ****** ****** ****** ******
      ****** ****** ****** ****** ****** ****** ****** ****** ****** ******
      ****** ****** ****** ****** ****** ****** ****** ****** ****** ******
  20  ****** ****** ****** ****** ****** ****** ****** ****** ****** ******
      ****** ****** ****** ****** ****** ****** ****** ****** ****** ******
      ****** ****** ****** ****** ****** ****** ****** ****** ****** ******
  21  ****** ****** ****** ****** ****** ****** ****** ****** ****** ******
      ****** ****** ****** ****** ****** ****** ****** ****** ****** ******
      ****** ****** ****** ****** ****** ****** ****** ****** ****** ******
  22  ****** ****** ****** ****** ****** ****** ****** ****** ****** ******
      ****** ****** ****** ****** ****** ****** ****** ****** ****** ******
      ****** ****** ****** ****** ****** ****** ****** ****** ****** ******
  23  ****** ****** ****** ****** ****** ****** ****** ****** ****** ******
      ****** ****** ****** ****** ****** ****** ****** ****** ****** ******
      ****** ****** ****** ****** ****** ****** ****** ****** ****** ******
  24  ****** ****** ****** ****** ****** ****** ****** ****** ****** ******
      ****** ****** ****** ****** ****** ****** ****** ****** ****** ******
      ****** ****** ****** ****** ****** ****** ****** ****** ****** ******
  25  ****** ****** ****** ****** ****** ****** ****** ****** ****** ******
      ****** ****** ****** ****** ****** ****** ****** ****** ****** ******
      ****** ****** ****** ****** ****** ****** ****** ****** ****** ******

 HEAD WILL BE SAVED ON UNIT   51 AT END OF TIME STEP    1, STRESS PERIOD    6
1
  VOLUMETRIC BUDGET FOR ENTIRE MODEL AT END OF TIME STEP    1, STRESS PERIOD   6
  ------------------------------------------------------------------------------

     CUMULATIVE VOLUMES      L**3       RATES FOR THIS TIME STEP      L**3/T
     ------------------                 ------------------------

           IN:                                      IN:
           ---                                      ---
             STORAGE =    32693514.0040               STORAGE =         423.6072
       CONSTANT HEAD =    14346920.1594         CONSTANT HEAD =       32278.7408
               WELLS =           0.0000                 WELLS =           0.0000
            RECHARGE =    15097200.0000              RECHARGE =       55200.0000
      STREAM LEAKAGE =     3934856.8941        STREAM LEAKAGE =        8114.4725

            TOTAL IN =    66072491.0575              TOTAL IN =       96016.8206

          OUT:                                     OUT:
          ----                                     ----
             STORAGE =      689873.0247               STORAGE =        7568.5049
       CONSTANT HEAD =           0.0000         CONSTANT HEAD =           0.0000
               WELLS =    15508977.5539                 WELLS =       28301.0539
            RECHARGE =           0.0000              RECHARGE =           0.0000
      STREAM LEAKAGE =    49873642.5309        STREAM LEAKAGE =       60147.2591

           TOTAL OUT =    66072493.1095             TOTAL OUT =       96016.8179

            IN - OUT =          -2.0520              IN - OUT =       2.7385E-03

 PERCENT DISCREPANCY =          -0.00     PERCENT DISCREPANCY =           0.00






         TIME SUMMARY AT END OF TIME STEP    1 IN STRESS PERIOD    6
                    SECONDS     MINUTES      HOURS       DAYS        YEARS
                    -----------------------------------------------------------
   TIME STEP LENGTH 7.86240E+06 1.31040E+05  2184.0      91.000     0.24914    
 STRESS PERIOD TIME 7.86240E+06 1.31040E+05  2184.0      91.000     0.24914    
         TOTAL TIME 4.73472E+07 7.89120E+05  13152.      548.00      1.5003    
1
1
                            STRESS PERIOD NO.    7, LENGTH =   91.00000    
                            -----------------------------------------------

                              NUMBER OF TIME STEPS =     1

                               MULTIPLIER FOR DELT =     1.500

                            INITIAL TIME STEP SIZE =   91.00000    

 WELL NO.  LAYER   ROW   COL   STRESS RATE         
 --------------------------------------------------
      1      1     14      6       0.000    
      2      1      3      9       0.000    
      3      1     20     10       0.000    
      4      1     14     20       0.000    
      5      1      4     13      -4782.    
      6      1      6     16      -7373.    
      7      1      4      8      -5811.    
      8      1      7     28     -0.1033E+05

      8 WELLS

                 RECHARGE =   0.00000    

 REUSING STREAM SEGMENT DATA FROM LAST STRESS PERIOD
 
 SOLVING FOR HEAD 


     7 CALLS TO PCG ROUTINE FOR TIME STEP   1 IN STRESS PERIOD    7
    26 TOTAL ITERATIONS

 OUTPUT CONTROL FOR STRESS PERIOD    7   TIME STEP    1
    SAVE BUDGET
    SAVE HEAD FOR ALL LAYERS
    PRINT HEAD FOR ALL LAYERS
 UBDSV2 SAVING "STREAMFLOW OUT  " ON UNIT  50 AT TIME STEP  1, STRESS PERIOD   7



 STREAM LISTING     PERIOD      7   STEP        1

 LAYER ROW COL. STREAM  RCH.  FLOW INTO     FLOW TO   FLOW OUT OF   OVRLND.     DIRECT     STREAM       STREAM     STREAM     STREAM   STREAMBED  STREAMBED
                SEG.NO.  NO.  STRM. RCH.    AQUIFER    STRM. RCH.    RUNOFF     PRECIP       ET          HEAD       DEPTH      WIDTH   CONDCTNC.   GRADIENT

   1   13    1     1     1    1.0000E+05 -1.1356E+03   1.0114E+05  0.000E+00  0.000E+00  0.000E+00  4.84065E+01  1.451E-01  2.000E+01  2.000E+04 -5.678E-02
   1   13    2     1     2    1.0114E+05 -2.0441E+03   1.0318E+05  0.000E+00  0.000E+00  0.000E+00  4.79306E+01  1.465E-01  2.000E+01  2.000E+04 -1.022E-01
   1   14    3     1     3    1.0318E+05 -3.5208E+02   1.0353E+05  0.000E+00  0.000E+00  0.000E+00  4.74544E+01  1.475E-01  2.000E+01  2.000E+04 -1.760E-02
   1   15    4     1     4    1.0353E+05 -3.4109E+02   1.0387E+05  0.000E+00  0.000E+00  0.000E+00  4.69774E+01  1.478E-01  2.000E+01  2.000E+04 -1.705E-02
   1   16    5     1     5    1.0387E+05 -1.4760E+03   1.0535E+05  0.000E+00  0.000E+00  0.000E+00  4.65009E+01  1.486E-01  2.000E+01  2.000E+04 -7.380E-02
   1   16    6     1     6    1.0535E+05 -9.2939E+02   1.0628E+05  0.000E+00  0.000E+00  0.000E+00  4.60246E+01  1.496E-01  2.000E+01  2.000E+04 -4.647E-02
   1   16    7     1     7    1.0628E+05 -9.1596E+02   1.0719E+05  0.000E+00  0.000E+00  0.000E+00  4.55481E+01  1.504E-01  2.000E+01  2.000E+04 -4.580E-02
   1   16    8     1     8    1.0719E+05 -9.1605E+02   1.0811E+05  0.000E+00  0.000E+00  0.000E+00  4.50716E+01  1.512E-01  2.000E+01  2.000E+04 -4.580E-02
   1   16    9     1     9    1.0811E+05 -9.1359E+02   1.0902E+05  0.000E+00  0.000E+00  0.000E+00  4.45951E+01  1.520E-01  2.000E+01  2.000E+04 -4.568E-02
   1   16   10     1    10    1.0902E+05 -9.0970E+02   1.0993E+05  0.000E+00  0.000E+00  0.000E+00  4.41186E+01  1.527E-01  2.000E+01  2.000E+04 -4.549E-02
   1   16   11     1    11    1.0993E+05 -9.2432E+02   1.1086E+05  0.000E+00  0.000E+00  0.000E+00  4.36421E+01  1.535E-01  2.000E+01  2.000E+04 -4.622E-02
   1   16   12     1    12    1.1086E+05 -1.5303E+03   1.1239E+05  0.000E+00  0.000E+00  0.000E+00  4.31659E+01  1.545E-01  2.000E+01  2.000E+04 -7.651E-02
   1   15   13     1    13    1.1239E+05 -1.1538E+03   1.1354E+05  0.000E+00  0.000E+00  0.000E+00  4.26897E+01  1.556E-01  2.000E+01  2.000E+04 -5.769E-02
   1   14   14     1    14    1.1354E+05 -1.1448E+03   1.1469E+05  0.000E+00  0.000E+00  0.000E+00  4.22134E+01  1.566E-01  2.000E+01  2.000E+04 -5.724E-02
   1   13   15     1    15    1.1469E+05 -1.1210E+03   1.1581E+05  0.000E+00  0.000E+00  0.000E+00  4.17371E+01  1.575E-01  2.000E+01  2.000E+04 -5.605E-02
   1   12   16     1    16    1.1581E+05 -1.1279E+03   1.1694E+05  0.000E+00  0.000E+00  0.000E+00  4.12607E+01  1.584E-01  2.000E+01  2.000E+04 -5.639E-02
   1   12   17     1    17    1.1694E+05 -8.6964E+02   1.1781E+05  0.000E+00  0.000E+00  0.000E+00  4.07842E+01  1.592E-01  2.000E+01  2.000E+04 -4.348E-02
   1   12   18     1    18    1.1781E+05 -9.0790E+02   1.1871E+05  0.000E+00  0.000E+00  0.000E+00  4.03077E+01  1.600E-01  2.000E+01  2.000E+04 -4.539E-02
   1   12   19     1    19    1.1871E+05 -1.2434E+03   1.1996E+05  0.000E+00  0.000E+00  0.000E+00  3.98313E+01  1.608E-01  2.000E+01  2.000E+04 -6.217E-02
   1   13   20     1    20    1.1996E+05 -1.2573E+03   1.2121E+05  0.000E+00  0.000E+00  0.000E+00  3.93550E+01  1.618E-01  2.000E+01  2.000E+04 -6.286E-02
   1   14   21     1    21    1.2121E+05 -1.4079E+03   1.2262E+05  0.000E+00  0.000E+00  0.000E+00  3.88788E+01  1.629E-01  2.000E+01  2.000E+04 -7.040E-02
   1   14   22     1    22    1.2262E+05  5.0075E+03   1.1761E+05  0.000E+00  0.000E+00  0.000E+00  3.84001E+01  1.615E-01  2.000E+01  2.000E+04  2.504E-01
   1    9   30     2     1    5.0000E+04  1.0023E+03   4.8998E+04  0.000E+00  0.000E+00  0.000E+00  4.02402E+01  1.152E-01  2.000E+01  2.000E+04  5.011E-02
   1    9   29     2     2    4.8998E+04  1.0192E+03   4.7979E+04  0.000E+00  0.000E+00  0.000E+00  3.99888E+01  1.138E-01  2.000E+01  2.000E+04  5.096E-02
   1    9   28     2     3    4.7979E+04  1.2769E+03   4.6702E+04  0.000E+00  0.000E+00  0.000E+00  3.97371E+01  1.121E-01  2.000E+01  2.000E+04  6.385E-02
   1    9   27     2     4    4.6702E+04  1.1065E+02   4.6591E+04  0.000E+00  0.000E+00  0.000E+00  3.94861E+01  1.111E-01  2.000E+01  2.000E+04  5.532E-03
   1   10   26     2     5    4.6591E+04 -4.3978E+02   4.7031E+04  0.000E+00  0.000E+00  0.000E+00  3.92364E+01  1.114E-01  2.000E+01  2.000E+04 -2.199E-02
   1   11   25     2     6    4.7031E+04 -5.8486E+02   4.7616E+04  0.000E+00  0.000E+00  0.000E+00  3.89871E+01  1.121E-01  2.000E+01  2.000E+04 -2.924E-02
   1   12   24     2     7    4.7616E+04 -7.9369E+02   4.8409E+04  0.000E+00  0.000E+00  0.000E+00  3.87381E+01  1.131E-01  2.000E+01  2.000E+04 -3.968E-02
   1   13   23     2     8    4.8409E+04 -1.1173E+02   4.8521E+04  0.000E+00  0.000E+00  0.000E+00  3.84887E+01  1.137E-01  2.000E+01  2.000E+04 -5.586E-03
   1   14   22     2     9    4.8521E+04  1.7565E+03   4.6765E+04  0.000E+00  0.000E+00  0.000E+00  3.82376E+01  1.126E-01  2.000E+01  2.000E+04  8.782E-02
   1   14   22     3     1    1.6438E+05 -8.5983E+03   1.7298E+05  0.000E+00  0.000E+00  0.000E+00  3.77198E+01  1.643E-01  2.000E+01  2.000E+04 -4.299E-01
   1   15   23     3     2    1.7298E+05 -4.9071E+02   1.7347E+05  0.000E+00  0.000E+00  0.000E+00  3.68336E+01  1.669E-01  2.000E+01  2.000E+04 -2.454E-02
   1   15   24     3     3    1.7347E+05 -2.2688E+02   1.7369E+05  0.000E+00  0.000E+00  0.000E+00  3.59449E+01  1.671E-01  2.000E+01  2.000E+04 -1.134E-02
   1   15   25     3     4    1.7369E+05 -2.1645E+02   1.7391E+05  0.000E+00  0.000E+00  0.000E+00  3.50561E+01  1.672E-01  2.000E+01  2.000E+04 -1.082E-02
   1   15   26     3     5    1.7391E+05 -2.5961E+02   1.7417E+05  0.000E+00  0.000E+00  0.000E+00  3.41674E+01  1.674E-01  2.000E+01  2.000E+04 -1.298E-02
   1   16   27     3     6    1.7417E+05 -2.8564E+02   1.7446E+05  0.000E+00  0.000E+00  0.000E+00  3.32786E+01  1.675E-01  2.000E+01  2.000E+04 -1.428E-02
   1   17   28     3     7    1.7446E+05 -1.3580E+03   1.7581E+05  0.000E+00  0.000E+00  0.000E+00  3.23902E+01  1.680E-01  2.000E+01  2.000E+04 -6.790E-02
   1   18   29     3     8    1.7581E+05 -2.7568E+03   1.7857E+05  0.000E+00  0.000E+00  0.000E+00  3.15025E+01  1.692E-01  2.000E+01  2.000E+04 -1.378E-01
   1   18   30     3     9    1.7857E+05 -3.0431E+03   1.8161E+05  0.000E+00  0.000E+00  0.000E+00  3.06153E+01  1.708E-01  2.000E+01  2.000E+04 -1.522E-01



1
              HEAD IN LAYER   1 AT END OF TIME STEP   1 IN STRESS PERIOD    7
  ---------------------------------------------------------------------------

          1      2      3      4      5      6      7      8      9     10
         11     12     13     14     15     16     17     18     19     20
         21     22     23     24     25     26     27     28     29     30
 .........................................................................
   1  ****** ****** ****** ****** ****** ****** ****** ****** ****** ******
      ****** ****** ****** ****** ****** ****** ****** ****** ****** ******
      ****** ****** ****** ****** ****** ****** ****** ****** ****** ******
   2  ****** ****** ****** ****** ****** ****** ****** ****** ****** ******
      ****** ****** ****** ****** ****** ****** ****** ****** ****** ******
      ****** ****** ****** ****** ****** ****** ****** ****** ****** ******
   3  ****** ****** ****** ****** ****** ****** ****** ****** ****** ******
      ****** ****** ****** ****** ****** ****** ****** ****** ****** ******
      ****** ****** ****** ****** ****** ****** ****** ****** ****** ******
   4  ****** ****** ****** ****** ****** ****** ****** ****** ****** ******
      ****** ****** ****** ****** ****** ****** ****** ****** ****** ******
      ****** ****** ****** ****** ****** ****** ****** ****** ****** ******
   5  ****** ****** ****** ****** ****** ****** ****** ****** ****** ******
      ****** ****** ****** ****** ****** ****** ****** ****** ****** ******
      ****** ****** ****** ****** ****** ****** ****** ****** ****** ******
   6  ****** ****** ****** ****** ****** ****** ****** ****** ****** ******
      ****** ****** ****** ****** ****** ****** ****** ****** ****** ******
      ****** ****** ****** ****** ****** ****** ****** ****** ****** ******
   7  ****** ****** ****** ****** ****** ****** ****** ****** ****** ******
      ****** ****** ****** ****** ****** ****** ****** ****** ****** ******
      ****** ****** ****** ****** ****** ****** ****** ****** ****** ******
   8  ****** ****** ****** ****** ****** ****** ****** ****** ****** ******
      ****** ****** ****** ****** ****** ****** ****** ****** ****** ******
      ****** ****** ****** ****** ****** ****** ****** ****** ****** ******
   9  ****** ****** ****** ****** ****** ****** ****** ****** ****** ******
      ****** ****** ****** ****** ****** ****** ****** ****** ****** ******
      ****** ****** ****** ****** ****** ****** ****** ****** ****** ******
  10  ****** ****** ****** ****** ****** ****** ****** ****** ****** ******
      ****** ****** ****** ****** ****** ****** ****** ****** ****** ******
      ****** ****** ****** ****** ****** ****** ****** ****** ****** ******
  11  ****** ****** ****** ****** ****** ****** ****** ****** ****** ******
      ****** ****** ****** ****** ****** ****** ****** ****** ****** ******
      ****** ****** ****** ****** ****** ****** ****** ****** ****** ******
  12  ****** ****** ****** ****** ****** ****** ****** ****** ****** ******
      ****** ****** ****** ****** ****** ****** ****** ****** ****** ******
      ****** ****** ****** ****** ****** ****** ****** ****** ****** ******
  13  ****** ****** ****** ****** ****** ****** ****** ****** ****** ******
      ****** ****** ****** ****** ****** ****** ****** ****** ****** ******
      ****** ****** ****** ****** ****** ****** ****** ****** ****** ******
  14  ****** ****** ****** ****** ****** ****** ****** ****** ****** ******
      ****** ****** ****** ****** ****** ****** ****** ****** ****** ******
      ****** ****** ****** ****** ****** ****** ****** ****** ****** ******
  15  ****** ****** ****** ****** ****** ****** ****** ****** ****** ******
      ****** ****** ****** ****** ****** ****** ****** ****** ****** ******
      ****** ****** ****** ****** ****** ****** ****** ****** ****** ******
  16  ****** ****** ****** ****** ****** ****** ****** ****** ****** ******
      ****** ****** ****** ****** ****** ****** ****** ****** ****** ******
      ****** ****** ****** ****** ****** ****** ****** ****** ****** ******
  17  ****** ****** ****** ****** ****** ****** ****** ****** ****** ******
      ****** ****** ****** ****** ****** ****** ****** ****** ****** ******
      ****** ****** ****** ****** ****** ****** ****** ****** ****** ******
  18  ****** ****** ****** ****** ****** ****** ****** ****** ****** ******
      ****** ****** ****** ****** ****** ****** ****** ****** ****** ******
      ****** ****** ****** ****** ****** ****** ****** ****** ****** ******
  19  ****** ****** ****** ****** ****** ****** ****** ****** ****** ******
      ****** ****** ****** ****** ****** ****** ****** ****** ****** ******
      ****** ****** ****** ****** ****** ****** ****** ****** ****** ******
  20  ****** ****** ****** ****** ****** ****** ****** ****** ****** ******
      ****** ****** ****** ****** ****** ****** ****** ****** ****** ******
      ****** ****** ****** ****** ****** ****** ****** ****** ****** ******
  21  ****** ****** ****** ****** ****** ****** ****** ****** ****** ******
      ****** ****** ****** ****** ****** ****** ****** ****** ****** ******
      ****** ****** ****** ****** ****** ****** ****** ****** ****** ******
  22  ****** ****** ****** ****** ****** ****** ****** ****** ****** ******
      ****** ****** ****** ****** ****** ****** ****** ****** ****** ******
      ****** ****** ****** ****** ****** ****** ****** ****** ****** ******
  23  ****** ****** ****** ****** ****** ****** ****** ****** ****** ******
      ****** ****** ****** ****** ****** ****** ****** ****** ****** ******
      ****** ****** ****** ****** ****** ****** ****** ****** ****** ******
  24  ****** ****** ****** ****** ****** ****** ****** ****** ****** ******
      ****** ****** ****** ****** ****** ****** ****** ****** ****** ******
      ****** ****** ****** ****** ****** ****** ****** ****** ****** ******
  25  ****** ****** ****** ****** ****** ****** ****** ****** ****** ******
      ****** ****** ****** ****** ****** ****** ****** ****** ****** ******
      ****** ****** ****** ****** ****** ****** ****** ****** ****** ******

 HEAD WILL BE SAVED ON UNIT   51 AT END OF TIME STEP    1, STRESS PERIOD    7
1
  VOLUMETRIC BUDGET FOR ENTIRE MODEL AT END OF TIME STEP    1, STRESS PERIOD   7
  ------------------------------------------------------------------------------

     CUMULATIVE VOLUMES      L**3       RATES FOR THIS TIME STEP      L**3/T
     ------------------                 ------------------------

           IN:                                      IN:
           ---                                      ---
             STORAGE =    34838775.9872               STORAGE =       23574.3075
       CONSTANT HEAD =    17653966.1616         CONSTANT HEAD =       36341.1649
               WELLS =           0.0000                 WELLS =           0.0000
            RECHARGE =    15097200.0000              RECHARGE =           0.0000
      STREAM LEAKAGE =     4860600.5552        STREAM LEAKAGE =       10173.0073

            TOTAL IN =    72450542.7040              TOTAL IN =       70088.4796

          OUT:                                     OUT:
          ----                                     ----
             STORAGE =      689873.0247               STORAGE =           0.0000
       CONSTANT HEAD =           0.0000         CONSTANT HEAD =           0.0000
               WELLS =    18084373.4616                 WELLS =       28301.0539
            RECHARGE =           0.0000              RECHARGE =           0.0000
      STREAM LEAKAGE =    53676298.7644        STREAM LEAKAGE =       41787.4311

           TOTAL OUT =    72450545.2506             TOTAL OUT =       70088.4851

            IN - OUT =          -2.5466              IN - OUT =      -5.4353E-03

 PERCENT DISCREPANCY =          -0.00     PERCENT DISCREPANCY =          -0.00






         TIME SUMMARY AT END OF TIME STEP    1 IN STRESS PERIOD    7
                    SECONDS     MINUTES      HOURS       DAYS        YEARS
                    -----------------------------------------------------------
   TIME STEP LENGTH 7.86240E+06 1.31040E+05  2184.0      91.000     0.24914    
 STRESS PERIOD TIME 7.86240E+06 1.31040E+05  2184.0      91.000     0.24914    
         TOTAL TIME 5.52096E+07 9.20160E+05  15336.      639.00      1.7495    
1
1
                            STRESS PERIOD NO.    8, LENGTH =   91.00000    
                            -----------------------------------------------

                              NUMBER OF TIME STEPS =     1

                               MULTIPLIER FOR DELT =     1.500

                            INITIAL TIME STEP SIZE =   91.00000    

 WELL NO.  LAYER   ROW   COL   STRESS RATE         
 --------------------------------------------------
      1      1     14      6       0.000    
      2      1      3      9       0.000    
      3      1     20     10       0.000    
      4      1     14     20       0.000    
      5      1      4     13      -4782.    
      6      1      6     16      -7373.    
      7      1      4      8      -5811.    
      8      1      7     28     -0.1033E+05

      8 WELLS

                 RECHARGE =  1.000000E-03

 REUSING STREAM SEGMENT DATA FROM LAST STRESS PERIOD
 
 SOLVING FOR HEAD 


     6 CALLS TO PCG ROUTINE FOR TIME STEP   1 IN STRESS PERIOD    8
    22 TOTAL ITERATIONS

 OUTPUT CONTROL FOR STRESS PERIOD    8   TIME STEP    1
    SAVE BUDGET
    SAVE HEAD FOR ALL LAYERS
    PRINT HEAD FOR ALL LAYERS
 UBDSV2 SAVING "STREAMFLOW OUT  " ON UNIT  50 AT TIME STEP  1, STRESS PERIOD   8



 STREAM LISTING     PERIOD      8   STEP        1

 LAYER ROW COL. STREAM  RCH.  FLOW INTO     FLOW TO   FLOW OUT OF   OVRLND.     DIRECT     STREAM       STREAM     STREAM     STREAM   STREAMBED  STREAMBED
                SEG.NO.  NO.  STRM. RCH.    AQUIFER    STRM. RCH.    RUNOFF     PRECIP       ET          HEAD       DEPTH      WIDTH   CONDCTNC.   GRADIENT

   1   13    1     1     1    1.0000E+05 -1.1793E+03   1.0118E+05  0.000E+00  0.000E+00  0.000E+00  4.84065E+01  1.452E-01  2.000E+01  2.000E+04 -5.897E-02
   1   13    2     1     2    1.0118E+05 -2.0824E+03   1.0326E+05  0.000E+00  0.000E+00  0.000E+00  4.79307E+01  1.466E-01  2.000E+01  2.000E+04 -1.041E-01
   1   14    3     1     3    1.0326E+05 -4.1135E+02   1.0367E+05  0.000E+00  0.000E+00  0.000E+00  4.74545E+01  1.476E-01  2.000E+01  2.000E+04 -2.057E-02
   1   15    4     1     4    1.0367E+05 -4.0613E+02   1.0408E+05  0.000E+00  0.000E+00  0.000E+00  4.69775E+01  1.480E-01  2.000E+01  2.000E+04 -2.031E-02
   1   16    5     1     5    1.0408E+05 -1.6486E+03   1.0573E+05  0.000E+00  0.000E+00  0.000E+00  4.65011E+01  1.489E-01  2.000E+01  2.000E+04 -8.243E-02
   1   16    6     1     6    1.0573E+05 -1.0337E+03   1.0676E+05  0.000E+00  0.000E+00  0.000E+00  4.60250E+01  1.500E-01  2.000E+01  2.000E+04 -5.168E-02
   1   16    7     1     7    1.0676E+05 -1.0149E+03   1.0778E+05  0.000E+00  0.000E+00  0.000E+00  4.55486E+01  1.509E-01  2.000E+01  2.000E+04 -5.075E-02
   1   16    8     1     8    1.0778E+05 -1.0143E+03   1.0879E+05  0.000E+00  0.000E+00  0.000E+00  4.50722E+01  1.517E-01  2.000E+01  2.000E+04 -5.071E-02
   1   16    9     1     9    1.0879E+05 -1.0135E+03   1.0980E+05  0.000E+00  0.000E+00  0.000E+00  4.45958E+01  1.526E-01  2.000E+01  2.000E+04 -5.067E-02
   1   16   10     1    10    1.0980E+05 -1.0129E+03   1.1082E+05  0.000E+00  0.000E+00  0.000E+00  4.41193E+01  1.534E-01  2.000E+01  2.000E+04 -5.065E-02
   1   16   11     1    11    1.1082E+05 -1.0317E+03   1.1185E+05  0.000E+00  0.000E+00  0.000E+00  4.36429E+01  1.543E-01  2.000E+01  2.000E+04 -5.159E-02
   1   16   12     1    12    1.1185E+05 -1.6896E+03   1.1354E+05  0.000E+00  0.000E+00  0.000E+00  4.31668E+01  1.554E-01  2.000E+01  2.000E+04 -8.448E-02
   1   15   13     1    13    1.1354E+05 -1.3125E+03   1.1485E+05  0.000E+00  0.000E+00  0.000E+00  4.26907E+01  1.566E-01  2.000E+01  2.000E+04 -6.562E-02
   1   14   14     1    14    1.1485E+05 -1.2910E+03   1.1614E+05  0.000E+00  0.000E+00  0.000E+00  4.22145E+01  1.577E-01  2.000E+01  2.000E+04 -6.455E-02
   1   13   15     1    15    1.1614E+05 -1.2496E+03   1.1739E+05  0.000E+00  0.000E+00  0.000E+00  4.17383E+01  1.588E-01  2.000E+01  2.000E+04 -6.248E-02
   1   12   16     1    16    1.1739E+05 -1.2100E+03   1.1860E+05  0.000E+00  0.000E+00  0.000E+00  4.12620E+01  1.598E-01  2.000E+01  2.000E+04 -6.050E-02
   1   12   17     1    17    1.1860E+05 -9.6665E+02   1.1957E+05  0.000E+00  0.000E+00  0.000E+00  4.07856E+01  1.606E-01  2.000E+01  2.000E+04 -4.833E-02
   1   12   18     1    18    1.1957E+05 -1.0141E+03   1.2058E+05  0.000E+00  0.000E+00  0.000E+00  4.03092E+01  1.614E-01  2.000E+01  2.000E+04 -5.071E-02
   1   12   19     1    19    1.2058E+05 -1.3780E+03   1.2196E+05  0.000E+00  0.000E+00  0.000E+00  3.98329E+01  1.624E-01  2.000E+01  2.000E+04 -6.890E-02
   1   13   20     1    20    1.2196E+05 -1.4306E+03   1.2339E+05  0.000E+00  0.000E+00  0.000E+00  3.93567E+01  1.635E-01  2.000E+01  2.000E+04 -7.153E-02
   1   14   21     1    21    1.2339E+05 -1.5671E+03   1.2496E+05  0.000E+00  0.000E+00  0.000E+00  3.88806E+01  1.647E-01  2.000E+01  2.000E+04 -7.835E-02
   1   14   22     1    22    1.2496E+05  4.9582E+03   1.2000E+05  0.000E+00  0.000E+00  0.000E+00  3.84020E+01  1.634E-01  2.000E+01  2.000E+04  2.479E-01
   1    9   30     2     1    5.0000E+04  8.4266E+02   4.9157E+04  0.000E+00  0.000E+00  0.000E+00  4.02403E+01  1.153E-01  2.000E+01  2.000E+04  4.213E-02
   1    9   29     2     2    4.9157E+04  8.6271E+02   4.8295E+04  0.000E+00  0.000E+00  0.000E+00  3.99891E+01  1.141E-01  2.000E+01  2.000E+04  4.314E-02
   1    9   28     2     3    4.8295E+04  1.1267E+03   4.7168E+04  0.000E+00  0.000E+00  0.000E+00  3.97377E+01  1.127E-01  2.000E+01  2.000E+04  5.634E-02
   1    9   27     2     4    4.7168E+04 -5.7635E+01   4.7226E+04  0.000E+00  0.000E+00  0.000E+00  3.94869E+01  1.119E-01  2.000E+01  2.000E+04 -2.882E-03
   1   10   26     2     5    4.7226E+04 -6.3676E+02   4.7862E+04  0.000E+00  0.000E+00  0.000E+00  3.92374E+01  1.124E-01  2.000E+01  2.000E+04 -3.184E-02
   1   11   25     2     6    4.7862E+04 -7.8080E+02   4.8643E+04  0.000E+00  0.000E+00  0.000E+00  3.89884E+01  1.134E-01  2.000E+01  2.000E+04 -3.904E-02
   1   12   24     2     7    4.8643E+04 -9.7088E+02   4.9614E+04  0.000E+00  0.000E+00  0.000E+00  3.87396E+01  1.146E-01  2.000E+01  2.000E+04 -4.854E-02
   1   13   23     2     8    4.9614E+04 -1.8478E+02   4.9799E+04  0.000E+00  0.000E+00  0.000E+00  3.84905E+01  1.155E-01  2.000E+01  2.000E+04 -9.239E-03
   1   14   22     2     9    4.9799E+04  1.7060E+03   4.8093E+04  0.000E+00  0.000E+00  0.000E+00  3.82394E+01  1.144E-01  2.000E+01  2.000E+04  8.530E-02
   1   14   22     3     1    1.6809E+05 -8.6421E+03   1.7673E+05  0.000E+00  0.000E+00  0.000E+00  3.77220E+01  1.664E-01  2.000E+01  2.000E+04 -4.321E-01
   1   15   23     3     2    1.7673E+05 -5.5559E+02   1.7729E+05  0.000E+00  0.000E+00  0.000E+00  3.68358E+01  1.691E-01  2.000E+01  2.000E+04 -2.778E-02
   1   15   24     3     3    1.7729E+05 -2.8778E+02   1.7758E+05  0.000E+00  0.000E+00  0.000E+00  3.59471E+01  1.693E-01  2.000E+01  2.000E+04 -1.439E-02
   1   15   25     3     4    1.7758E+05 -2.7903E+02   1.7786E+05  0.000E+00  0.000E+00  0.000E+00  3.50584E+01  1.695E-01  2.000E+01  2.000E+04 -1.395E-02
   1   15   26     3     5    1.7786E+05 -3.3449E+02   1.7819E+05  0.000E+00  0.000E+00  0.000E+00  3.41697E+01  1.697E-01  2.000E+01  2.000E+04 -1.672E-02
   1   16   27     3     6    1.7819E+05 -3.6789E+02   1.7856E+05  0.000E+00  0.000E+00  0.000E+00  3.32810E+01  1.699E-01  2.000E+01  2.000E+04 -1.839E-02
   1   17   28     3     7    1.7856E+05 -1.5632E+03   1.8012E+05  0.000E+00  0.000E+00  0.000E+00  3.23926E+01  1.704E-01  2.000E+01  2.000E+04 -7.816E-02
   1   18   29     3     8    1.8012E+05 -2.9255E+03   1.8305E+05  0.000E+00  0.000E+00  0.000E+00  3.15050E+01  1.717E-01  2.000E+01  2.000E+04 -1.463E-01
   1   18   30     3     9    1.8305E+05 -3.1918E+03   1.8624E+05  0.000E+00  0.000E+00  0.000E+00  3.06179E+01  1.734E-01  2.000E+01  2.000E+04 -1.596E-01



1
              HEAD IN LAYER   1 AT END OF TIME STEP   1 IN STRESS PERIOD    8
  ---------------------------------------------------------------------------

          1      2      3      4      5      6      7      8      9     10
         11     12     13     14     15     16     17     18     19     20
         21     22     23     24     25     26     27     28     29     30
 .........................................................................
   1  ****** ****** ****** ****** ****** ****** ****** ****** ****** ******
      ****** ****** ****** ****** ****** ****** ****** ****** ****** ******
      ****** ****** ****** ****** ****** ****** ****** ****** ****** ******
   2  ****** ****** ****** ****** ****** ****** ****** ****** ****** ******
      ****** ****** ****** ****** ****** ****** ****** ****** ****** ******
      ****** ****** ****** ****** ****** ****** ****** ****** ****** ******
   3  ****** ****** ****** ****** ****** ****** ****** ****** ****** ******
      ****** ****** ****** ****** ****** ****** ****** ****** ****** ******
      ****** ****** ****** ****** ****** ****** ****** ****** ****** ******
   4  ****** ****** ****** ****** ****** ****** ****** ****** ****** ******
      ****** ****** ****** ****** ****** ****** ****** ****** ****** ******
      ****** ****** ****** ****** ****** ****** ****** ****** ****** ******
   5  ****** ****** ****** ****** ****** ****** ****** ****** ****** ******
      ****** ****** ****** ****** ****** ****** ****** ****** ****** ******
      ****** ****** ****** ****** ****** ****** ****** ****** ****** ******
   6  ****** ****** ****** ****** ****** ****** ****** ****** ****** ******
      ****** ****** ****** ****** ****** ****** ****** ****** ****** ******
      ****** ****** ****** ****** ****** ****** ****** ****** ****** ******
   7  ****** ****** ****** ****** ****** ****** ****** ****** ****** ******
      ****** ****** ****** ****** ****** ****** ****** ****** ****** ******
      ****** ****** ****** ****** ****** ****** ****** ****** ****** ******
   8  ****** ****** ****** ****** ****** ****** ****** ****** ****** ******
      ****** ****** ****** ****** ****** ****** ****** ****** ****** ******
      ****** ****** ****** ****** ****** ****** ****** ****** ****** ******
   9  ****** ****** ****** ****** ****** ****** ****** ****** ****** ******
      ****** ****** ****** ****** ****** ****** ****** ****** ****** ******
      ****** ****** ****** ****** ****** ****** ****** ****** ****** ******
  10  ****** ****** ****** ****** ****** ****** ****** ****** ****** ******
      ****** ****** ****** ****** ****** ****** ****** ****** ****** ******
      ****** ****** ****** ****** ****** ****** ****** ****** ****** ******
  11  ****** ****** ****** ****** ****** ****** ****** ****** ****** ******
      ****** ****** ****** ****** ****** ****** ****** ****** ****** ******
      ****** ****** ****** ****** ****** ****** ****** ****** ****** ******
  12  ****** ****** ****** ****** ****** ****** ****** ****** ****** ******
      ****** ****** ****** ****** ****** ****** ****** ****** ****** ******
      ****** ****** ****** ****** ****** ****** ****** ****** ****** ******
  13  ****** ****** ****** ****** ****** ****** ****** ****** ****** ******
      ****** ****** ****** ****** ****** ****** ****** ****** ****** ******
      ****** ****** ****** ****** ****** ****** ****** ****** ****** ******
  14  ****** ****** ****** ****** ****** ****** ****** ****** ****** ******
      ****** ****** ****** ****** ****** ****** ****** ****** ****** ******
      ****** ****** ****** ****** ****** ****** ****** ****** ****** ******
  15  ****** ****** ****** ****** ****** ****** ****** ****** ****** ******
      ****** ****** ****** ****** ****** ****** ****** ****** ****** ******
      ****** ****** ****** ****** ****** ****** ****** ****** ****** ******
  16  ****** ****** ****** ****** ****** ****** ****** ****** ****** ******
      ****** ****** ****** ****** ****** ****** ****** ****** ****** ******
      ****** ****** ****** ****** ****** ****** ****** ****** ****** ******
  17  ****** ****** ****** ****** ****** ****** ****** ****** ****** ******
      ****** ****** ****** ****** ****** ****** ****** ****** ****** ******
      ****** ****** ****** ****** ****** ****** ****** ****** ****** ******
  18  ****** ****** ****** ****** ****** ****** ****** ****** ****** ******
      ****** ****** ****** ****** ****** ****** ****** ****** ****** ******
      ****** ****** ****** ****** ****** ****** ****** ****** ****** ******
  19  ****** ****** ****** ****** ****** ****** ****** ****** ****** ******
      ****** ****** ****** ****** ****** ****** ****** ****** ****** ******
      ****** ****** ****** ****** ****** ****** ****** ****** ****** ******
  20  ****** ****** ****** ****** ****** ****** ****** ****** ****** ******
      ****** ****** ****** ****** ****** ****** ****** ****** ****** ******
      ****** ****** ****** ****** ****** ****** ****** ****** ****** ******
  21  ****** ****** ****** ****** ****** ****** ****** ****** ****** ******
      ****** ****** ****** ****** ****** ****** ****** ****** ****** ******
      ****** ****** ****** ****** ****** ****** ****** ****** ****** ******
  22  ****** ****** ****** ****** ****** ****** ****** ****** ****** ******
      ****** ****** ****** ****** ****** ****** ****** ****** ****** ******
      ****** ****** ****** ****** ****** ****** ****** ****** ****** ******
  23  ****** ****** ****** ****** ****** ****** ****** ****** ****** ******
      ****** ****** ****** ****** ****** ****** ****** ****** ****** ******
      ****** ****** ****** ****** ****** ****** ****** ****** ****** ******
  24  ****** ****** ****** ****** ****** ****** ****** ****** ****** ******
      ****** ****** ****** ****** ****** ****** ****** ****** ****** ******
      ****** ****** ****** ****** ****** ****** ****** ****** ****** ******
  25  ****** ****** ****** ****** ****** ****** ****** ****** ****** ******
      ****** ****** ****** ****** ****** ****** ****** ****** ****** ******
      ****** ****** ****** ****** ****** ****** ****** ****** ****** ******

 HEAD WILL BE SAVED ON UNIT   51 AT END OF TIME STEP    1, STRESS PERIOD    8
1
  VOLUMETRIC BUDGET FOR ENTIRE MODEL AT END OF TIME STEP    1, STRESS PERIOD   8
  ------------------------------------------------------------------------------

     CUMULATIVE VOLUMES      L**3       RATES FOR THIS TIME STEP      L**3/T
     ------------------                 ------------------------

           IN:                                      IN:
           ---                                      ---
             STORAGE =    35049762.5830               STORAGE =        2318.5340
       CONSTANT HEAD =    20943107.8269         CONSTANT HEAD =       36144.4139
               WELLS =           0.0000                 WELLS =           0.0000
            RECHARGE =    17608800.0000              RECHARGE =       27600.0000
      STREAM LEAKAGE =     5724761.9945        STREAM LEAKAGE =        9496.2796

            TOTAL IN =    79326432.4044              TOTAL IN =       75559.2275

          OUT:                                     OUT:
          ----                                     ----
             STORAGE =      828384.6657               STORAGE =        1522.1059
       CONSTANT HEAD =           0.0000         CONSTANT HEAD =           0.0000
               WELLS =    20659769.3693                 WELLS =       28301.0539
            RECHARGE =           0.0000              RECHARGE =           0.0000
      STREAM LEAKAGE =    57838280.2832        STREAM LEAKAGE =       45736.0606

           TOTAL OUT =    79326434.3181             TOTAL OUT =       75559.2205

            IN - OUT =          -1.9137              IN - OUT =       6.9548E-03

 PERCENT DISCREPANCY =          -0.00     PERCENT DISCREPANCY =           0.00






         TIME SUMMARY AT END OF TIME STEP    1 IN STRESS PERIOD    8
                    SECONDS     MINUTES      HOURS       DAYS        YEARS
                    -----------------------------------------------------------
   TIME STEP LENGTH 7.86240E+06 1.31040E+05  2184.0      91.000     0.24914    
 STRESS PERIOD TIME 7.86240E+06 1.31040E+05  2184.0      91.000     0.24914    
         TOTAL TIME 6.30720E+07 1.05120E+06  17520.      730.00      1.9986    
1
1
                            STRESS PERIOD NO.    9, LENGTH =   92.00000    
                            -----------------------------------------------

                              NUMBER OF TIME STEPS =     1

                               MULTIPLIER FOR DELT =     1.500

                            INITIAL TIME STEP SIZE =   92.00000    

 WELL NO.  LAYER   ROW   COL   STRESS RATE         
 --------------------------------------------------
      1      1     14      6       0.000    
      2      1      3      9       0.000    
      3      1     20     10       0.000    
      4      1     14     20       0.000    
      5      1      4     13      -4782.    
      6      1      6     16      -7373.    
      7      1      4      8      -5811.    
      8      1      7     28     -0.1033E+05

      8 WELLS

                 RECHARGE =  5.000000E-04

 REUSING STREAM SEGMENT DATA FROM LAST STRESS PERIOD
 
 SOLVING FOR HEAD 


     6 CALLS TO PCG ROUTINE FOR TIME STEP   1 IN STRESS PERIOD    9
    23 TOTAL ITERATIONS

 OUTPUT CONTROL FOR STRESS PERIOD    9   TIME STEP    1
    SAVE BUDGET
    SAVE HEAD FOR ALL LAYERS
    PRINT HEAD FOR ALL LAYERS
 UBDSV2 SAVING "STREAMFLOW OUT  " ON UNIT  50 AT TIME STEP  1, STRESS PERIOD   9



 STREAM LISTING     PERIOD      9   STEP        1

 LAYER ROW COL. STREAM  RCH.  FLOW INTO     FLOW TO   FLOW OUT OF   OVRLND.     DIRECT     STREAM       STREAM     STREAM     STREAM   STREAMBED  STREAMBED
                SEG.NO.  NO.  STRM. RCH.    AQUIFER    STRM. RCH.    RUNOFF     PRECIP       ET          HEAD       DEPTH      WIDTH   CONDCTNC.   GRADIENT

   1   13    1     1     1    1.0000E+05 -9.4300E+02   1.0094E+05  0.000E+00  0.000E+00  0.000E+00  4.84064E+01  1.451E-01  2.000E+01  2.000E+04 -4.715E-02
   1   13    2     1     2    1.0094E+05 -1.8139E+03   1.0276E+05  0.000E+00  0.000E+00  0.000E+00  4.79303E+01  1.463E-01  2.000E+01  2.000E+04 -9.069E-02
   1   14    3     1     3    1.0276E+05 -3.3684E+02   1.0309E+05  0.000E+00  0.000E+00  0.000E+00  4.74540E+01  1.472E-01  2.000E+01  2.000E+04 -1.684E-02
   1   15    4     1     4    1.0309E+05 -3.3144E+02   1.0343E+05  0.000E+00  0.000E+00  0.000E+00  4.69770E+01  1.475E-01  2.000E+01  2.000E+04 -1.657E-02
   1   16    5     1     5    1.0343E+05 -1.4550E+03   1.0488E+05  0.000E+00  0.000E+00  0.000E+00  4.65005E+01  1.482E-01  2.000E+01  2.000E+04 -7.275E-02
   1   16    6     1     6    1.0488E+05 -9.1155E+02   1.0579E+05  0.000E+00  0.000E+00  0.000E+00  4.60242E+01  1.492E-01  2.000E+01  2.000E+04 -4.558E-02
   1   16    7     1     7    1.0579E+05 -8.9621E+02   1.0669E+05  0.000E+00  0.000E+00  0.000E+00  4.55477E+01  1.500E-01  2.000E+01  2.000E+04 -4.481E-02
   1   16    8     1     8    1.0669E+05 -8.9719E+02   1.0759E+05  0.000E+00  0.000E+00  0.000E+00  4.50712E+01  1.508E-01  2.000E+01  2.000E+04 -4.486E-02
   1   16    9     1     9    1.0759E+05 -8.9837E+02   1.0848E+05  0.000E+00  0.000E+00  0.000E+00  4.45947E+01  1.515E-01  2.000E+01  2.000E+04 -4.492E-02
   1   16   10     1    10    1.0848E+05 -9.0049E+02   1.0938E+05  0.000E+00  0.000E+00  0.000E+00  4.41182E+01  1.523E-01  2.000E+01  2.000E+04 -4.502E-02
   1   16   11     1    11    1.0938E+05 -9.2114E+02   1.1031E+05  0.000E+00  0.000E+00  0.000E+00  4.36417E+01  1.530E-01  2.000E+01  2.000E+04 -4.606E-02
   1   16   12     1    12    1.1031E+05 -1.4995E+03   1.1180E+05  0.000E+00  0.000E+00  0.000E+00  4.31654E+01  1.540E-01  2.000E+01  2.000E+04 -7.498E-02
   1   15   13     1    13    1.1180E+05 -1.0958E+03   1.1290E+05  0.000E+00  0.000E+00  0.000E+00  4.26892E+01  1.551E-01  2.000E+01  2.000E+04 -5.479E-02
   1   14   14     1    14    1.1290E+05 -1.0573E+03   1.1396E+05  0.000E+00  0.000E+00  0.000E+00  4.22128E+01  1.560E-01  2.000E+01  2.000E+04 -5.287E-02
   1   13   15     1    15    1.1396E+05 -1.0069E+03   1.1496E+05  0.000E+00  0.000E+00  0.000E+00  4.17364E+01  1.569E-01  2.000E+01  2.000E+04 -5.035E-02
   1   12   16     1    16    1.1496E+05 -9.5374E+02   1.1592E+05  0.000E+00  0.000E+00  0.000E+00  4.12599E+01  1.577E-01  2.000E+01  2.000E+04 -4.769E-02
   1   12   17     1    17    1.1592E+05 -7.9451E+02   1.1671E+05  0.000E+00  0.000E+00  0.000E+00  4.07834E+01  1.584E-01  2.000E+01  2.000E+04 -3.973E-02
   1   12   18     1    18    1.1671E+05 -8.5119E+02   1.1756E+05  0.000E+00  0.000E+00  0.000E+00  4.03068E+01  1.591E-01  2.000E+01  2.000E+04 -4.256E-02
   1   12   19     1    19    1.1756E+05 -1.1819E+03   1.1875E+05  0.000E+00  0.000E+00  0.000E+00  3.98303E+01  1.599E-01  2.000E+01  2.000E+04 -5.909E-02
   1   13   20     1    20    1.1875E+05 -1.2539E+03   1.2000E+05  0.000E+00  0.000E+00  0.000E+00  3.93540E+01  1.609E-01  2.000E+01  2.000E+04 -6.270E-02
   1   14   21     1    21    1.2000E+05 -1.3959E+03   1.2140E+05  0.000E+00  0.000E+00  0.000E+00  3.88778E+01  1.619E-01  2.000E+01  2.000E+04 -6.979E-02
   1   14   22     1    22    1.2140E+05  4.9968E+03   1.1640E+05  0.000E+00  0.000E+00  0.000E+00  3.83991E+01  1.605E-01  2.000E+01  2.000E+04  2.498E-01
   1    9   30     2     1    5.0000E+04  9.6814E+02   4.9032E+04  0.000E+00  0.000E+00  0.000E+00  4.02402E+01  1.152E-01  2.000E+01  2.000E+04  4.841E-02
   1    9   29     2     2    4.9032E+04  9.8859E+02   4.8043E+04  0.000E+00  0.000E+00  0.000E+00  3.99888E+01  1.138E-01  2.000E+01  2.000E+04  4.943E-02
   1    9   28     2     3    4.8043E+04  1.2550E+03   4.6788E+04  0.000E+00  0.000E+00  0.000E+00  3.97372E+01  1.122E-01  2.000E+01  2.000E+04  6.275E-02
   1    9   27     2     4    4.6788E+04  1.2482E+02   4.6663E+04  0.000E+00  0.000E+00  0.000E+00  3.94863E+01  1.113E-01  2.000E+01  2.000E+04  6.241E-03
   1   10   26     2     5    4.6663E+04 -4.5810E+02   4.7122E+04  0.000E+00  0.000E+00  0.000E+00  3.92365E+01  1.115E-01  2.000E+01  2.000E+04 -2.291E-02
   1   11   25     2     6    4.7122E+04 -6.0988E+02   4.7731E+04  0.000E+00  0.000E+00  0.000E+00  3.89872E+01  1.122E-01  2.000E+01  2.000E+04 -3.049E-02
   1   12   24     2     7    4.7731E+04 -8.1337E+02   4.8545E+04  0.000E+00  0.000E+00  0.000E+00  3.87383E+01  1.133E-01  2.000E+01  2.000E+04 -4.067E-02
   1   13   23     2     8    4.8545E+04 -1.3694E+02   4.8682E+04  0.000E+00  0.000E+00  0.000E+00  3.84889E+01  1.139E-01  2.000E+01  2.000E+04 -6.847E-03
   1   14   22     2     9    4.8682E+04  1.7699E+03   4.6912E+04  0.000E+00  0.000E+00  0.000E+00  3.82378E+01  1.128E-01  2.000E+01  2.000E+04  8.849E-02
   1   14   22     3     1    1.6331E+05 -8.6017E+03   1.7191E+05  0.000E+00  0.000E+00  0.000E+00  3.77192E+01  1.636E-01  2.000E+01  2.000E+04 -4.301E-01
   1   15   23     3     2    1.7191E+05 -5.0347E+02   1.7242E+05  0.000E+00  0.000E+00  0.000E+00  3.68330E+01  1.663E-01  2.000E+01  2.000E+04 -2.517E-02
   1   15   24     3     3    1.7242E+05 -2.4504E+02   1.7266E+05  0.000E+00  0.000E+00  0.000E+00  3.59443E+01  1.665E-01  2.000E+01  2.000E+04 -1.225E-02
   1   15   25     3     4    1.7266E+05 -2.3601E+02   1.7290E+05  0.000E+00  0.000E+00  0.000E+00  3.50555E+01  1.666E-01  2.000E+01  2.000E+04 -1.180E-02
   1   15   26     3     5    1.7290E+05 -2.8706E+02   1.7318E+05  0.000E+00  0.000E+00  0.000E+00  3.41668E+01  1.668E-01  2.000E+01  2.000E+04 -1.435E-02
   1   16   27     3     6    1.7318E+05 -3.1219E+02   1.7350E+05  0.000E+00  0.000E+00  0.000E+00  3.32781E+01  1.670E-01  2.000E+01  2.000E+04 -1.561E-02
   1   17   28     3     7    1.7350E+05 -1.4107E+03   1.7491E+05  0.000E+00  0.000E+00  0.000E+00  3.23897E+01  1.675E-01  2.000E+01  2.000E+04 -7.054E-02
   1   18   29     3     8    1.7491E+05 -2.7517E+03   1.7766E+05  0.000E+00  0.000E+00  0.000E+00  3.15020E+01  1.687E-01  2.000E+01  2.000E+04 -1.376E-01
   1   18   30     3     9    1.7766E+05 -3.0609E+03   1.8072E+05  0.000E+00  0.000E+00  0.000E+00  3.06148E+01  1.703E-01  2.000E+01  2.000E+04 -1.530E-01



1
              HEAD IN LAYER   1 AT END OF TIME STEP   1 IN STRESS PERIOD    9
  ---------------------------------------------------------------------------

          1      2      3      4      5      6      7      8      9     10
         11     12     13     14     15     16     17     18     19     20
         21     22     23     24     25     26     27     28     29     30
 .........................................................................
   1  ****** ****** ****** ****** ****** ****** ****** ****** ****** ******
      ****** ****** ****** ****** ****** ****** ****** ****** ****** ******
      ****** ****** ****** ****** ****** ****** ****** ****** ****** ******
   2  ****** ****** ****** ****** ****** ****** ****** ****** ****** ******
      ****** ****** ****** ****** ****** ****** ****** ****** ****** ******
      ****** ****** ****** ****** ****** ****** ****** ****** ****** ******
   3  ****** ****** ****** ****** ****** ****** ****** ****** ****** ******
      ****** ****** ****** ****** ****** ****** ****** ****** ****** ******
      ****** ****** ****** ****** ****** ****** ****** ****** ****** ******
   4  ****** ****** ****** ****** ****** ****** ****** ****** ****** ******
      ****** ****** ****** ****** ****** ****** ****** ****** ****** ******
      ****** ****** ****** ****** ****** ****** ****** ****** ****** ******
   5  ****** ****** ****** ****** ****** ****** ****** ****** ****** ******
      ****** ****** ****** ****** ****** ****** ****** ****** ****** ******
      ****** ****** ****** ****** ****** ****** ****** ****** ****** ******
   6  ****** ****** ****** ****** ****** ****** ****** ****** ****** ******
      ****** ****** ****** ****** ****** ****** ****** ****** ****** ******
      ****** ****** ****** ****** ****** ****** ****** ****** ****** ******
   7  ****** ****** ****** ****** ****** ****** ****** ****** ****** ******
      ****** ****** ****** ****** ****** ****** ****** ****** ****** ******
      ****** ****** ****** ****** ****** ****** ****** ****** ****** ******
   8  ****** ****** ****** ****** ****** ****** ****** ****** ****** ******
      ****** ****** ****** ****** ****** ****** ****** ****** ****** ******
      ****** ****** ****** ****** ****** ****** ****** ****** ****** ******
   9  ****** ****** ****** ****** ****** ****** ****** ****** ****** ******
      ****** ****** ****** ****** ****** ****** ****** ****** ****** ******
      ****** ****** ****** ****** ****** ****** ****** ****** ****** ******
  10  ****** ****** ****** ****** ****** ****** ****** ****** ****** ******
      ****** ****** ****** ****** ****** ****** ****** ****** ****** ******
      ****** ****** ****** ****** ****** ****** ****** ****** ****** ******
  11  ****** ****** ****** ****** ****** ****** ****** ****** ****** ******
      ****** ****** ****** ****** ****** ****** ****** ****** ****** ******
      ****** ****** ****** ****** ****** ****** ****** ****** ****** ******
  12  ****** ****** ****** ****** ****** ****** ****** ****** ****** ******
      ****** ****** ****** ****** ****** ****** ****** ****** ****** ******
      ****** ****** ****** ****** ****** ****** ****** ****** ****** ******
  13  ****** ****** ****** ****** ****** ****** ****** ****** ****** ******
      ****** ****** ****** ****** ****** ****** ****** ****** ****** ******
      ****** ****** ****** ****** ****** ****** ****** ****** ****** ******
  14  ****** ****** ****** ****** ****** ****** ****** ****** ****** ******
      ****** ****** ****** ****** ****** ****** ****** ****** ****** ******
      ****** ****** ****** ****** ****** ****** ****** ****** ****** ******
  15  ****** ****** ****** ****** ****** ****** ****** ****** ****** ******
      ****** ****** ****** ****** ****** ****** ****** ****** ****** ******
      ****** ****** ****** ****** ****** ****** ****** ****** ****** ******
  16  ****** ****** ****** ****** ****** ****** ****** ****** ****** ******
      ****** ****** ****** ****** ****** ****** ****** ****** ****** ******
      ****** ****** ****** ****** ****** ****** ****** ****** ****** ******
  17  ****** ****** ****** ****** ****** ****** ****** ****** ****** ******
      ****** ****** ****** ****** ****** ****** ****** ****** ****** ******
      ****** ****** ****** ****** ****** ****** ****** ****** ****** ******
  18  ****** ****** ****** ****** ****** ****** ****** ****** ****** ******
      ****** ****** ****** ****** ****** ****** ****** ****** ****** ******
      ****** ****** ****** ****** ****** ****** ****** ****** ****** ******
  19  ****** ****** ****** ****** ****** ****** ****** ****** ****** ******
      ****** ****** ****** ****** ****** ****** ****** ****** ****** ******
      ****** ****** ****** ****** ****** ****** ****** ****** ****** ******
  20  ****** ****** ****** ****** ****** ****** ****** ****** ****** ******
      ****** ****** ****** ****** ****** ****** ****** ****** ****** ******
      ****** ****** ****** ****** ****** ****** ****** ****** ****** ******
  21  ****** ****** ****** ****** ****** ****** ****** ****** ****** ******
      ****** ****** ****** ****** ****** ****** ****** ****** ****** ******
      ****** ****** ****** ****** ****** ****** ****** ****** ****** ******
  22  ****** ****** ****** ****** ****** ****** ****** ****** ****** ******
      ****** ****** ****** ****** ****** ****** ****** ****** ****** ******
      ****** ****** ****** ****** ****** ****** ****** ****** ****** ******
  23  ****** ****** ****** ****** ****** ****** ****** ****** ****** ******
      ****** ****** ****** ****** ****** ****** ****** ****** ****** ******
      ****** ****** ****** ****** ****** ****** ****** ****** ****** ******
  24  ****** ****** ****** ****** ****** ****** ****** ****** ****** ******
      ****** ****** ****** ****** ****** ****** ****** ****** ****** ******
      ****** ****** ****** ****** ****** ****** ****** ****** ****** ******
  25  ****** ****** ****** ****** ****** ****** ****** ****** ****** ******
      ****** ****** ****** ****** ****** ****** ****** ****** ****** ******
      ****** ****** ****** ****** ****** ****** ****** ****** ****** ******

 HEAD WILL BE SAVED ON UNIT   51 AT END OF TIME STEP    1, STRESS PERIOD    9
1
  VOLUMETRIC BUDGET FOR ENTIRE MODEL AT END OF TIME STEP    1, STRESS PERIOD   9
  ------------------------------------------------------------------------------

     CUMULATIVE VOLUMES      L**3       RATES FOR THIS TIME STEP      L**3/T
     ------------------                 ------------------------

           IN:                                      IN:
           ---                                      ---
             STORAGE =    35770968.8241               STORAGE =        7839.1983
       CONSTANT HEAD =    24382217.9096         CONSTANT HEAD =       37381.6313
               WELLS =           0.0000                 WELLS =           0.0000
            RECHARGE =    18878400.0000              RECHARGE =       13800.0000
      STREAM LEAKAGE =     6654253.0109        STREAM LEAKAGE =       10103.1632

            TOTAL IN =    85685839.7446              TOTAL IN =       69123.9928

          OUT:                                     OUT:
          ----                                     ----
             STORAGE =      828384.6657               STORAGE =           0.0000
       CONSTANT HEAD =           0.0000         CONSTANT HEAD =           0.0000
               WELLS =    23263466.3309                 WELLS =       28301.0539
            RECHARGE =           0.0000              RECHARGE =           0.0000
      STREAM LEAKAGE =    61593990.7368        STREAM LEAKAGE =       40822.9397

           TOTAL OUT =    85685841.7333             TOTAL OUT =       69123.9936

            IN - OUT =          -1.9888              IN - OUT =      -8.1570E-04

 PERCENT DISCREPANCY =          -0.00     PERCENT DISCREPANCY =          -0.00






         TIME SUMMARY AT END OF TIME STEP    1 IN STRESS PERIOD    9
                    SECONDS     MINUTES      HOURS       DAYS        YEARS
                    -----------------------------------------------------------
   TIME STEP LENGTH 7.94880E+06 1.32480E+05  2208.0      92.000     0.25188    
 STRESS PERIOD TIME 7.94880E+06 1.32480E+05  2208.0      92.000     0.25188    
         TOTAL TIME 7.10208E+07 1.18368E+06  19728.      822.00      2.2505    
1
1
                            STRESS PERIOD NO.   10, LENGTH =   91.00000    
                            -----------------------------------------------

                              NUMBER OF TIME STEPS =     1

                               MULTIPLIER FOR DELT =     1.500

                            INITIAL TIME STEP SIZE =   91.00000    

 WELL NO.  LAYER   ROW   COL   STRESS RATE         
 --------------------------------------------------
      1      1     14      6       0.000    
      2      1      3      9       0.000    
      3      1     20     10       0.000    
      4      1     14     20       0.000    
      5      1      4     13      -4782.    
      6      1      6     16      -7373.    
      7      1      4      8      -5811.    
      8      1      7     28     -0.1033E+05

      8 WELLS

                 RECHARGE =  2.000000E-03

 REUSING STREAM SEGMENT DATA FROM LAST STRESS PERIOD
 
 SOLVING FOR HEAD 


     7 CALLS TO PCG ROUTINE FOR TIME STEP   1 IN STRESS PERIOD   10
    26 TOTAL ITERATIONS

 OUTPUT CONTROL FOR STRESS PERIOD   10   TIME STEP    1
    SAVE BUDGET
    SAVE HEAD FOR ALL LAYERS
    PRINT HEAD FOR ALL LAYERS
 UBDSV2 SAVING "STREAMFLOW OUT  " ON UNIT  50 AT TIME STEP  1, STRESS PERIOD  10



 STREAM LISTING     PERIOD     10   STEP        1

 LAYER ROW COL. STREAM  RCH.  FLOW INTO     FLOW TO   FLOW OUT OF   OVRLND.     DIRECT     STREAM       STREAM     STREAM     STREAM   STREAMBED  STREAMBED
                SEG.NO.  NO.  STRM. RCH.    AQUIFER    STRM. RCH.    RUNOFF     PRECIP       ET          HEAD       DEPTH      WIDTH   CONDCTNC.   GRADIENT

   1   13    1     1     1    1.0000E+05 -1.3797E+03   1.0138E+05  0.000E+00  0.000E+00  0.000E+00  4.84066E+01  1.452E-01  2.000E+01  2.000E+04 -6.898E-02
   1   13    2     1     2    1.0138E+05 -2.2967E+03   1.0368E+05  0.000E+00  0.000E+00  0.000E+00  4.79309E+01  1.468E-01  2.000E+01  2.000E+04 -1.148E-01
   1   14    3     1     3    1.0368E+05 -5.2060E+02   1.0420E+05  0.000E+00  0.000E+00  0.000E+00  4.74549E+01  1.480E-01  2.000E+01  2.000E+04 -2.603E-02
   1   15    4     1     4    1.0420E+05 -5.2869E+02   1.0473E+05  0.000E+00  0.000E+00  0.000E+00  4.69780E+01  1.485E-01  2.000E+01  2.000E+04 -2.643E-02
   1   16    5     1     5    1.0473E+05 -2.0730E+03   1.0680E+05  0.000E+00  0.000E+00  0.000E+00  4.65019E+01  1.496E-01  2.000E+01  2.000E+04 -1.036E-01
   1   16    6     1     6    1.0680E+05 -1.2720E+03   1.0807E+05  0.000E+00  0.000E+00  0.000E+00  4.60260E+01  1.510E-01  2.000E+01  2.000E+04 -6.360E-02
   1   16    7     1     7    1.0807E+05 -1.2387E+03   1.0931E+05  0.000E+00  0.000E+00  0.000E+00  4.55498E+01  1.521E-01  2.000E+01  2.000E+04 -6.194E-02
   1   16    8     1     8    1.0931E+05 -1.2343E+03   1.1054E+05  0.000E+00  0.000E+00  0.000E+00  4.50736E+01  1.531E-01  2.000E+01  2.000E+04 -6.172E-02
   1   16    9     1     9    1.1054E+05 -1.2342E+03   1.1178E+05  0.000E+00  0.000E+00  0.000E+00  4.45973E+01  1.541E-01  2.000E+01  2.000E+04 -6.171E-02
   1   16   10     1    10    1.1178E+05 -1.2370E+03   1.1301E+05  0.000E+00  0.000E+00  0.000E+00  4.41211E+01  1.552E-01  2.000E+01  2.000E+04 -6.185E-02
   1   16   11     1    11    1.1301E+05 -1.2617E+03   1.1428E+05  0.000E+00  0.000E+00  0.000E+00  4.36448E+01  1.562E-01  2.000E+01  2.000E+04 -6.309E-02
   1   16   12     1    12    1.1428E+05 -2.0674E+03   1.1634E+05  0.000E+00  0.000E+00  0.000E+00  4.31689E+01  1.576E-01  2.000E+01  2.000E+04 -1.034E-01
   1   15   13     1    13    1.1634E+05 -1.6771E+03   1.1802E+05  0.000E+00  0.000E+00  0.000E+00  4.26932E+01  1.591E-01  2.000E+01  2.000E+04 -8.386E-02
   1   14   14     1    14    1.1802E+05 -1.6433E+03   1.1966E+05  0.000E+00  0.000E+00  0.000E+00  4.22173E+01  1.604E-01  2.000E+01  2.000E+04 -8.217E-02
   1   13   15     1    15    1.1966E+05 -1.5809E+03   1.2125E+05  0.000E+00  0.000E+00  0.000E+00  4.17413E+01  1.617E-01  2.000E+01  2.000E+04 -7.904E-02
   1   12   16     1    16    1.2125E+05 -1.5026E+03   1.2275E+05  0.000E+00  0.000E+00  0.000E+00  4.12653E+01  1.630E-01  2.000E+01  2.000E+04 -7.513E-02
   1   12   17     1    17    1.2275E+05 -1.2137E+03   1.2396E+05  0.000E+00  0.000E+00  0.000E+00  4.07891E+01  1.641E-01  2.000E+01  2.000E+04 -6.068E-02
   1   12   18     1    18    1.2396E+05 -1.2674E+03   1.2523E+05  0.000E+00  0.000E+00  0.000E+00  4.03128E+01  1.651E-01  2.000E+01  2.000E+04 -6.337E-02
   1   12   19     1    19    1.2523E+05 -1.6943E+03   1.2692E+05  0.000E+00  0.000E+00  0.000E+00  3.98367E+01  1.662E-01  2.000E+01  2.000E+04 -8.472E-02
   1   13   20     1    20    1.2692E+05 -1.7731E+03   1.2870E+05  0.000E+00  0.000E+00  0.000E+00  3.93608E+01  1.676E-01  2.000E+01  2.000E+04 -8.865E-02
   1   14   21     1    21    1.2870E+05 -1.9210E+03   1.3062E+05  0.000E+00  0.000E+00  0.000E+00  3.88850E+01  1.690E-01  2.000E+01  2.000E+04 -9.605E-02
   1   14   22     1    22    1.3062E+05  4.8671E+03   1.2575E+05  0.000E+00  0.000E+00  0.000E+00  3.84065E+01  1.679E-01  2.000E+01  2.000E+04  2.434E-01
   1    9   30     2     1    5.0000E+04  5.5525E+02   4.9445E+04  0.000E+00  0.000E+00  0.000E+00  4.02405E+01  1.155E-01  2.000E+01  2.000E+04  2.776E-02
   1    9   29     2     2    4.9445E+04  5.7811E+02   4.8867E+04  0.000E+00  0.000E+00  0.000E+00  3.99897E+01  1.147E-01  2.000E+01  2.000E+04  2.891E-02
   1    9   28     2     3    4.8867E+04  8.4560E+02   4.8021E+04  0.000E+00  0.000E+00  0.000E+00  3.97387E+01  1.137E-01  2.000E+01  2.000E+04  4.228E-02
   1    9   27     2     4    4.8021E+04 -4.2424E+02   4.8445E+04  0.000E+00  0.000E+00  0.000E+00  3.94884E+01  1.134E-01  2.000E+01  2.000E+04 -2.121E-02
   1   10   26     2     5    4.8445E+04 -1.0077E+03   4.9453E+04  0.000E+00  0.000E+00  0.000E+00  3.92394E+01  1.144E-01  2.000E+01  2.000E+04 -5.039E-02
   1   11   25     2     6    4.9453E+04 -1.1351E+03   5.0588E+04  0.000E+00  0.000E+00  0.000E+00  3.89909E+01  1.159E-01  2.000E+01  2.000E+04 -5.676E-02
   1   12   24     2     7    5.0588E+04 -1.2884E+03   5.1877E+04  0.000E+00  0.000E+00  0.000E+00  3.87426E+01  1.176E-01  2.000E+01  2.000E+04 -6.442E-02
   1   13   23     2     8    5.1877E+04 -2.8511E+02   5.2162E+04  0.000E+00  0.000E+00  0.000E+00  3.84937E+01  1.187E-01  2.000E+01  2.000E+04 -1.426E-02
   1   14   22     2     9    5.2162E+04  1.5916E+03   5.0570E+04  0.000E+00  0.000E+00  0.000E+00  3.82428E+01  1.178E-01  2.000E+01  2.000E+04  7.958E-02
   1   14   22     3     1    1.7632E+05 -8.7287E+03   1.8505E+05  0.000E+00  0.000E+00  0.000E+00  3.77267E+01  1.712E-01  2.000E+01  2.000E+04 -4.364E-01
   1   15   23     3     2    1.8505E+05 -6.6625E+02   1.8572E+05  0.000E+00  0.000E+00  0.000E+00  3.68405E+01  1.738E-01  2.000E+01  2.000E+04 -3.331E-02
   1   15   24     3     3    1.8572E+05 -3.8236E+02   1.8610E+05  0.000E+00  0.000E+00  0.000E+00  3.59519E+01  1.741E-01  2.000E+01  2.000E+04 -1.912E-02
   1   15   25     3     4    1.8610E+05 -3.7673E+02   1.8647E+05  0.000E+00  0.000E+00  0.000E+00  3.50632E+01  1.743E-01  2.000E+01  2.000E+04 -1.884E-02
   1   15   26     3     5    1.8647E+05 -4.4939E+02   1.8692E+05  0.000E+00  0.000E+00  0.000E+00  3.41746E+01  1.746E-01  2.000E+01  2.000E+04 -2.247E-02
   1   16   27     3     6    1.8692E+05 -4.9821E+02   1.8742E+05  0.000E+00  0.000E+00  0.000E+00  3.32860E+01  1.748E-01  2.000E+01  2.000E+04 -2.491E-02
   1   17   28     3     7    1.8742E+05 -1.9319E+03   1.8935E+05  0.000E+00  0.000E+00  0.000E+00  3.23977E+01  1.755E-01  2.000E+01  2.000E+04 -9.660E-02
   1   18   29     3     8    1.8935E+05 -3.3043E+03   1.9266E+05  0.000E+00  0.000E+00  0.000E+00  3.15103E+01  1.770E-01  2.000E+01  2.000E+04 -1.652E-01
   1   18   30     3     9    1.9266E+05 -3.4870E+03   1.9615E+05  0.000E+00  0.000E+00  0.000E+00  3.06233E+01  1.789E-01  2.000E+01  2.000E+04 -1.744E-01



1
              HEAD IN LAYER   1 AT END OF TIME STEP   1 IN STRESS PERIOD   10
  ---------------------------------------------------------------------------

          1      2      3      4      5      6      7      8      9     10
         11     12     13     14     15     16     17     18     19     20
         21     22     23     24     25     26     27     28     29     30
 .........................................................................
   1  ****** ****** ****** ****** ****** ****** ****** ****** ****** ******
      ****** ****** ****** ****** ****** ****** ****** ****** ****** ******
      ****** ****** ****** ****** ****** ****** ****** ****** ****** ******
   2  ****** ****** ****** ****** ****** ****** ****** ****** ****** ******
      ****** ****** ****** ****** ****** ****** ****** ****** ****** ******
      ****** ****** ****** ****** ****** ****** ****** ****** ****** ******
   3  ****** ****** ****** ****** ****** ****** ****** ****** ****** ******
      ****** ****** ****** ****** ****** ****** ****** ****** ****** ******
      ****** ****** ****** ****** ****** ****** ****** ****** ****** ******
   4  ****** ****** ****** ****** ****** ****** ****** ****** ****** ******
      ****** ****** ****** ****** ****** ****** ****** ****** ****** ******
      ****** ****** ****** ****** ****** ****** ****** ****** ****** ******
   5  ****** ****** ****** ****** ****** ****** ****** ****** ****** ******
      ****** ****** ****** ****** ****** ****** ****** ****** ****** ******
      ****** ****** ****** ****** ****** ****** ****** ****** ****** ******
   6  ****** ****** ****** ****** ****** ****** ****** ****** ****** ******
      ****** ****** ****** ****** ****** ****** ****** ****** ****** ******
      ****** ****** ****** ****** ****** ****** ****** ****** ****** ******
   7  ****** ****** ****** ****** ****** ****** ****** ****** ****** ******
      ****** ****** ****** ****** ****** ****** ****** ****** ****** ******
      ****** ****** ****** ****** ****** ****** ****** ****** ****** ******
   8  ****** ****** ****** ****** ****** ****** ****** ****** ****** ******
      ****** ****** ****** ****** ****** ****** ****** ****** ****** ******
      ****** ****** ****** ****** ****** ****** ****** ****** ****** ******
   9  ****** ****** ****** ****** ****** ****** ****** ****** ****** ******
      ****** ****** ****** ****** ****** ****** ****** ****** ****** ******
      ****** ****** ****** ****** ****** ****** ****** ****** ****** ******
  10  ****** ****** ****** ****** ****** ****** ****** ****** ****** ******
      ****** ****** ****** ****** ****** ****** ****** ****** ****** ******
      ****** ****** ****** ****** ****** ****** ****** ****** ****** ******
  11  ****** ****** ****** ****** ****** ****** ****** ****** ****** ******
      ****** ****** ****** ****** ****** ****** ****** ****** ****** ******
      ****** ****** ****** ****** ****** ****** ****** ****** ****** ******
  12  ****** ****** ****** ****** ****** ****** ****** ****** ****** ******
      ****** ****** ****** ****** ****** ****** ****** ****** ****** ******
      ****** ****** ****** ****** ****** ****** ****** ****** ****** ******
  13  ****** ****** ****** ****** ****** ****** ****** ****** ****** ******
      ****** ****** ****** ****** ****** ****** ****** ****** ****** ******
      ****** ****** ****** ****** ****** ****** ****** ****** ****** ******
  14  ****** ****** ****** ****** ****** ****** ****** ****** ****** ******
      ****** ****** ****** ****** ****** ****** ****** ****** ****** ******
      ****** ****** ****** ****** ****** ****** ****** ****** ****** ******
  15  ****** ****** ****** ****** ****** ****** ****** ****** ****** ******
      ****** ****** ****** ****** ****** ****** ****** ****** ****** ******
      ****** ****** ****** ****** ****** ****** ****** ****** ****** ******
  16  ****** ****** ****** ****** ****** ****** ****** ****** ****** ******
      ****** ****** ****** ****** ****** ****** ****** ****** ****** ******
      ****** ****** ****** ****** ****** ****** ****** ****** ****** ******
  17  ****** ****** ****** ****** ****** ****** ****** ****** ****** ******
      ****** ****** ****** ****** ****** ****** ****** ****** ****** ******
      ****** ****** ****** ****** ****** ****** ****** ****** ****** ******
  18  ****** ****** ****** ****** ****** ****** ****** ****** ****** ******
      ****** ****** ****** ****** ****** ****** ****** ****** ****** ******
      ****** ****** ****** ****** ****** ****** ****** ****** ****** ******
  19  ****** ****** ****** ****** ****** ****** ****** ****** ****** ******
      ****** ****** ****** ****** ****** ****** ****** ****** ****** ******
      ****** ****** ****** ****** ****** ****** ****** ****** ****** ******
  20  ****** ****** ****** ****** ****** ****** ****** ****** ****** ******
      ****** ****** ****** ****** ****** ****** ****** ****** ****** ******
      ****** ****** ****** ****** ****** ****** ****** ****** ****** ******
  21  ****** ****** ****** ****** ****** ****** ****** ****** ****** ******
      ****** ****** ****** ****** ****** ****** ****** ****** ****** ******
      ****** ****** ****** ****** ****** ****** ****** ****** ****** ******
  22  ****** ****** ****** ****** ****** ****** ****** ****** ****** ******
      ****** ****** ****** ****** ****** ****** ****** ****** ****** ******
      ****** ****** ****** ****** ****** ****** ****** ****** ****** ******
  23  ****** ****** ****** ****** ****** ****** ****** ****** ****** ******
      ****** ****** ****** ****** ****** ****** ****** ****** ****** ******
      ****** ****** ****** ****** ****** ****** ****** ****** ****** ******
  24  ****** ****** ****** ****** ****** ****** ****** ****** ****** ******
      ****** ****** ****** ****** ****** ****** ****** ****** ****** ******
      ****** ****** ****** ****** ****** ****** ****** ****** ****** ******
  25  ****** ****** ****** ****** ****** ****** ****** ****** ****** ******
      ****** ****** ****** ****** ****** ****** ****** ****** ****** ******
      ****** ****** ****** ****** ****** ****** ****** ****** ****** ******

 HEAD WILL BE SAVED ON UNIT   51 AT END OF TIME STEP    1, STRESS PERIOD   10
1
  VOLUMETRIC BUDGET FOR ENTIRE MODEL AT END OF TIME STEP    1, STRESS PERIOD  10
  ------------------------------------------------------------------------------

     CUMULATIVE VOLUMES      L**3       RATES FOR THIS TIME STEP      L**3/T
     ------------------                 ------------------------

           IN:                                      IN:
           ---                                      ---
             STORAGE =    35770968.8241               STORAGE =           0.0000
       CONSTANT HEAD =    27519772.9402         CONSTANT HEAD =       34478.6267
               WELLS =           0.0000                 WELLS =           0.0000
            RECHARGE =    23901600.0000              RECHARGE =       55200.0000
      STREAM LEAKAGE =     7422082.7823        STREAM LEAKAGE =        8437.6898

            TOTAL IN =    94614424.5466              TOTAL IN =       98116.3165

          OUT:                                     OUT:
          ----                                     ----
             STORAGE =     2214502.3989               STORAGE =       15232.0630
       CONSTANT HEAD =           0.0000         CONSTANT HEAD =           0.0000
               WELLS =    25838862.2386                 WELLS =       28301.0539
            RECHARGE =           0.0000              RECHARGE =           0.0000
      STREAM LEAKAGE =    66561061.5700        STREAM LEAKAGE =       54583.1960

           TOTAL OUT =    94614426.2075             TOTAL OUT =       98116.3129

            IN - OUT =          -1.6609              IN - OUT =       3.6032E-03

 PERCENT DISCREPANCY =          -0.00     PERCENT DISCREPANCY =           0.00






         TIME SUMMARY AT END OF TIME STEP    1 IN STRESS PERIOD   10
                    SECONDS     MINUTES      HOURS       DAYS        YEARS
                    -----------------------------------------------------------
   TIME STEP LENGTH 7.86240E+06 1.31040E+05  2184.0      91.000     0.24914    
 STRESS PERIOD TIME 7.86240E+06 1.31040E+05  2184.0      91.000     0.24914    
         TOTAL TIME 7.88832E+07 1.31472E+06  21912.      913.00      2.4997    
1
1
                            STRESS PERIOD NO.   11, LENGTH =   91.00000    
                            -----------------------------------------------

                              NUMBER OF TIME STEPS =     1

                               MULTIPLIER FOR DELT =     1.500

                            INITIAL TIME STEP SIZE =   91.00000    

 WELL NO.  LAYER   ROW   COL   STRESS RATE         
 --------------------------------------------------
      1      1     14      6       0.000    
      2      1      3      9       0.000    
      3      1     20     10       0.000    
      4      1     14     20       0.000    
      5      1      4     13      -4782.    
      6      1      6     16      -7373.    
      7      1      4      8      -5811.    
      8      1      7     28     -0.1033E+05

      8 WELLS

                 RECHARGE =   0.00000    

 REUSING STREAM SEGMENT DATA FROM LAST STRESS PERIOD
 
 SOLVING FOR HEAD 


     7 CALLS TO PCG ROUTINE FOR TIME STEP   1 IN STRESS PERIOD   11
    26 TOTAL ITERATIONS

 OUTPUT CONTROL FOR STRESS PERIOD   11   TIME STEP    1
    SAVE BUDGET
    SAVE HEAD FOR ALL LAYERS
    PRINT HEAD FOR ALL LAYERS
 UBDSV2 SAVING "STREAMFLOW OUT  " ON UNIT  50 AT TIME STEP  1, STRESS PERIOD  11



 STREAM LISTING     PERIOD     11   STEP        1

 LAYER ROW COL. STREAM  RCH.  FLOW INTO     FLOW TO   FLOW OUT OF   OVRLND.     DIRECT     STREAM       STREAM     STREAM     STREAM   STREAMBED  STREAMBED
                SEG.NO.  NO.  STRM. RCH.    AQUIFER    STRM. RCH.    RUNOFF     PRECIP       ET          HEAD       DEPTH      WIDTH   CONDCTNC.   GRADIENT

   1   13    1     1     1    1.0000E+05 -8.0047E+02   1.0080E+05  0.000E+00  0.000E+00  0.000E+00  4.84064E+01  1.450E-01  2.000E+01  2.000E+04 -4.002E-02
   1   13    2     1     2    1.0080E+05 -1.6509E+03   1.0245E+05  0.000E+00  0.000E+00  0.000E+00  4.79301E+01  1.461E-01  2.000E+01  2.000E+04 -8.255E-02
   1   14    3     1     3    1.0245E+05 -2.8764E+02   1.0274E+05  0.000E+00  0.000E+00  0.000E+00  4.74537E+01  1.469E-01  2.000E+01  2.000E+04 -1.438E-02
   1   15    4     1     4    1.0274E+05 -2.8515E+02   1.0302E+05  0.000E+00  0.000E+00  0.000E+00  4.69767E+01  1.471E-01  2.000E+01  2.000E+04 -1.426E-02
   1   16    5     1     5    1.0302E+05 -1.3843E+03   1.0441E+05  0.000E+00  0.000E+00  0.000E+00  4.65001E+01  1.479E-01  2.000E+01  2.000E+04 -6.922E-02
   1   16    6     1     6    1.0441E+05 -8.5642E+02   1.0526E+05  0.000E+00  0.000E+00  0.000E+00  4.60238E+01  1.488E-01  2.000E+01  2.000E+04 -4.282E-02
   1   16    7     1     7    1.0526E+05 -8.4054E+02   1.0611E+05  0.000E+00  0.000E+00  0.000E+00  4.55473E+01  1.495E-01  2.000E+01  2.000E+04 -4.203E-02
   1   16    8     1     8    1.0611E+05 -8.4169E+02   1.0695E+05  0.000E+00  0.000E+00  0.000E+00  4.50707E+01  1.502E-01  2.000E+01  2.000E+04 -4.208E-02
   1   16    9     1     9    1.0695E+05 -8.4407E+02   1.0779E+05  0.000E+00  0.000E+00  0.000E+00  4.45941E+01  1.510E-01  2.000E+01  2.000E+04 -4.220E-02
   1   16   10     1    10    1.0779E+05 -8.4828E+02   1.0864E+05  0.000E+00  0.000E+00  0.000E+00  4.41176E+01  1.517E-01  2.000E+01  2.000E+04 -4.241E-02
   1   16   11     1    11    1.0864E+05 -8.7165E+02   1.0951E+05  0.000E+00  0.000E+00  0.000E+00  4.36410E+01  1.524E-01  2.000E+01  2.000E+04 -4.358E-02
   1   16   12     1    12    1.0951E+05 -1.4206E+03   1.1093E+05  0.000E+00  0.000E+00  0.000E+00  4.31647E+01  1.534E-01  2.000E+01  2.000E+04 -7.103E-02
   1   15   13     1    13    1.1093E+05 -9.8482E+02   1.1192E+05  0.000E+00  0.000E+00  0.000E+00  4.26884E+01  1.544E-01  2.000E+01  2.000E+04 -4.924E-02
   1   14   14     1    14    1.1192E+05 -9.3151E+02   1.1285E+05  0.000E+00  0.000E+00  0.000E+00  4.22120E+01  1.551E-01  2.000E+01  2.000E+04 -4.658E-02
   1   13   15     1    15    1.1285E+05 -8.7320E+02   1.1372E+05  0.000E+00  0.000E+00  0.000E+00  4.17354E+01  1.559E-01  2.000E+01  2.000E+04 -4.366E-02
   1   12   16     1    16    1.1372E+05 -8.1587E+02   1.1454E+05  0.000E+00  0.000E+00  0.000E+00  4.12589E+01  1.566E-01  2.000E+01  2.000E+04 -4.079E-02
   1   12   17     1    17    1.1454E+05 -7.0239E+02   1.1524E+05  0.000E+00  0.000E+00  0.000E+00  4.07822E+01  1.572E-01  2.000E+01  2.000E+04 -3.512E-02
   1   12   18     1    18    1.1524E+05 -7.6464E+02   1.1600E+05  0.000E+00  0.000E+00  0.000E+00  4.03055E+01  1.578E-01  2.000E+01  2.000E+04 -3.823E-02
   1   12   19     1    19    1.1600E+05 -1.0773E+03   1.1708E+05  0.000E+00  0.000E+00  0.000E+00  3.98290E+01  1.586E-01  2.000E+01  2.000E+04 -5.387E-02
   1   13   20     1    20    1.1708E+05 -1.1592E+03   1.1824E+05  0.000E+00  0.000E+00  0.000E+00  3.93527E+01  1.595E-01  2.000E+01  2.000E+04 -5.796E-02
   1   14   21     1    21    1.1824E+05 -1.3240E+03   1.1956E+05  0.000E+00  0.000E+00  0.000E+00  3.88764E+01  1.605E-01  2.000E+01  2.000E+04 -6.620E-02
   1   14   22     1    22    1.1956E+05  5.0163E+03   1.1455E+05  0.000E+00  0.000E+00  0.000E+00  3.83976E+01  1.590E-01  2.000E+01  2.000E+04  2.508E-01
   1    9   30     2     1    5.0000E+04  1.0442E+03   4.8956E+04  0.000E+00  0.000E+00  0.000E+00  4.02401E+01  1.151E-01  2.000E+01  2.000E+04  5.221E-02
   1    9   29     2     2    4.8956E+04  1.0641E+03   4.7892E+04  0.000E+00  0.000E+00  0.000E+00  3.99887E+01  1.137E-01  2.000E+01  2.000E+04  5.320E-02
   1    9   28     2     3    4.7892E+04  1.3296E+03   4.6562E+04  0.000E+00  0.000E+00  0.000E+00  3.97370E+01  1.120E-01  2.000E+01  2.000E+04  6.648E-02
   1    9   27     2     4    4.6562E+04  2.1799E+02   4.6344E+04  0.000E+00  0.000E+00  0.000E+00  3.94859E+01  1.109E-01  2.000E+01  2.000E+04  1.090E-02
   1   10   26     2     5    4.6344E+04 -3.5144E+02   4.6696E+04  0.000E+00  0.000E+00  0.000E+00  3.92360E+01  1.110E-01  2.000E+01  2.000E+04 -1.757E-02
   1   11   25     2     6    4.6696E+04 -5.0275E+02   4.7198E+04  0.000E+00  0.000E+00  0.000E+00  3.89866E+01  1.116E-01  2.000E+01  2.000E+04 -2.514E-02
   1   12   24     2     7    4.7198E+04 -7.1305E+02   4.7911E+04  0.000E+00  0.000E+00  0.000E+00  3.87374E+01  1.124E-01  2.000E+01  2.000E+04 -3.565E-02
   1   13   23     2     8    4.7911E+04 -9.8962E+01   4.8010E+04  0.000E+00  0.000E+00  0.000E+00  3.84880E+01  1.130E-01  2.000E+01  2.000E+04 -4.948E-03
   1   14   22     2     9    4.8010E+04  1.7998E+03   4.6211E+04  0.000E+00  0.000E+00  0.000E+00  3.82368E+01  1.118E-01  2.000E+01  2.000E+04  8.999E-02
   1   14   22     3     1    1.6076E+05 -8.5824E+03   1.6934E+05  0.000E+00  0.000E+00  0.000E+00  3.77177E+01  1.621E-01  2.000E+01  2.000E+04 -4.291E-01
   1   15   23     3     2    1.6934E+05 -4.7436E+02   1.6982E+05  0.000E+00  0.000E+00  0.000E+00  3.68315E+01  1.648E-01  2.000E+01  2.000E+04 -2.372E-02
   1   15   24     3     3    1.6982E+05 -2.1732E+02   1.7003E+05  0.000E+00  0.000E+00  0.000E+00  3.59428E+01  1.650E-01  2.000E+01  2.000E+04 -1.087E-02
   1   15   25     3     4    1.7003E+05 -2.0785E+02   1.7024E+05  0.000E+00  0.000E+00  0.000E+00  3.50540E+01  1.651E-01  2.000E+01  2.000E+04 -1.039E-02
   1   15   26     3     5    1.7024E+05 -2.5375E+02   1.7049E+05  0.000E+00  0.000E+00  0.000E+00  3.41652E+01  1.652E-01  2.000E+01  2.000E+04 -1.269E-02
   1   16   27     3     6    1.7049E+05 -2.7530E+02   1.7077E+05  0.000E+00  0.000E+00  0.000E+00  3.32765E+01  1.654E-01  2.000E+01  2.000E+04 -1.376E-02
   1   17   28     3     7    1.7077E+05 -1.3226E+03   1.7209E+05  0.000E+00  0.000E+00  0.000E+00  3.23881E+01  1.659E-01  2.000E+01  2.000E+04 -6.613E-02
   1   18   29     3     8    1.7209E+05 -2.6832E+03   1.7478E+05  0.000E+00  0.000E+00  0.000E+00  3.15004E+01  1.670E-01  2.000E+01  2.000E+04 -1.342E-01
   1   18   30     3     9    1.7478E+05 -2.9982E+03   1.7777E+05  0.000E+00  0.000E+00  0.000E+00  3.06131E+01  1.687E-01  2.000E+01  2.000E+04 -1.499E-01



1
              HEAD IN LAYER   1 AT END OF TIME STEP   1 IN STRESS PERIOD   11
  ---------------------------------------------------------------------------

          1      2      3      4      5      6      7      8      9     10
         11     12     13     14     15     16     17     18     19     20
         21     22     23     24     25     26     27     28     29     30
 .........................................................................
   1  ****** ****** ****** ****** ****** ****** ****** ****** ****** ******
      ****** ****** ****** ****** ****** ****** ****** ****** ****** ******
      ****** ****** ****** ****** ****** ****** ****** ****** ****** ******
   2  ****** ****** ****** ****** ****** ****** ****** ****** ****** ******
      ****** ****** ****** ****** ****** ****** ****** ****** ****** ******
      ****** ****** ****** ****** ****** ****** ****** ****** ****** ******
   3  ****** ****** ****** ****** ****** ****** ****** ****** ****** ******
      ****** ****** ****** ****** ****** ****** ****** ****** ****** ******
      ****** ****** ****** ****** ****** ****** ****** ****** ****** ******
   4  ****** ****** ****** ****** ****** ****** ****** ****** ****** ******
      ****** ****** ****** ****** ****** ****** ****** ****** ****** ******
      ****** ****** ****** ****** ****** ****** ****** ****** ****** ******
   5  ****** ****** ****** ****** ****** ****** ****** ****** ****** ******
      ****** ****** ****** ****** ****** ****** ****** ****** ****** ******
      ****** ****** ****** ****** ****** ****** ****** ****** ****** ******
   6  ****** ****** ****** ****** ****** ****** ****** ****** ****** ******
      ****** ****** ****** ****** ****** ****** ****** ****** ****** ******
      ****** ****** ****** ****** ****** ****** ****** ****** ****** ******
   7  ****** ****** ****** ****** ****** ****** ****** ****** ****** ******
      ****** ****** ****** ****** ****** ****** ****** ****** ****** ******
      ****** ****** ****** ****** ****** ****** ****** ****** ****** ******
   8  ****** ****** ****** ****** ****** ****** ****** ****** ****** ******
      ****** ****** ****** ****** ****** ****** ****** ****** ****** ******
      ****** ****** ****** ****** ****** ****** ****** ****** ****** ******
   9  ****** ****** ****** ****** ****** ****** ****** ****** ****** ******
      ****** ****** ****** ****** ****** ****** ****** ****** ****** ******
      ****** ****** ****** ****** ****** ****** ****** ****** ****** ******
  10  ****** ****** ****** ****** ****** ****** ****** ****** ****** ******
      ****** ****** ****** ****** ****** ****** ****** ****** ****** ******
      ****** ****** ****** ****** ****** ****** ****** ****** ****** ******
  11  ****** ****** ****** ****** ****** ****** ****** ****** ****** ******
      ****** ****** ****** ****** ****** ****** ****** ****** ****** ******
      ****** ****** ****** ****** ****** ****** ****** ****** ****** ******
  12  ****** ****** ****** ****** ****** ****** ****** ****** ****** ******
      ****** ****** ****** ****** ****** ****** ****** ****** ****** ******
      ****** ****** ****** ****** ****** ****** ****** ****** ****** ******
  13  ****** ****** ****** ****** ****** ****** ****** ****** ****** ******
      ****** ****** ****** ****** ****** ****** ****** ****** ****** ******
      ****** ****** ****** ****** ****** ****** ****** ****** ****** ******
  14  ****** ****** ****** ****** ****** ****** ****** ****** ****** ******
      ****** ****** ****** ****** ****** ****** ****** ****** ****** ******
      ****** ****** ****** ****** ****** ****** ****** ****** ****** ******
  15  ****** ****** ****** ****** ****** ****** ****** ****** ****** ******
      ****** ****** ****** ****** ****** ****** ****** ****** ****** ******
      ****** ****** ****** ****** ****** ****** ****** ****** ****** ******
  16  ****** ****** ****** ****** ****** ****** ****** ****** ****** ******
      ****** ****** ****** ****** ****** ****** ****** ****** ****** ******
      ****** ****** ****** ****** ****** ****** ****** ****** ****** ******
  17  ****** ****** ****** ****** ****** ****** ****** ****** ****** ******
      ****** ****** ****** ****** ****** ****** ****** ****** ****** ******
      ****** ****** ****** ****** ****** ****** ****** ****** ****** ******
  18  ****** ****** ****** ****** ****** ****** ****** ****** ****** ******
      ****** ****** ****** ****** ****** ****** ****** ****** ****** ******
      ****** ****** ****** ****** ****** ****** ****** ****** ****** ******
  19  ****** ****** ****** ****** ****** ****** ****** ****** ****** ******
      ****** ****** ****** ****** ****** ****** ****** ****** ****** ******
      ****** ****** ****** ****** ****** ****** ****** ****** ****** ******
  20  ****** ****** ****** ****** ****** ****** ****** ****** ****** ******
      ****** ****** ****** ****** ****** ****** ****** ****** ****** ******
      ****** ****** ****** ****** ****** ****** ****** ****** ****** ******
  21  ****** ****** ****** ****** ****** ****** ****** ****** ****** ******
      ****** ****** ****** ****** ****** ****** ****** ****** ****** ******
      ****** ****** ****** ****** ****** ****** ****** ****** ****** ******
  22  ****** ****** ****** ****** ****** ****** ****** ****** ****** ******
      ****** ****** ****** ****** ****** ****** ****** ****** ****** ******
      ****** ****** ****** ****** ****** ****** ****** ****** ****** ******
  23  ****** ****** ****** ****** ****** ****** ****** ****** ****** ******
      ****** ****** ****** ****** ****** ****** ****** ****** ****** ******
      ****** ****** ****** ****** ****** ****** ****** ****** ****** ******
  24  ****** ****** ****** ****** ****** ****** ****** ****** ****** ******
      ****** ****** ****** ****** ****** ****** ****** ****** ****** ******
      ****** ****** ****** ****** ****** ****** ****** ****** ****** ******
  25  ****** ****** ****** ****** ****** ****** ****** ****** ****** ******
      ****** ****** ****** ****** ****** ****** ****** ****** ****** ******
      ****** ****** ****** ****** ****** ****** ****** ****** ****** ******

 HEAD WILL BE SAVED ON UNIT   51 AT END OF TIME STEP    1, STRESS PERIOD   11
1
  VOLUMETRIC BUDGET FOR ENTIRE MODEL AT END OF TIME STEP    1, STRESS PERIOD  11
  ------------------------------------------------------------------------------

     CUMULATIVE VOLUMES      L**3       RATES FOR THIS TIME STEP      L**3/T
     ------------------                 ------------------------

           IN:                                      IN:
           ---                                      ---
             STORAGE =    37433934.6621               STORAGE =       18274.3499
       CONSTANT HEAD =    30959631.7567         CONSTANT HEAD =       37800.6463
               WELLS =           0.0000                 WELLS =           0.0000
            RECHARGE =    23901600.0000              RECHARGE =           0.0000
      STREAM LEAKAGE =     8375032.3987        STREAM LEAKAGE =       10471.9738

            TOTAL IN =   100670198.8175              TOTAL IN =       66546.9700

          OUT:                                     OUT:
          ----                                     ----
             STORAGE =     2214502.3989               STORAGE =           0.0000
       CONSTANT HEAD =           0.0000         CONSTANT HEAD =           0.0000
               WELLS =    28414258.1462                 WELLS =       28301.0539
            RECHARGE =           0.0000              RECHARGE =           0.0000
      STREAM LEAKAGE =    70041440.3743        STREAM LEAKAGE =       38245.9209

           TOTAL OUT =   100670200.9194             TOTAL OUT =       66546.9749

            IN - OUT =          -2.1019              IN - OUT =      -4.8469E-03

 PERCENT DISCREPANCY =          -0.00     PERCENT DISCREPANCY =          -0.00






         TIME SUMMARY AT END OF TIME STEP    1 IN STRESS PERIOD   11
                    SECONDS     MINUTES      HOURS       DAYS        YEARS
                    -----------------------------------------------------------
   TIME STEP LENGTH 7.86240E+06 1.31040E+05  2184.0      91.000     0.24914    
 STRESS PERIOD TIME 7.86240E+06 1.31040E+05  2184.0      91.000     0.24914    
         TOTAL TIME 8.67456E+07 1.44576E+06  24096.      1004.0      2.7488    
1
1
                            STRESS PERIOD NO.   12, LENGTH =   91.00000    
                            -----------------------------------------------

                              NUMBER OF TIME STEPS =     1

                               MULTIPLIER FOR DELT =     1.500

                            INITIAL TIME STEP SIZE =   91.00000    

 WELL NO.  LAYER   ROW   COL   STRESS RATE         
 --------------------------------------------------
      1      1     14      6       0.000    
      2      1      3      9       0.000    
      3      1     20     10       0.000    
      4      1     14     20       0.000    
      5      1      4     13      -4782.    
      6      1      6     16      -7373.    
      7      1      4      8      -5811.    
      8      1      7     28     -0.1033E+05

      8 WELLS

                 RECHARGE =  1.000000E-03

 REUSING STREAM SEGMENT DATA FROM LAST STRESS PERIOD
 
 SOLVING FOR HEAD 


     7 CALLS TO PCG ROUTINE FOR TIME STEP   1 IN STRESS PERIOD   12
    24 TOTAL ITERATIONS

 OUTPUT CONTROL FOR STRESS PERIOD   12   TIME STEP    1
    SAVE BUDGET
    SAVE HEAD FOR ALL LAYERS
    PRINT HEAD FOR ALL LAYERS
 UBDSV2 SAVING "STREAMFLOW OUT  " ON UNIT  50 AT TIME STEP  1, STRESS PERIOD  12



 STREAM LISTING     PERIOD     12   STEP        1

 LAYER ROW COL. STREAM  RCH.  FLOW INTO     FLOW TO   FLOW OUT OF   OVRLND.     DIRECT     STREAM       STREAM     STREAM     STREAM   STREAMBED  STREAMBED
                SEG.NO.  NO.  STRM. RCH.    AQUIFER    STRM. RCH.    RUNOFF     PRECIP       ET          HEAD       DEPTH      WIDTH   CONDCTNC.   GRADIENT

   1   13    1     1     1    1.0000E+05 -9.3636E+02   1.0094E+05  0.000E+00  0.000E+00  0.000E+00  4.84064E+01  1.451E-01  2.000E+01  2.000E+04 -4.682E-02
   1   13    2     1     2    1.0094E+05 -1.7961E+03   1.0273E+05  0.000E+00  0.000E+00  0.000E+00  4.79303E+01  1.462E-01  2.000E+01  2.000E+04 -8.981E-02
   1   14    3     1     3    1.0273E+05 -3.6465E+02   1.0310E+05  0.000E+00  0.000E+00  0.000E+00  4.74540E+01  1.472E-01  2.000E+01  2.000E+04 -1.823E-02
   1   15    4     1     4    1.0310E+05 -3.6628E+02   1.0346E+05  0.000E+00  0.000E+00  0.000E+00  4.69770E+01  1.475E-01  2.000E+01  2.000E+04 -1.831E-02
   1   16    5     1     5    1.0346E+05 -1.5934E+03   1.0506E+05  0.000E+00  0.000E+00  0.000E+00  4.65006E+01  1.483E-01  2.000E+01  2.000E+04 -7.967E-02
   1   16    6     1     6    1.0506E+05 -9.8584E+02   1.0604E+05  0.000E+00  0.000E+00  0.000E+00  4.60244E+01  1.494E-01  2.000E+01  2.000E+04 -4.929E-02
   1   16    7     1     7    1.0604E+05 -9.6477E+02   1.0701E+05  0.000E+00  0.000E+00  0.000E+00  4.55480E+01  1.502E-01  2.000E+01  2.000E+04 -4.824E-02
   1   16    8     1     8    1.0701E+05 -9.6491E+02   1.0797E+05  0.000E+00  0.000E+00  0.000E+00  4.50715E+01  1.511E-01  2.000E+01  2.000E+04 -4.825E-02
   1   16    9     1     9    1.0797E+05 -9.6787E+02   1.0894E+05  0.000E+00  0.000E+00  0.000E+00  4.45951E+01  1.519E-01  2.000E+01  2.000E+04 -4.839E-02
   1   16   10     1    10    1.0894E+05 -9.7367E+02   1.0991E+05  0.000E+00  0.000E+00  0.000E+00  4.41186E+01  1.527E-01  2.000E+01  2.000E+04 -4.868E-02
   1   16   11     1    11    1.0991E+05 -9.9958E+02   1.1091E+05  0.000E+00  0.000E+00  0.000E+00  4.36421E+01  1.535E-01  2.000E+01  2.000E+04 -4.998E-02
   1   16   12     1    12    1.1091E+05 -1.6213E+03   1.1253E+05  0.000E+00  0.000E+00  0.000E+00  4.31660E+01  1.546E-01  2.000E+01  2.000E+04 -8.107E-02
   1   15   13     1    13    1.1253E+05 -1.1990E+03   1.1373E+05  0.000E+00  0.000E+00  0.000E+00  4.26899E+01  1.558E-01  2.000E+01  2.000E+04 -5.995E-02
   1   14   14     1    14    1.1373E+05 -1.1450E+03   1.1488E+05  0.000E+00  0.000E+00  0.000E+00  4.22136E+01  1.567E-01  2.000E+01  2.000E+04 -5.725E-02
   1   13   15     1    15    1.1488E+05 -1.0784E+03   1.1596E+05  0.000E+00  0.000E+00  0.000E+00  4.17372E+01  1.576E-01  2.000E+01  2.000E+04 -5.392E-02
   1   12   16     1    16    1.1596E+05 -9.9289E+02   1.1695E+05  0.000E+00  0.000E+00  0.000E+00  4.12608E+01  1.585E-01  2.000E+01  2.000E+04 -4.964E-02
   1   12   17     1    17    1.1695E+05 -8.5273E+02   1.1780E+05  0.000E+00  0.000E+00  0.000E+00  4.07842E+01  1.592E-01  2.000E+01  2.000E+04 -4.264E-02
   1   12   18     1    18    1.1780E+05 -9.1774E+02   1.1872E+05  0.000E+00  0.000E+00  0.000E+00  4.03077E+01  1.600E-01  2.000E+01  2.000E+04 -4.589E-02
   1   12   19     1    19    1.1872E+05 -1.2668E+03   1.1999E+05  0.000E+00  0.000E+00  0.000E+00  3.98313E+01  1.609E-01  2.000E+01  2.000E+04 -6.334E-02
   1   13   20     1    20    1.1999E+05 -1.3685E+03   1.2136E+05  0.000E+00  0.000E+00  0.000E+00  3.93551E+01  1.619E-01  2.000E+01  2.000E+04 -6.842E-02
   1   14   21     1    21    1.2136E+05 -1.5180E+03   1.2287E+05  0.000E+00  0.000E+00  0.000E+00  3.88790E+01  1.631E-01  2.000E+01  2.000E+04 -7.590E-02
   1   14   22     1    22    1.2287E+05  4.9621E+03   1.1791E+05  0.000E+00  0.000E+00  0.000E+00  3.84003E+01  1.617E-01  2.000E+01  2.000E+04  2.481E-01
   1    9   30     2     1    5.0000E+04  8.6839E+02   4.9132E+04  0.000E+00  0.000E+00  0.000E+00  4.02403E+01  1.153E-01  2.000E+01  2.000E+04  4.342E-02
   1    9   29     2     2    4.9132E+04  8.9039E+02   4.8241E+04  0.000E+00  0.000E+00  0.000E+00  3.99890E+01  1.140E-01  2.000E+01  2.000E+04  4.452E-02
   1    9   28     2     3    4.8241E+04  1.1596E+03   4.7082E+04  0.000E+00  0.000E+00  0.000E+00  3.97376E+01  1.126E-01  2.000E+01  2.000E+04  5.798E-02
   1    9   27     2     4    4.7082E+04  1.0621E+01   4.7071E+04  0.000E+00  0.000E+00  0.000E+00  3.94868E+01  1.118E-01  2.000E+01  2.000E+04  5.310E-04
   1   10   26     2     5    4.7071E+04 -5.7970E+02   4.7651E+04  0.000E+00  0.000E+00  0.000E+00  3.92372E+01  1.122E-01  2.000E+01  2.000E+04 -2.899E-02
   1   11   25     2     6    4.7651E+04 -7.2717E+02   4.8378E+04  0.000E+00  0.000E+00  0.000E+00  3.89881E+01  1.131E-01  2.000E+01  2.000E+04 -3.636E-02
   1   12   24     2     7    4.8378E+04 -9.1773E+02   4.9296E+04  0.000E+00  0.000E+00  0.000E+00  3.87392E+01  1.142E-01  2.000E+01  2.000E+04 -4.589E-02
   1   13   23     2     8    4.9296E+04 -1.7634E+02   4.9472E+04  0.000E+00  0.000E+00  0.000E+00  3.84900E+01  1.150E-01  2.000E+01  2.000E+04 -8.817E-03
   1   14   22     2     9    4.9472E+04  1.7338E+03   4.7738E+04  0.000E+00  0.000E+00  0.000E+00  3.82389E+01  1.139E-01  2.000E+01  2.000E+04  8.669E-02
   1   14   22     3     1    1.6565E+05 -8.6331E+03   1.7428E+05  0.000E+00  0.000E+00  0.000E+00  3.77206E+01  1.650E-01  2.000E+01  2.000E+04 -4.317E-01
   1   15   23     3     2    1.7428E+05 -5.4647E+02   1.7483E+05  0.000E+00  0.000E+00  0.000E+00  3.68343E+01  1.677E-01  2.000E+01  2.000E+04 -2.732E-02
   1   15   24     3     3    1.7483E+05 -2.8246E+02   1.7511E+05  0.000E+00  0.000E+00  0.000E+00  3.59457E+01  1.679E-01  2.000E+01  2.000E+04 -1.412E-02
   1   15   25     3     4    1.7511E+05 -2.7425E+02   1.7539E+05  0.000E+00  0.000E+00  0.000E+00  3.50570E+01  1.681E-01  2.000E+01  2.000E+04 -1.371E-02
   1   15   26     3     5    1.7539E+05 -3.3126E+02   1.7572E+05  0.000E+00  0.000E+00  0.000E+00  3.41682E+01  1.682E-01  2.000E+01  2.000E+04 -1.656E-02
   1   16   27     3     6    1.7572E+05 -3.6214E+02   1.7608E+05  0.000E+00  0.000E+00  0.000E+00  3.32796E+01  1.684E-01  2.000E+01  2.000E+04 -1.811E-02
   1   17   28     3     7    1.7608E+05 -1.5435E+03   1.7762E+05  0.000E+00  0.000E+00  0.000E+00  3.23912E+01  1.690E-01  2.000E+01  2.000E+04 -7.717E-02
   1   18   29     3     8    1.7762E+05 -2.8842E+03   1.8051E+05  0.000E+00  0.000E+00  0.000E+00  3.15036E+01  1.703E-01  2.000E+01  2.000E+04 -1.442E-01
   1   18   30     3     9    1.8051E+05 -3.1666E+03   1.8367E+05  0.000E+00  0.000E+00  0.000E+00  3.06164E+01  1.720E-01  2.000E+01  2.000E+04 -1.583E-01



1
              HEAD IN LAYER   1 AT END OF TIME STEP   1 IN STRESS PERIOD   12
  ---------------------------------------------------------------------------

          1      2      3      4      5      6      7      8      9     10
         11     12     13     14     15     16     17     18     19     20
         21     22     23     24     25     26     27     28     29     30
 .........................................................................
   1  ****** ****** ****** ****** ****** ****** ****** ****** ****** ******
      ****** ****** ****** ****** ****** ****** ****** ****** ****** ******
      ****** ****** ****** ****** ****** ****** ****** ****** ****** ******
   2  ****** ****** ****** ****** ****** ****** ****** ****** ****** ******
      ****** ****** ****** ****** ****** ****** ****** ****** ****** ******
      ****** ****** ****** ****** ****** ****** ****** ****** ****** ******
   3  ****** ****** ****** ****** ****** ****** ****** ****** ****** ******
      ****** ****** ****** ****** ****** ****** ****** ****** ****** ******
      ****** ****** ****** ****** ****** ****** ****** ****** ****** ******
   4  ****** ****** ****** ****** ****** ****** ****** ****** ****** ******
      ****** ****** ****** ****** ****** ****** ****** ****** ****** ******
      ****** ****** ****** ****** ****** ****** ****** ****** ****** ******
   5  ****** ****** ****** ****** ****** ****** ****** ****** ****** ******
      ****** ****** ****** ****** ****** ****** ****** ****** ****** ******
      ****** ****** ****** ****** ****** ****** ****** ****** ****** ******
   6  ****** ****** ****** ****** ****** ****** ****** ****** ****** ******
      ****** ****** ****** ****** ****** ****** ****** ****** ****** ******
      ****** ****** ****** ****** ****** ****** ****** ****** ****** ******
   7  ****** ****** ****** ****** ****** ****** ****** ****** ****** ******
      ****** ****** ****** ****** ****** ****** ****** ****** ****** ******
      ****** ****** ****** ****** ****** ****** ****** ****** ****** ******
   8  ****** ****** ****** ****** ****** ****** ****** ****** ****** ******
      ****** ****** ****** ****** ****** ****** ****** ****** ****** ******
      ****** ****** ****** ****** ****** ****** ****** ****** ****** ******
   9  ****** ****** ****** ****** ****** ****** ****** ****** ****** ******
      ****** ****** ****** ****** ****** ****** ****** ****** ****** ******
      ****** ****** ****** ****** ****** ****** ****** ****** ****** ******
  10  ****** ****** ****** ****** ****** ****** ****** ****** ****** ******
      ****** ****** ****** ****** ****** ****** ****** ****** ****** ******
      ****** ****** ****** ****** ****** ****** ****** ****** ****** ******
  11  ****** ****** ****** ****** ****** ****** ****** ****** ****** ******
      ****** ****** ****** ****** ****** ****** ****** ****** ****** ******
      ****** ****** ****** ****** ****** ****** ****** ****** ****** ******
  12  ****** ****** ****** ****** ****** ****** ****** ****** ****** ******
      ****** ****** ****** ****** ****** ****** ****** ****** ****** ******
      ****** ****** ****** ****** ****** ****** ****** ****** ****** ******
  13  ****** ****** ****** ****** ****** ****** ****** ****** ****** ******
      ****** ****** ****** ****** ****** ****** ****** ****** ****** ******
      ****** ****** ****** ****** ****** ****** ****** ****** ****** ******
  14  ****** ****** ****** ****** ****** ****** ****** ****** ****** ******
      ****** ****** ****** ****** ****** ****** ****** ****** ****** ******
      ****** ****** ****** ****** ****** ****** ****** ****** ****** ******
  15  ****** ****** ****** ****** ****** ****** ****** ****** ****** ******
      ****** ****** ****** ****** ****** ****** ****** ****** ****** ******
      ****** ****** ****** ****** ****** ****** ****** ****** ****** ******
  16  ****** ****** ****** ****** ****** ****** ****** ****** ****** ******
      ****** ****** ****** ****** ****** ****** ****** ****** ****** ******
      ****** ****** ****** ****** ****** ****** ****** ****** ****** ******
  17  ****** ****** ****** ****** ****** ****** ****** ****** ****** ******
      ****** ****** ****** ****** ****** ****** ****** ****** ****** ******
      ****** ****** ****** ****** ****** ****** ****** ****** ****** ******
  18  ****** ****** ****** ****** ****** ****** ****** ****** ****** ******
      ****** ****** ****** ****** ****** ****** ****** ****** ****** ******
      ****** ****** ****** ****** ****** ****** ****** ****** ****** ******
  19  ****** ****** ****** ****** ****** ****** ****** ****** ****** ******
      ****** ****** ****** ****** ****** ****** ****** ****** ****** ******
      ****** ****** ****** ****** ****** ****** ****** ****** ****** ******
  20  ****** ****** ****** ****** ****** ****** ****** ****** ****** ******
      ****** ****** ****** ****** ****** ****** ****** ****** ****** ******
      ****** ****** ****** ****** ****** ****** ****** ****** ****** ******
  21  ****** ****** ****** ****** ****** ****** ****** ****** ****** ******
      ****** ****** ****** ****** ****** ****** ****** ****** ****** ******
      ****** ****** ****** ****** ****** ****** ****** ****** ****** ******
  22  ****** ****** ****** ****** ****** ****** ****** ****** ****** ******
      ****** ****** ****** ****** ****** ****** ****** ****** ****** ******
      ****** ****** ****** ****** ****** ****** ****** ****** ****** ******
  23  ****** ****** ****** ****** ****** ****** ****** ****** ****** ******
      ****** ****** ****** ****** ****** ****** ****** ****** ****** ******
      ****** ****** ****** ****** ****** ****** ****** ****** ****** ******
  24  ****** ****** ****** ****** ****** ****** ****** ****** ****** ******
      ****** ****** ****** ****** ****** ****** ****** ****** ****** ******
      ****** ****** ****** ****** ****** ****** ****** ****** ****** ******
  25  ****** ****** ****** ****** ****** ****** ****** ****** ****** ******
      ****** ****** ****** ****** ****** ****** ****** ****** ****** ******
      ****** ****** ****** ****** ****** ****** ****** ****** ****** ******

 HEAD WILL BE SAVED ON UNIT   51 AT END OF TIME STEP    1, STRESS PERIOD   12
1
  VOLUMETRIC BUDGET FOR ENTIRE MODEL AT END OF TIME STEP    1, STRESS PERIOD  12
  ------------------------------------------------------------------------------

     CUMULATIVE VOLUMES      L**3       RATES FOR THIS TIME STEP      L**3/T
     ------------------                 ------------------------

           IN:                                      IN:
           ---                                      ---
             STORAGE =    37442765.4147               STORAGE =          97.0412
       CONSTANT HEAD =    34338543.4069         CONSTANT HEAD =       37130.8973
               WELLS =           0.0000                 WELLS =           0.0000
            RECHARGE =    26413200.0000              RECHARGE =       27600.0000
      STREAM LEAKAGE =     9250896.6673        STREAM LEAKAGE =        9624.8821

            TOTAL IN =   107445405.4889              TOTAL IN =       74452.8206

          OUT:                                     OUT:
          ----                                     ----
             STORAGE =     2474117.1682               STORAGE =        2852.9096
       CONSTANT HEAD =           0.0000         CONSTANT HEAD =           0.0000
               WELLS =    30989654.0539                 WELLS =       28301.0539
            RECHARGE =           0.0000              RECHARGE =           0.0000
      STREAM LEAKAGE =    73981636.2909        STREAM LEAKAGE =       43298.8562

           TOTAL OUT =   107445407.5129             TOTAL OUT =       74452.8197

            IN - OUT =          -2.0240              IN - OUT =       8.5629E-04

 PERCENT DISCREPANCY =          -0.00     PERCENT DISCREPANCY =           0.00






         TIME SUMMARY AT END OF TIME STEP    1 IN STRESS PERIOD   12
                    SECONDS     MINUTES      HOURS       DAYS        YEARS
                    -----------------------------------------------------------
   TIME STEP LENGTH 7.86240E+06 1.31040E+05  2184.0      91.000     0.24914    
 STRESS PERIOD TIME 7.86240E+06 1.31040E+05  2184.0      91.000     0.24914    
         TOTAL TIME 9.46080E+07 1.57680E+06  26280.      1095.0      2.9979    
1

 Run end date and time (yyyy/mm/dd hh:mm:ss): 2019/03/05 13:35:30
 Elapsed run time:  0.088 Seconds

