                                  MODFLOW-2005     
      U.S. GEOLOGICAL SURVEY MODULAR FINITE-DIFFERENCE GROUND-WATER FLOW MODEL
                            VERSION 1.11.00 8/8/2013

 LIST FILE: supply2.lst
                         UNIT   10

 OPENING ..\data\supply.dis
 FILE TYPE:DIS   UNIT   11   STATUS:OLD    
 FORMAT:FORMATTED              ACCESS:SEQUENTIAL          

 OPENING ..\data\supply.ba6
 FILE TYPE:BAS6   UNIT   12   STATUS:OLD    
 FORMAT:FORMATTED              ACCESS:SEQUENTIAL          

 OPENING ..\data\supply.bc6
 FILE TYPE:BCF6   UNIT   13   STATUS:OLD    
 FORMAT:FORMATTED              ACCESS:SEQUENTIAL          

 OPENING ..\data\supply.rch
 FILE TYPE:RCH   UNIT   15   STATUS:OLD    
 FORMAT:FORMATTED              ACCESS:SEQUENTIAL          

 OPENING ..\data\supply2.sfr
 FILE TYPE:SFR   UNIT   16   STATUS:OLD    
 FORMAT:FORMATTED              ACCESS:SEQUENTIAL          

 OPENING ..\data\supply.oc
 FILE TYPE:OC   UNIT   17   STATUS:OLD    
 FORMAT:FORMATTED              ACCESS:SEQUENTIAL          

 OPENING ..\data\supply.pcg
 FILE TYPE:PCG   UNIT   18   STATUS:OLD    
 FORMAT:FORMATTED              ACCESS:SEQUENTIAL          

 OPENING supply2.wel
 FILE TYPE:WEL   UNIT   19   STATUS:OLD    
 FORMAT:FORMATTED              ACCESS:SEQUENTIAL          

 OPENING supply2sf.cbc
 FILE TYPE:DATA(BINARY)   UNIT   50   STATUS:UNKNOWN
 FORMAT:BINARY                 ACCESS:SEQUENTIAL          

 OPENING supply2hd.bhd
 FILE TYPE:DATA(BINARY)   UNIT   51   STATUS:UNKNOWN
 FORMAT:BINARY                 ACCESS:SEQUENTIAL          

 BAS -- BASIC PACKAGE, VERSION 7, 5/2/2005 INPUT READ FROM UNIT   12
 
 MODFLOW was compiled using uniform precision
 Precision of REAL and DOUBLE PRECISION variables:          15

 DISCRETIZATION INPUT DATA READ FROM UNIT   11
    1 LAYERS        25 ROWS        30 COLUMNS
   12 STRESS PERIOD(S) IN SIMULATION
 MODEL TIME UNIT IS DAYS
 MODEL LENGTH UNIT IS UNDEFINED
  Confining bed flag for each layer:
   0

                     DELR =   200.000    

                     DELC =   200.000    

 TOP ELEVATION OF LAYER 1 =  100.0000    

   MODEL LAYER BOTTOM EL. =   0.00000     FOR LAYER   1


 STRESS PERIOD     LENGTH       TIME STEPS     MULTIPLIER FOR DELT    SS FLAG
 ----------------------------------------------------------------------------
        1         92.00000          1                    1.500         TR
        2         91.00000          1                    1.500         TR
        3         91.00000          1                    1.500         TR
        4         91.00000          1                    1.500         TR
        5         92.00000          1                    1.500         TR
        6         91.00000          1                    1.500         TR
        7         91.00000          1                    1.500         TR
        8         91.00000          1                    1.500         TR
        9         92.00000          1                    1.500         TR
       10         91.00000          1                    1.500         TR
       11         91.00000          1                    1.500         TR
       12         91.00000          1                    1.500         TR

 TRANSIENT SIMULATION



 
 #MODOFC transient water supply sample problem                                   
 #                                                                               
 THE FREE FORMAT OPTION HAS BEEN SELECTED



                     BOUNDARY ARRAY FOR LAYER   1
 READING ON UNIT   12 WITH FORMAT: (20I4)              

 AQUIFER HEAD WILL BE SET TO   0.0000     AT ALL NO-FLOW NODES (IBOUND=0).



                       INITIAL HEAD FOR LAYER   1
 READING ON UNIT   12 WITH FORMAT: (10F13.0)           

 OUTPUT CONTROL IS SPECIFIED ONLY AT TIME STEPS FOR WHICH OUTPUT IS DESIRED
 COMPACT CELL-BY-CELL BUDGET FILES WILL BE WRITTEN
 HEAD PRINT FORMAT CODE IS  18    DRAWDOWN PRINT FORMAT CODE IS   0
 HEADS WILL BE SAVED ON UNIT   51    DRAWDOWNS WILL BE SAVED ON UNIT    0

 BCF -- BLOCK-CENTERED FLOW PACKAGE, VERSION 7, 5/2/2005
         INPUT READ FROM UNIT 13
 TRANSIENT SIMULATION
 HEAD AT CELLS THAT CONVERT TO DRY=   0.0000    
 WETTING CAPABILITY IS NOT ACTIVE
      LAYER  LAYER-TYPE CODE     INTERBLOCK T
      --------------------------------------------
         1            0          0 -- HARMONIC    

 COLUMN TO ROW ANISOTROPY =  1.000000    

     PRIMARY STORAGE COEF =  5.000000E-02 FOR LAYER   1

     TRANSMIS. ALONG ROWS =   500.000     FOR LAYER   1

 WEL -- WELL PACKAGE, VERSION 7, 5/2/2005 INPUT READ FROM UNIT   19
 # Well package input file written by MMProc
 No named parameters
 MAXIMUM OF      6 ACTIVE WELLS AT ONE TIME


     0 Well parameters

 RCH -- RECHARGE PACKAGE, VERSION 7, 5/2/2005 INPUT READ FROM UNIT   15
 No named parameters
 OPTION 1 -- RECHARGE TO TOP LAYER


     0 Recharge parameters

 SFR7 -- STREAMFLOW ROUTING PACKAGE, VERSION 1.0.7, 2013-01-15
         INPUT READ FROM UNIT  16
 #  Supply2 test problem for GWM-VI
 #  The eighth entry in the first data line is ISTCB2 -
 #    Setting this to a negative number indicates that
 #    streamflows out of the reach will be saved to a
 #    binary file.  The absolute value of ISTCB2 is the
 #    unit to which unformatted flows will be written.
 #
 No named parameters
 Segment information will not be 
 read by reach
 No named parameters
 No specifed inflow files


 NUMBER OF STREAM REACHES IS   40

 NUMBER OF STREAM SEGMENTS IS    3

 NUMBER OF STREAM PARAMETERS IS    0

 NUMBER OF STREAM SEGMENTS DEFINED USING PARAMETERS IS              0

 MAXIMUM ERROR FOR STREAM LEAKAGE RATES IS  1.00E-04

 CONSTANT FOR MANNINGS EQUATION IS  1.2839E+05





   STREAM NETWORK DESCRIPTION: 

   LAYER    ROW    COL   SEGMENT   REACH     LENGTH
                          NUMBER   NUMBER    IN CELL        
   --------------------------------------------------
      1     13      1       1        1    2.0000E+02
      1     13      2       1        2    2.0000E+02
      1     14      3       1        3    2.0000E+02
      1     15      4       1        4    2.0000E+02
      1     16      5       1        5    2.0000E+02
      1     16      6       1        6    2.0000E+02
      1     16      7       1        7    2.0000E+02
      1     16      8       1        8    2.0000E+02
      1     16      9       1        9    2.0000E+02
      1     16     10       1       10    2.0000E+02
      1     16     11       1       11    2.0000E+02
      1     16     12       1       12    2.0000E+02
      1     15     13       1       13    2.0000E+02
      1     14     14       1       14    2.0000E+02
      1     13     15       1       15    2.0000E+02
      1     12     16       1       16    2.0000E+02
      1     12     17       1       17    2.0000E+02
      1     12     18       1       18    2.0000E+02
      1     12     19       1       19    2.0000E+02
      1     13     20       1       20    2.0000E+02
      1     14     21       1       21    2.0000E+02
      1     14     22       1       22    2.0000E+02
      1      9     30       2        1    2.0000E+02
      1      9     29       2        2    2.0000E+02
      1      9     28       2        3    2.0000E+02
      1      9     27       2        4    2.0000E+02
      1     10     26       2        5    2.0000E+02
      1     11     25       2        6    2.0000E+02
      1     12     24       2        7    2.0000E+02
      1     13     23       2        8    2.0000E+02
      1     14     22       2        9    2.0000E+02
      1     14     22       3        1    2.0000E+02
      1     15     23       3        2    2.0000E+02
      1     15     24       3        3    2.0000E+02
      1     15     25       3        4    2.0000E+02
      1     15     26       3        5    2.0000E+02
      1     16     27       3        6    2.0000E+02
      1     17     28       3        7    2.0000E+02
      1     18     29       3        8    2.0000E+02
      1     18     30       3        9    2.0000E+02




 PCG -- CONJUGATE-GRADIENT SOLUTION PACKAGE, VERSION 7, 5/2/2005
 MAXIMUM OF    500 CALLS OF SOLUTION ROUTINE
 MAXIMUM OF      5 INTERNAL ITERATIONS PER CALL TO SOLUTION ROUTINE
 MATRIX PRECONDITIONING TYPE :    1



                                    SOLUTION BY THE CONJUGATE-GRADIENT METHOD
                                   -------------------------------------------
                    MAXIMUM NUMBER OF CALLS TO PCG ROUTINE =      500
                        MAXIMUM ITERATIONS PER CALL TO PCG =        5
                               MATRIX PRECONDITIONING TYPE =        1
        RELAXATION FACTOR (ONLY USED WITH PRECOND. TYPE 1) =    0.10000E+01
 PARAMETER OF POLYNOMIAL PRECOND. = 2 (2) OR IS CALCULATED :        0
                         HEAD CHANGE CRITERION FOR CLOSURE =    0.10000E-05
                     RESIDUAL CHANGE CRITERION FOR CLOSURE =    0.10000E+01
            PCG HEAD AND RESIDUAL CHANGE PRINTOUT INTERVAL =        1
     PRINTING FROM SOLVER IS LIMITED(1) OR SUPPRESSED (>1) =        1
                            STEADY-STATE DAMPING PARAMETER =    0.10000E+01
                               TRANSIENT DAMPING PARAMETER =    0.10000E+01
1
                            STRESS PERIOD NO.    1, LENGTH =   92.00000    
                            -----------------------------------------------

                              NUMBER OF TIME STEPS =     1

                               MULTIPLIER FOR DELT =     1.500

                            INITIAL TIME STEP SIZE =   92.00000    

 WELL NO.  LAYER   ROW   COL   STRESS RATE         
 --------------------------------------------------
      1      1     17     25     -0.3467E+05
      2      1     16     17     -0.3097E+05
      3      1     14     25     -0.4434E+05

      3 WELLS

                 RECHARGE =  5.000000E-04



 CLASSIFICATION & COUNT OF STREAM SEGMENTS BASED ON SOURCE OF INFLOW:

                HEADWATER     DIVERSION     RECEIVES TRIBUTARY FLOW
                ---------     ---------     -----------------------
                     2              0               1



                    INPUT DATA FOR EACH STREAM SEGMENT
 ---------------------------------------------------------------------------------------------

 SEGMENT    SEG.     INFLOW   OVERLAND   STREAM    STREAM   ICALC  OUTFLOW  DIVERSION PRIORITY
    NO.    LENGTH     RATE     RUNOFF      ET       PPT.    METH.  TO SEG.  FROM SEG.    NO.

      1  4.400E+03 1.000E+05 0.000E+00 0.000E+00 0.000E+00    1        3        0        0
      2  1.800E+03 5.000E+04 0.000E+00 0.000E+00 0.000E+00    1        3        0        0
      3  1.800E+03 0.000E+00 0.000E+00 0.000E+00 0.000E+00    1        0        0        0


         STREAMBED PROPERTIES AND STREAM DIMENSIONS

 SEGMENT     BED HYD. COND.      BED THICKNESS     ELEV.-TOP OF BED     WIDTH OF STREAM     DEPTH OF STREAM    STREAM ROUGHNESS
    No.     UPPER     LOWER     UPPER     LOWER     UPPER     LOWER     UPPER     LOWER     UPPER     LOWER   CHANNEL      BANK

     1  5.000E+00 5.000E+00 1.000E+00 1.000E+00 4.850E+01 3.800E+01 2.000E+01 2.000E+01                     5.000E-02
     2  5.000E+00 5.000E+00 1.000E+00 1.000E+00 4.025E+01 3.800E+01 2.000E+01 2.000E+01                     5.000E-02
     3  5.000E+00 5.000E+00 1.000E+00 1.000E+00 3.800E+01 3.000E+01 2.000E+01 2.000E+01                     5.000E-02



 
 SOLVING FOR HEAD 


     9 CALLS TO PCG ROUTINE FOR TIME STEP   1 IN STRESS PERIOD    1
    36 TOTAL ITERATIONS

 OUTPUT CONTROL FOR STRESS PERIOD    1   TIME STEP    1
    SAVE BUDGET
    SAVE HEAD FOR ALL LAYERS
    PRINT HEAD FOR ALL LAYERS
 UBDSV2 SAVING "STREAMFLOW OUT  " ON UNIT  50 AT TIME STEP  1, STRESS PERIOD   1



 STREAM LISTING     PERIOD      1   STEP        1

 LAYER ROW COL. STREAM  RCH.  FLOW INTO     FLOW TO   FLOW OUT OF   OVRLND.     DIRECT     STREAM       STREAM     STREAM     STREAM   STREAMBED  STREAMBED
                SEG.NO.  NO.  STRM. RCH.    AQUIFER    STRM. RCH.    RUNOFF     PRECIP       ET          HEAD       DEPTH      WIDTH   CONDCTNC.   GRADIENT

   1   13    1     1     1    1.0000E+05 -5.7558E+03   1.0576E+05  0.000E+00  0.000E+00  0.000E+00  4.84085E+01  1.471E-01  2.000E+01  2.000E+04 -2.878E-01
   1   13    2     1     2    1.0576E+05 -8.6038E+03   1.1436E+05  0.000E+00  0.000E+00  0.000E+00  4.79373E+01  1.532E-01  2.000E+01  2.000E+04 -4.302E-01
   1   14    3     1     3    1.1436E+05 -7.8799E+03   1.2224E+05  0.000E+00  0.000E+00  0.000E+00  4.74668E+01  1.600E-01  2.000E+01  2.000E+04 -3.940E-01
   1   15    4     1     4    1.2224E+05 -7.7069E+03   1.2995E+05  0.000E+00  0.000E+00  0.000E+00  4.69958E+01  1.662E-01  2.000E+01  2.000E+04 -3.853E-01
   1   16    5     1     5    1.2995E+05 -7.4856E+03   1.3743E+05  0.000E+00  0.000E+00  0.000E+00  4.65245E+01  1.722E-01  2.000E+01  2.000E+04 -3.743E-01
   1   16    6     1     6    1.3743E+05 -5.9873E+03   1.4342E+05  0.000E+00  0.000E+00  0.000E+00  4.60523E+01  1.773E-01  2.000E+01  2.000E+04 -2.994E-01
   1   16    7     1     7    1.4342E+05 -6.1139E+03   1.4953E+05  0.000E+00  0.000E+00  0.000E+00  4.55796E+01  1.819E-01  2.000E+01  2.000E+04 -3.057E-01
   1   16    8     1     8    1.4953E+05 -6.1789E+03   1.5571E+05  0.000E+00  0.000E+00  0.000E+00  4.51069E+01  1.864E-01  2.000E+01  2.000E+04 -3.089E-01
   1   16    9     1     9    1.5571E+05 -6.1594E+03   1.6187E+05  0.000E+00  0.000E+00  0.000E+00  4.46341E+01  1.909E-01  2.000E+01  2.000E+04 -3.080E-01
   1   16   10     1    10    1.6187E+05 -6.0463E+03   1.6792E+05  0.000E+00  0.000E+00  0.000E+00  4.41612E+01  1.953E-01  2.000E+01  2.000E+04 -3.023E-01
   1   16   11     1    11    1.6792E+05 -5.8274E+03   1.7375E+05  0.000E+00  0.000E+00  0.000E+00  4.36881E+01  1.995E-01  2.000E+01  2.000E+04 -2.914E-01
   1   16   12     1    12    1.7375E+05 -6.6930E+03   1.8044E+05  0.000E+00  0.000E+00  0.000E+00  4.32152E+01  2.038E-01  2.000E+01  2.000E+04 -3.347E-01
   1   15   13     1    13    1.8044E+05 -6.3522E+03   1.8679E+05  0.000E+00  0.000E+00  0.000E+00  4.27424E+01  2.083E-01  2.000E+01  2.000E+04 -3.176E-01
   1   14   14     1    14    1.8679E+05 -6.0367E+03   1.9283E+05  0.000E+00  0.000E+00  0.000E+00  4.22693E+01  2.125E-01  2.000E+01  2.000E+04 -3.018E-01
   1   13   15     1    15    1.9283E+05 -6.4141E+03   1.9924E+05  0.000E+00  0.000E+00  0.000E+00  4.17962E+01  2.166E-01  2.000E+01  2.000E+04 -3.207E-01
   1   12   16     1    16    1.9924E+05 -8.4324E+03   2.0767E+05  0.000E+00  0.000E+00  0.000E+00  4.13238E+01  2.215E-01  2.000E+01  2.000E+04 -4.216E-01
   1   12   17     1    17    2.0767E+05 -5.2736E+03   2.1295E+05  0.000E+00  0.000E+00  0.000E+00  4.08510E+01  2.260E-01  2.000E+01  2.000E+04 -2.637E-01
   1   12   18     1    18    2.1295E+05 -5.2274E+03   2.1817E+05  0.000E+00  0.000E+00  0.000E+00  4.03771E+01  2.293E-01  2.000E+01  2.000E+04 -2.614E-01
   1   12   19     1    19    2.1817E+05 -7.3204E+03   2.2549E+05  0.000E+00  0.000E+00  0.000E+00  3.99038E+01  2.333E-01  2.000E+01  2.000E+04 -3.660E-01
   1   13   20     1    20    2.2549E+05 -4.9270E+03   2.3042E+05  0.000E+00  0.000E+00  0.000E+00  3.94303E+01  2.372E-01  2.000E+01  2.000E+04 -2.463E-01
   1   14   21     1    21    2.3042E+05 -3.3907E+03   2.3381E+05  0.000E+00  0.000E+00  0.000E+00  3.89557E+01  2.397E-01  2.000E+01  2.000E+04 -1.695E-01
   1   14   22     1    22    2.3381E+05  5.1093E+03   2.2870E+05  0.000E+00  0.000E+00  0.000E+00  3.84778E+01  2.392E-01  2.000E+01  2.000E+04  2.555E-01
   1    9   30     2     1    5.0000E+04 -5.3122E+03   5.5312E+04  0.000E+00  0.000E+00  0.000E+00  4.02445E+01  1.195E-01  2.000E+01  2.000E+04 -2.656E-01
   1    9   29     2     2    5.5312E+04 -5.5902E+03   6.0902E+04  0.000E+00  0.000E+00  0.000E+00  4.00018E+01  1.268E-01  2.000E+01  2.000E+04 -2.795E-01
   1    9   28     2     3    6.0902E+04 -5.8905E+03   6.6793E+04  0.000E+00  0.000E+00  0.000E+00  3.97592E+01  1.342E-01  2.000E+01  2.000E+04 -2.945E-01
   1    9   27     2     4    6.6793E+04 -9.3021E+03   7.6095E+04  0.000E+00  0.000E+00  0.000E+00  3.95185E+01  1.435E-01  2.000E+01  2.000E+04 -4.651E-01
   1   10   26     2     5    7.6095E+04 -6.7722E+03   8.2867E+04  0.000E+00  0.000E+00  0.000E+00  3.92780E+01  1.530E-01  2.000E+01  2.000E+04 -3.386E-01
   1   11   25     2     6    8.2867E+04 -4.0758E+03   8.6943E+04  0.000E+00  0.000E+00  0.000E+00  3.90342E+01  1.592E-01  2.000E+01  2.000E+04 -2.038E-01
   1   12   24     2     7    8.6943E+04 -1.0230E+03   8.7966E+04  0.000E+00  0.000E+00  0.000E+00  3.87870E+01  1.620E-01  2.000E+01  2.000E+04 -5.115E-02
   1   13   23     2     8    8.7966E+04 -1.7304E+02   8.8139E+04  0.000E+00  0.000E+00  0.000E+00  3.85377E+01  1.627E-01  2.000E+01  2.000E+04 -8.652E-03
   1   14   22     2     9    8.8139E+04  1.2941E+03   8.6845E+04  0.000E+00  0.000E+00  0.000E+00  3.82871E+01  1.621E-01  2.000E+01  2.000E+04  6.470E-02
   1   14   22     3     1    3.1555E+05 -8.5142E+03   3.2406E+05  0.000E+00  0.000E+00  0.000E+00  3.77967E+01  2.411E-01  2.000E+01  2.000E+04 -4.257E-01
   1   15   23     3     2    3.2406E+05 -1.6745E+03   3.2574E+05  0.000E+00  0.000E+00  0.000E+00  3.69101E+01  2.434E-01  2.000E+01  2.000E+04 -8.372E-02
   1   15   24     3     3    3.2574E+05  3.8452E+03   3.2189E+05  0.000E+00  0.000E+00  0.000E+00  3.60207E+01  2.429E-01  2.000E+01  2.000E+04  1.923E-01
   1   15   25     3     4    3.2189E+05  1.4617E+04   3.0727E+05  0.000E+00  0.000E+00  0.000E+00  3.51276E+01  2.387E-01  2.000E+01  2.000E+04  7.309E-01
   1   15   26     3     5    3.0727E+05  3.0764E+03   3.0420E+05  0.000E+00  0.000E+00  0.000E+00  3.42347E+01  2.347E-01  2.000E+01  2.000E+04  1.538E-01
   1   16   27     3     6    3.0420E+05 -1.4615E+03   3.0566E+05  0.000E+00  0.000E+00  0.000E+00  3.33454E+01  2.343E-01  2.000E+01  2.000E+04 -7.307E-02
   1   17   28     3     7    3.0566E+05 -4.7414E+03   3.1040E+05  0.000E+00  0.000E+00  0.000E+00  3.24580E+01  2.358E-01  2.000E+01  2.000E+04 -2.371E-01
   1   18   29     3     8    3.1040E+05 -7.5768E+03   3.1798E+05  0.000E+00  0.000E+00  0.000E+00  3.15719E+01  2.386E-01  2.000E+01  2.000E+04 -3.788E-01
   1   18   30     3     9    3.1798E+05 -6.9794E+03   3.2496E+05  0.000E+00  0.000E+00  0.000E+00  3.06863E+01  2.419E-01  2.000E+01  2.000E+04 -3.490E-01



1
              HEAD IN LAYER   1 AT END OF TIME STEP   1 IN STRESS PERIOD    1
  ---------------------------------------------------------------------------

          1      2      3      4      5      6      7      8      9     10
         11     12     13     14     15     16     17     18     19     20
         21     22     23     24     25     26     27     28     29     30
 .........................................................................
   1  ****** ****** ****** ****** ****** ****** ****** ****** ****** ******
      ****** ****** ****** ****** ****** ****** ****** ****** ****** ******
      ****** ****** ****** ****** ****** ****** ****** ****** ****** ******
   2  ****** ****** ****** ****** ****** ****** ****** ****** ****** ******
      ****** ****** ****** ****** ****** ****** ****** ****** ****** ******
      ****** ****** ****** ****** ****** ****** ****** ****** ****** ******
   3  ****** ****** ****** ****** ****** ****** ****** ****** ****** ******
      ****** ****** ****** ****** ****** ****** ****** ****** ****** ******
      ****** ****** ****** ****** ****** ****** ****** ****** ****** ******
   4  ****** ****** ****** ****** ****** ****** ****** ****** ****** ******
      ****** ****** ****** ****** ****** ****** ****** ****** ****** ******
      ****** ****** ****** ****** ****** ****** ****** ****** ****** ******
   5  ****** ****** ****** ****** ****** ****** ****** ****** ****** ******
      ****** ****** ****** ****** ****** ****** ****** ****** ****** ******
      ****** ****** ****** ****** ****** ****** ****** ****** ****** ******
   6  ****** ****** ****** ****** ****** ****** ****** ****** ****** ******
      ****** ****** ****** ****** ****** ****** ****** ****** ****** ******
      ****** ****** ****** ****** ****** ****** ****** ****** ****** ******
   7  ****** ****** ****** ****** ****** ****** ****** ****** ****** ******
      ****** ****** ****** ****** ****** ****** ****** ****** ****** ******
      ****** ****** ****** ****** ****** ****** ****** ****** ****** ******
   8  ****** ****** ****** ****** ****** ****** ****** ****** ****** ******
      ****** ****** ****** ****** ****** ****** ****** ****** ****** ******
      ****** ****** ****** ****** ****** ****** ****** ****** ****** ******
   9  ****** ****** ****** ****** ****** ****** ****** ****** ****** ******
      ****** ****** ****** ****** ****** ****** ****** ****** ****** ******
      ****** ****** ****** ****** ****** ****** ****** ****** ****** ******
  10  ****** ****** ****** ****** ****** ****** ****** ****** ****** ******
      ****** ****** ****** ****** ****** ****** ****** ****** ****** ******
      ****** ****** ****** ****** ****** ****** ****** ****** ****** ******
  11  ****** ****** ****** ****** ****** ****** ****** ****** ****** ******
      ****** ****** ****** ****** ****** ****** ****** ****** ****** ******
      ****** ****** ****** ****** ****** ****** ****** ****** ****** ******
  12  ****** ****** ****** ****** ****** ****** ****** ****** ****** ******
      ****** ****** ****** ****** ****** ****** ****** ****** ****** ******
      ****** ****** ****** ****** ****** ****** ****** ****** ****** ******
  13  ****** ****** ****** ****** ****** ****** ****** ****** ****** ******
      ****** ****** ****** ****** ****** ****** ****** ****** ****** ******
      ****** ****** ****** ****** ****** ****** ****** ****** ****** ******
  14  ****** ****** ****** ****** ****** ****** ****** ****** ****** ******
      ****** ****** ****** ****** ****** ****** ****** ****** ****** ******
      ****** ****** ****** ****** ****** ****** ****** ****** ****** ******
  15  ****** ****** ****** ****** ****** ****** ****** ****** ****** ******
      ****** ****** ****** ****** ****** ****** ****** ****** ****** ******
      ****** ****** ****** ****** ****** ****** ****** ****** ****** ******
  16  ****** ****** ****** ****** ****** ****** ****** ****** ****** ******
      ****** ****** ****** ****** ****** ****** ****** ****** ****** ******
      ****** ****** ****** ****** ****** ****** ****** ****** ****** ******
  17  ****** ****** ****** ****** ****** ****** ****** ****** ****** ******
      ****** ****** ****** ****** ****** ****** ****** ****** ****** ******
      ****** ****** ****** ****** ****** ****** ****** ****** ****** ******
  18  ****** ****** ****** ****** ****** ****** ****** ****** ****** ******
      ****** ****** ****** ****** ****** ****** ****** ****** ****** ******
      ****** ****** ****** ****** ****** ****** ****** ****** ****** ******
  19  ****** ****** ****** ****** ****** ****** ****** ****** ****** ******
      ****** ****** ****** ****** ****** ****** ****** ****** ****** ******
      ****** ****** ****** ****** ****** ****** ****** ****** ****** ******
  20  ****** ****** ****** ****** ****** ****** ****** ****** ****** ******
      ****** ****** ****** ****** ****** ****** ****** ****** ****** ******
      ****** ****** ****** ****** ****** ****** ****** ****** ****** ******
  21  ****** ****** ****** ****** ****** ****** ****** ****** ****** ******
      ****** ****** ****** ****** ****** ****** ****** ****** ****** ******
      ****** ****** ****** ****** ****** ****** ****** ****** ****** ******
  22  ****** ****** ****** ****** ****** ****** ****** ****** ****** ******
      ****** ****** ****** ****** ****** ****** ****** ****** ****** ******
      ****** ****** ****** ****** ****** ****** ****** ****** ****** ******
  23  ****** ****** ****** ****** ****** ****** ****** ****** ****** ******
      ****** ****** ****** ****** ****** ****** ****** ****** ****** ******
      ****** ****** ****** ****** ****** ****** ****** ****** ****** ******
  24  ****** ****** ****** ****** ****** ****** ****** ****** ****** ******
      ****** ****** ****** ****** ****** ****** ****** ****** ****** ******
      ****** ****** ****** ****** ****** ****** ****** ****** ****** ******
  25  ****** ****** ****** ****** ****** ****** ****** ****** ****** ******
      ****** ****** ****** ****** ****** ****** ****** ****** ****** ******
      ****** ****** ****** ****** ****** ****** ****** ****** ****** ******

 HEAD WILL BE SAVED ON UNIT   51 AT END OF TIME STEP    1, STRESS PERIOD    1
1
  VOLUMETRIC BUDGET FOR ENTIRE MODEL AT END OF TIME STEP    1, STRESS PERIOD   1
  ------------------------------------------------------------------------------

     CUMULATIVE VOLUMES      L**3       RATES FOR THIS TIME STEP      L**3/T
     ------------------                 ------------------------

           IN:                                      IN:
           ---                                      ---
             STORAGE =    17119366.5685               STORAGE =      186080.0714
       CONSTANT HEAD =     7825225.0324         CONSTANT HEAD =       85056.7938
               WELLS =           0.0000                 WELLS =           0.0000
            RECHARGE =     1269600.0000              RECHARGE =       13800.0000
      STREAM LEAKAGE =     2570704.8392        STREAM LEAKAGE =       27942.4439

            TOTAL IN =    28784896.4401              TOTAL IN =      312879.3091

          OUT:                                     OUT:
          ----                                     ----
             STORAGE =           0.0000               STORAGE =           0.0000
       CONSTANT HEAD =           0.0000         CONSTANT HEAD =           0.0000
               WELLS =    10118153.9936                 WELLS =      109979.9347
            RECHARGE =           0.0000              RECHARGE =           0.0000
      STREAM LEAKAGE =    18666742.6040        STREAM LEAKAGE =      202899.3761

           TOTAL OUT =    28784896.5976             TOTAL OUT =      312879.3108

            IN - OUT =          -0.1574              IN - OUT =      -1.7114E-03

 PERCENT DISCREPANCY =          -0.00     PERCENT DISCREPANCY =          -0.00






         TIME SUMMARY AT END OF TIME STEP    1 IN STRESS PERIOD    1
                    SECONDS     MINUTES      HOURS       DAYS        YEARS
                    -----------------------------------------------------------
   TIME STEP LENGTH 7.94880E+06 1.32480E+05  2208.0      92.000     0.25188    
 STRESS PERIOD TIME 7.94880E+06 1.32480E+05  2208.0      92.000     0.25188    
         TOTAL TIME 7.94880E+06 1.32480E+05  2208.0      92.000     0.25188    
1
1
                            STRESS PERIOD NO.    2, LENGTH =   91.00000    
                            -----------------------------------------------

                              NUMBER OF TIME STEPS =     1

                               MULTIPLIER FOR DELT =     1.500

                            INITIAL TIME STEP SIZE =   91.00000    

 WELL NO.  LAYER   ROW   COL   STRESS RATE         
 --------------------------------------------------
      1      1     17     25     -0.3467E+05
      2      1     16     17     -0.3097E+05
      3      1     14     25     -0.4434E+05

      3 WELLS

                 RECHARGE =  2.000000E-03

 REUSING STREAM SEGMENT DATA FROM LAST STRESS PERIOD
 
 SOLVING FOR HEAD 


     7 CALLS TO PCG ROUTINE FOR TIME STEP   1 IN STRESS PERIOD    2
    27 TOTAL ITERATIONS

 OUTPUT CONTROL FOR STRESS PERIOD    2   TIME STEP    1
    SAVE BUDGET
    SAVE HEAD FOR ALL LAYERS
    PRINT HEAD FOR ALL LAYERS
 UBDSV2 SAVING "STREAMFLOW OUT  " ON UNIT  50 AT TIME STEP  1, STRESS PERIOD   2



 STREAM LISTING     PERIOD      2   STEP        1

 LAYER ROW COL. STREAM  RCH.  FLOW INTO     FLOW TO   FLOW OUT OF   OVRLND.     DIRECT     STREAM       STREAM     STREAM     STREAM   STREAMBED  STREAMBED
                SEG.NO.  NO.  STRM. RCH.    AQUIFER    STRM. RCH.    RUNOFF     PRECIP       ET          HEAD       DEPTH      WIDTH   CONDCTNC.   GRADIENT

   1   13    1     1     1    1.0000E+05 -3.8467E+03   1.0385E+05  0.000E+00  0.000E+00  0.000E+00  4.84077E+01  1.463E-01  2.000E+01  2.000E+04 -1.923E-01
   1   13    2     1     2    1.0385E+05 -6.1979E+03   1.1004E+05  0.000E+00  0.000E+00  0.000E+00  4.79347E+01  1.506E-01  2.000E+01  2.000E+04 -3.099E-01
   1   14    3     1     3    1.1004E+05 -5.1607E+03   1.1521E+05  0.000E+00  0.000E+00  0.000E+00  4.74622E+01  1.553E-01  2.000E+01  2.000E+04 -2.580E-01
   1   15    4     1     4    1.1521E+05 -5.0026E+03   1.2021E+05  0.000E+00  0.000E+00  0.000E+00  4.69891E+01  1.595E-01  2.000E+01  2.000E+04 -2.501E-01
   1   16    5     1     5    1.2021E+05 -5.1605E+03   1.2537E+05  0.000E+00  0.000E+00  0.000E+00  4.65159E+01  1.636E-01  2.000E+01  2.000E+04 -2.580E-01
   1   16    6     1     6    1.2537E+05 -4.0842E+03   1.2945E+05  0.000E+00  0.000E+00  0.000E+00  4.60423E+01  1.673E-01  2.000E+01  2.000E+04 -2.042E-01
   1   16    7     1     7    1.2945E+05 -4.1652E+03   1.3362E+05  0.000E+00  0.000E+00  0.000E+00  4.55682E+01  1.705E-01  2.000E+01  2.000E+04 -2.083E-01
   1   16    8     1     8    1.3362E+05 -4.1937E+03   1.3781E+05  0.000E+00  0.000E+00  0.000E+00  4.50942E+01  1.737E-01  2.000E+01  2.000E+04 -2.097E-01
   1   16    9     1     9    1.3781E+05 -4.1464E+03   1.4196E+05  0.000E+00  0.000E+00  0.000E+00  4.46201E+01  1.769E-01  2.000E+01  2.000E+04 -2.073E-01
   1   16   10     1    10    1.4196E+05 -4.0103E+03   1.4597E+05  0.000E+00  0.000E+00  0.000E+00  4.41459E+01  1.800E-01  2.000E+01  2.000E+04 -2.005E-01
   1   16   11     1    11    1.4597E+05 -3.7589E+03   1.4973E+05  0.000E+00  0.000E+00  0.000E+00  4.36715E+01  1.829E-01  2.000E+01  2.000E+04 -1.879E-01
   1   16   12     1    12    1.4973E+05 -3.8671E+03   1.5359E+05  0.000E+00  0.000E+00  0.000E+00  4.31971E+01  1.857E-01  2.000E+01  2.000E+04 -1.934E-01
   1   15   13     1    13    1.5359E+05 -3.0020E+03   1.5660E+05  0.000E+00  0.000E+00  0.000E+00  4.27223E+01  1.882E-01  2.000E+01  2.000E+04 -1.501E-01
   1   14   14     1    14    1.5660E+05 -2.5140E+03   1.5911E+05  0.000E+00  0.000E+00  0.000E+00  4.22470E+01  1.902E-01  2.000E+01  2.000E+04 -1.257E-01
   1   13   15     1    15    1.5911E+05 -2.9946E+03   1.6211E+05  0.000E+00  0.000E+00  0.000E+00  4.17718E+01  1.922E-01  2.000E+01  2.000E+04 -1.497E-01
   1   12   16     1    16    1.6211E+05 -5.6283E+03   1.6773E+05  0.000E+00  0.000E+00  0.000E+00  4.12976E+01  1.953E-01  2.000E+01  2.000E+04 -2.814E-01
   1   12   17     1    17    1.6773E+05 -2.8991E+03   1.7063E+05  0.000E+00  0.000E+00  0.000E+00  4.08233E+01  1.983E-01  2.000E+01  2.000E+04 -1.450E-01
   1   12   18     1    18    1.7063E+05 -2.8647E+03   1.7350E+05  0.000E+00  0.000E+00  0.000E+00  4.03481E+01  2.003E-01  2.000E+01  2.000E+04 -1.432E-01
   1   12   19     1    19    1.7350E+05 -4.6000E+03   1.7810E+05  0.000E+00  0.000E+00  0.000E+00  3.98734E+01  2.029E-01  2.000E+01  2.000E+04 -2.300E-01
   1   13   20     1    20    1.7810E+05 -1.7899E+03   1.7989E+05  0.000E+00  0.000E+00  0.000E+00  3.93983E+01  2.051E-01  2.000E+01  2.000E+04 -8.949E-02
   1   14   21     1    21    1.7989E+05 -4.1717E+02   1.8030E+05  0.000E+00  0.000E+00  0.000E+00  3.89218E+01  2.059E-01  2.000E+01  2.000E+04 -2.086E-02
   1   14   22     1    22    1.8030E+05  5.7670E+03   1.7454E+05  0.000E+00  0.000E+00  0.000E+00  3.84427E+01  2.040E-01  2.000E+01  2.000E+04  2.883E-01
   1    9   30     2     1    5.0000E+04 -3.1176E+03   5.3118E+04  0.000E+00  0.000E+00  0.000E+00  4.02430E+01  1.180E-01  2.000E+01  2.000E+04 -1.559E-01
   1    9   29     2     2    5.3118E+04 -3.4209E+03   5.6539E+04  0.000E+00  0.000E+00  0.000E+00  3.99975E+01  1.225E-01  2.000E+01  2.000E+04 -1.710E-01
   1    9   28     2     3    5.6539E+04 -3.7768E+03   6.0315E+04  0.000E+00  0.000E+00  0.000E+00  3.97522E+01  1.272E-01  2.000E+01  2.000E+04 -1.888E-01
   1    9   27     2     4    6.0315E+04 -6.8158E+03   6.7131E+04  0.000E+00  0.000E+00  0.000E+00  3.95090E+01  1.340E-01  2.000E+01  2.000E+04 -3.408E-01
   1   10   26     2     5    6.7131E+04 -3.7317E+03   7.0863E+04  0.000E+00  0.000E+00  0.000E+00  3.92656E+01  1.406E-01  2.000E+01  2.000E+04 -1.866E-01
   1   11   25     2     6    7.0863E+04 -9.7212E+02   7.1835E+04  0.000E+00  0.000E+00  0.000E+00  3.90184E+01  1.434E-01  2.000E+01  2.000E+04 -4.861E-02
   1   12   24     2     7    7.1835E+04  1.8683E+03   6.9967E+04  0.000E+00  0.000E+00  0.000E+00  3.87679E+01  1.429E-01  2.000E+01  2.000E+04  9.341E-02
   1   13   23     2     8    6.9967E+04  2.1351E+03   6.7832E+04  0.000E+00  0.000E+00  0.000E+00  3.85154E+01  1.404E-01  2.000E+01  2.000E+04  1.068E-01
   1   14   22     2     9    6.7832E+04  2.1692E+03   6.5662E+04  0.000E+00  0.000E+00  0.000E+00  3.82628E+01  1.378E-01  2.000E+01  2.000E+04  1.085E-01
   1   14   22     3     1    2.4020E+05 -7.8744E+03   2.4807E+05  0.000E+00  0.000E+00  0.000E+00  3.77606E+01  2.051E-01  2.000E+01  2.000E+04 -3.937E-01
   1   15   23     3     2    2.4807E+05  1.2066E+03   2.4687E+05  0.000E+00  0.000E+00  0.000E+00  3.68734E+01  2.067E-01  2.000E+01  2.000E+04  6.033E-02
   1   15   24     3     3    2.4687E+05  6.2295E+03   2.4064E+05  0.000E+00  0.000E+00  0.000E+00  3.59826E+01  2.049E-01  2.000E+01  2.000E+04  3.115E-01
   1   15   25     3     4    2.4064E+05  1.7271E+04   2.2337E+05  0.000E+00  0.000E+00  0.000E+00  3.50878E+01  1.989E-01  2.000E+01  2.000E+04  8.635E-01
   1   15   26     3     5    2.2337E+05  6.3726E+03   2.1699E+05  0.000E+00  0.000E+00  0.000E+00  3.41927E+01  1.927E-01  2.000E+01  2.000E+04  3.186E-01
   1   16   27     3     6    2.1699E+05  2.3186E+03   2.1468E+05  0.000E+00  0.000E+00  0.000E+00  3.33016E+01  1.904E-01  2.000E+01  2.000E+04  1.159E-01
   1   17   28     3     7    2.1468E+05 -1.1673E+03   2.1584E+05  0.000E+00  0.000E+00  0.000E+00  3.24124E+01  1.901E-01  2.000E+01  2.000E+04 -5.837E-02
   1   18   29     3     8    2.1584E+05 -4.6987E+03   2.2054E+05  0.000E+00  0.000E+00  0.000E+00  3.15250E+01  1.917E-01  2.000E+01  2.000E+04 -2.349E-01
   1   18   30     3     9    2.2054E+05 -4.6986E+03   2.2524E+05  0.000E+00  0.000E+00  0.000E+00  3.06386E+01  1.942E-01  2.000E+01  2.000E+04 -2.349E-01



1
              HEAD IN LAYER   1 AT END OF TIME STEP   1 IN STRESS PERIOD    2
  ---------------------------------------------------------------------------

          1      2      3      4      5      6      7      8      9     10
         11     12     13     14     15     16     17     18     19     20
         21     22     23     24     25     26     27     28     29     30
 .........................................................................
   1  ****** ****** ****** ****** ****** ****** ****** ****** ****** ******
      ****** ****** ****** ****** ****** ****** ****** ****** ****** ******
      ****** ****** ****** ****** ****** ****** ****** ****** ****** ******
   2  ****** ****** ****** ****** ****** ****** ****** ****** ****** ******
      ****** ****** ****** ****** ****** ****** ****** ****** ****** ******
      ****** ****** ****** ****** ****** ****** ****** ****** ****** ******
   3  ****** ****** ****** ****** ****** ****** ****** ****** ****** ******
      ****** ****** ****** ****** ****** ****** ****** ****** ****** ******
      ****** ****** ****** ****** ****** ****** ****** ****** ****** ******
   4  ****** ****** ****** ****** ****** ****** ****** ****** ****** ******
      ****** ****** ****** ****** ****** ****** ****** ****** ****** ******
      ****** ****** ****** ****** ****** ****** ****** ****** ****** ******
   5  ****** ****** ****** ****** ****** ****** ****** ****** ****** ******
      ****** ****** ****** ****** ****** ****** ****** ****** ****** ******
      ****** ****** ****** ****** ****** ****** ****** ****** ****** ******
   6  ****** ****** ****** ****** ****** ****** ****** ****** ****** ******
      ****** ****** ****** ****** ****** ****** ****** ****** ****** ******
      ****** ****** ****** ****** ****** ****** ****** ****** ****** ******
   7  ****** ****** ****** ****** ****** ****** ****** ****** ****** ******
      ****** ****** ****** ****** ****** ****** ****** ****** ****** ******
      ****** ****** ****** ****** ****** ****** ****** ****** ****** ******
   8  ****** ****** ****** ****** ****** ****** ****** ****** ****** ******
      ****** ****** ****** ****** ****** ****** ****** ****** ****** ******
      ****** ****** ****** ****** ****** ****** ****** ****** ****** ******
   9  ****** ****** ****** ****** ****** ****** ****** ****** ****** ******
      ****** ****** ****** ****** ****** ****** ****** ****** ****** ******
      ****** ****** ****** ****** ****** ****** ****** ****** ****** ******
  10  ****** ****** ****** ****** ****** ****** ****** ****** ****** ******
      ****** ****** ****** ****** ****** ****** ****** ****** ****** ******
      ****** ****** ****** ****** ****** ****** ****** ****** ****** ******
  11  ****** ****** ****** ****** ****** ****** ****** ****** ****** ******
      ****** ****** ****** ****** ****** ****** ****** ****** ****** ******
      ****** ****** ****** ****** ****** ****** ****** ****** ****** ******
  12  ****** ****** ****** ****** ****** ****** ****** ****** ****** ******
      ****** ****** ****** ****** ****** ****** ****** ****** ****** ******
      ****** ****** ****** ****** ****** ****** ****** ****** ****** ******
  13  ****** ****** ****** ****** ****** ****** ****** ****** ****** ******
      ****** ****** ****** ****** ****** ****** ****** ****** ****** ******
      ****** ****** ****** ****** ****** ****** ****** ****** ****** ******
  14  ****** ****** ****** ****** ****** ****** ****** ****** ****** ******
      ****** ****** ****** ****** ****** ****** ****** ****** ****** ******
      ****** ****** ****** ****** ****** ****** ****** ****** ****** ******
  15  ****** ****** ****** ****** ****** ****** ****** ****** ****** ******
      ****** ****** ****** ****** ****** ****** ****** ****** ****** ******
      ****** ****** ****** ****** ****** ****** ****** ****** ****** ******
  16  ****** ****** ****** ****** ****** ****** ****** ****** ****** ******
      ****** ****** ****** ****** ****** ****** ****** ****** ****** ******
      ****** ****** ****** ****** ****** ****** ****** ****** ****** ******
  17  ****** ****** ****** ****** ****** ****** ****** ****** ****** ******
      ****** ****** ****** ****** ****** ****** ****** ****** ****** ******
      ****** ****** ****** ****** ****** ****** ****** ****** ****** ******
  18  ****** ****** ****** ****** ****** ****** ****** ****** ****** ******
      ****** ****** ****** ****** ****** ****** ****** ****** ****** ******
      ****** ****** ****** ****** ****** ****** ****** ****** ****** ******
  19  ****** ****** ****** ****** ****** ****** ****** ****** ****** ******
      ****** ****** ****** ****** ****** ****** ****** ****** ****** ******
      ****** ****** ****** ****** ****** ****** ****** ****** ****** ******
  20  ****** ****** ****** ****** ****** ****** ****** ****** ****** ******
      ****** ****** ****** ****** ****** ****** ****** ****** ****** ******
      ****** ****** ****** ****** ****** ****** ****** ****** ****** ******
  21  ****** ****** ****** ****** ****** ****** ****** ****** ****** ******
      ****** ****** ****** ****** ****** ****** ****** ****** ****** ******
      ****** ****** ****** ****** ****** ****** ****** ****** ****** ******
  22  ****** ****** ****** ****** ****** ****** ****** ****** ****** ******
      ****** ****** ****** ****** ****** ****** ****** ****** ****** ******
      ****** ****** ****** ****** ****** ****** ****** ****** ****** ******
  23  ****** ****** ****** ****** ****** ****** ****** ****** ****** ******
      ****** ****** ****** ****** ****** ****** ****** ****** ****** ******
      ****** ****** ****** ****** ****** ****** ****** ****** ****** ******
  24  ****** ****** ****** ****** ****** ****** ****** ****** ****** ******
      ****** ****** ****** ****** ****** ****** ****** ****** ****** ******
      ****** ****** ****** ****** ****** ****** ****** ****** ****** ******
  25  ****** ****** ****** ****** ****** ****** ****** ****** ****** ******
      ****** ****** ****** ****** ****** ****** ****** ****** ****** ******
      ****** ****** ****** ****** ****** ****** ****** ****** ****** ******

 HEAD WILL BE SAVED ON UNIT   51 AT END OF TIME STEP    1, STRESS PERIOD    2
1
  VOLUMETRIC BUDGET FOR ENTIRE MODEL AT END OF TIME STEP    1, STRESS PERIOD   2
  ------------------------------------------------------------------------------

     CUMULATIVE VOLUMES      L**3       RATES FOR THIS TIME STEP      L**3/T
     ------------------                 ------------------------

           IN:                                      IN:
           ---                                      ---
             STORAGE =    20014461.7123               STORAGE =       31814.2323
       CONSTANT HEAD =    16761987.5883         CONSTANT HEAD =       98206.1819
               WELLS =           0.0000                 WELLS =           0.0000
            RECHARGE =     6292800.0000              RECHARGE =       55200.0000
      STREAM LEAKAGE =     6696443.0054        STREAM LEAKAGE =       45337.7820

            TOTAL IN =    49765692.3061              TOTAL IN =      230558.1963

          OUT:                                     OUT:
          ----                                     ----
             STORAGE =           0.0000               STORAGE =           0.0000
       CONSTANT HEAD =           0.0000         CONSTANT HEAD =           0.0000
               WELLS =    20126328.0524                 WELLS =      109979.9347
            RECHARGE =           0.0000              RECHARGE =           0.0000
      STREAM LEAKAGE =    29639364.9034        STREAM LEAKAGE =      120578.2670

           TOTAL OUT =    49765692.9558             TOTAL OUT =      230558.2017

            IN - OUT =          -0.6497              IN - OUT =      -5.4097E-03

 PERCENT DISCREPANCY =          -0.00     PERCENT DISCREPANCY =          -0.00






         TIME SUMMARY AT END OF TIME STEP    1 IN STRESS PERIOD    2
                    SECONDS     MINUTES      HOURS       DAYS        YEARS
                    -----------------------------------------------------------
   TIME STEP LENGTH 7.86240E+06 1.31040E+05  2184.0      91.000     0.24914    
 STRESS PERIOD TIME 7.86240E+06 1.31040E+05  2184.0      91.000     0.24914    
         TOTAL TIME 1.58112E+07 2.63520E+05  4392.0      183.00     0.50103    
1
1
                            STRESS PERIOD NO.    3, LENGTH =   91.00000    
                            -----------------------------------------------

                              NUMBER OF TIME STEPS =     1

                               MULTIPLIER FOR DELT =     1.500

                            INITIAL TIME STEP SIZE =   91.00000    

 WELL NO.  LAYER   ROW   COL   STRESS RATE         
 --------------------------------------------------
      1      1     17     25     -0.3467E+05
      2      1     16     17     -0.3097E+05
      3      1     14     25     -0.4434E+05

      3 WELLS

                 RECHARGE =   0.00000    

 REUSING STREAM SEGMENT DATA FROM LAST STRESS PERIOD
 
 SOLVING FOR HEAD 


     7 CALLS TO PCG ROUTINE FOR TIME STEP   1 IN STRESS PERIOD    3
    27 TOTAL ITERATIONS

 OUTPUT CONTROL FOR STRESS PERIOD    3   TIME STEP    1
    SAVE BUDGET
    SAVE HEAD FOR ALL LAYERS
    PRINT HEAD FOR ALL LAYERS
 UBDSV2 SAVING "STREAMFLOW OUT  " ON UNIT  50 AT TIME STEP  1, STRESS PERIOD   3



 STREAM LISTING     PERIOD      3   STEP        1

 LAYER ROW COL. STREAM  RCH.  FLOW INTO     FLOW TO   FLOW OUT OF   OVRLND.     DIRECT     STREAM       STREAM     STREAM     STREAM   STREAMBED  STREAMBED
                SEG.NO.  NO.  STRM. RCH.    AQUIFER    STRM. RCH.    RUNOFF     PRECIP       ET          HEAD       DEPTH      WIDTH   CONDCTNC.   GRADIENT

   1   13    1     1     1    1.0000E+05 -2.9368E+03   1.0294E+05  0.000E+00  0.000E+00  0.000E+00  4.84073E+01  1.459E-01  2.000E+01  2.000E+04 -1.468E-01
   1   13    2     1     2    1.0294E+05 -4.9523E+03   1.0789E+05  0.000E+00  0.000E+00  0.000E+00  4.79334E+01  1.493E-01  2.000E+01  2.000E+04 -2.476E-01
   1   14    3     1     3    1.0789E+05 -3.9215E+03   1.1181E+05  0.000E+00  0.000E+00  0.000E+00  4.74599E+01  1.530E-01  2.000E+01  2.000E+04 -1.961E-01
   1   15    4     1     4    1.1181E+05 -3.7847E+03   1.1560E+05  0.000E+00  0.000E+00  0.000E+00  4.69858E+01  1.562E-01  2.000E+01  2.000E+04 -1.892E-01
   1   16    5     1     5    1.1560E+05 -4.0552E+03   1.1965E+05  0.000E+00  0.000E+00  0.000E+00  4.65117E+01  1.594E-01  2.000E+01  2.000E+04 -2.028E-01
   1   16    6     1     6    1.1965E+05 -3.2101E+03   1.2286E+05  0.000E+00  0.000E+00  0.000E+00  4.60374E+01  1.624E-01  2.000E+01  2.000E+04 -1.605E-01
   1   16    7     1     7    1.2286E+05 -3.2671E+03   1.2613E+05  0.000E+00  0.000E+00  0.000E+00  4.55627E+01  1.650E-01  2.000E+01  2.000E+04 -1.634E-01
   1   16    8     1     8    1.2613E+05 -3.2782E+03   1.2941E+05  0.000E+00  0.000E+00  0.000E+00  4.50880E+01  1.676E-01  2.000E+01  2.000E+04 -1.639E-01
   1   16    9     1     9    1.2941E+05 -3.2228E+03   1.3263E+05  0.000E+00  0.000E+00  0.000E+00  4.46133E+01  1.701E-01  2.000E+01  2.000E+04 -1.611E-01
   1   16   10     1    10    1.3263E+05 -3.0860E+03   1.3571E+05  0.000E+00  0.000E+00  0.000E+00  4.41385E+01  1.726E-01  2.000E+01  2.000E+04 -1.543E-01
   1   16   11     1    11    1.3571E+05 -2.8333E+03   1.3855E+05  0.000E+00  0.000E+00  0.000E+00  4.36635E+01  1.748E-01  2.000E+01  2.000E+04 -1.417E-01
   1   16   12     1    12    1.3855E+05 -2.5933E+03   1.4114E+05  0.000E+00  0.000E+00  0.000E+00  4.31883E+01  1.769E-01  2.000E+01  2.000E+04 -1.297E-01
   1   15   13     1    13    1.4114E+05 -1.5979E+03   1.4274E+05  0.000E+00  0.000E+00  0.000E+00  4.27126E+01  1.785E-01  2.000E+01  2.000E+04 -7.990E-02
   1   14   14     1    14    1.4274E+05 -1.0723E+03   1.4381E+05  0.000E+00  0.000E+00  0.000E+00  4.22363E+01  1.795E-01  2.000E+01  2.000E+04 -5.361E-02
   1   13   15     1    15    1.4381E+05 -1.5970E+03   1.4541E+05  0.000E+00  0.000E+00  0.000E+00  4.17600E+01  1.805E-01  2.000E+01  2.000E+04 -7.985E-02
   1   12   16     1    16    1.4541E+05 -4.3365E+03   1.4975E+05  0.000E+00  0.000E+00  0.000E+00  4.12850E+01  1.827E-01  2.000E+01  2.000E+04 -2.168E-01
   1   12   17     1    17    1.4975E+05 -1.9395E+03   1.5168E+05  0.000E+00  0.000E+00  0.000E+00  4.08100E+01  1.850E-01  2.000E+01  2.000E+04 -9.697E-02
   1   12   18     1    18    1.5168E+05 -1.9251E+03   1.5361E+05  0.000E+00  0.000E+00  0.000E+00  4.03342E+01  1.864E-01  2.000E+01  2.000E+04 -9.626E-02
   1   12   19     1    19    1.5361E+05 -3.4819E+03   1.5709E+05  0.000E+00  0.000E+00  0.000E+00  3.98589E+01  1.884E-01  2.000E+01  2.000E+04 -1.741E-01
   1   13   20     1    20    1.5709E+05 -6.5585E+02   1.5775E+05  0.000E+00  0.000E+00  0.000E+00  3.93831E+01  1.899E-01  2.000E+01  2.000E+04 -3.279E-02
   1   14   21     1    21    1.5775E+05  7.0713E+02   1.5704E+05  0.000E+00  0.000E+00  0.000E+00  3.89058E+01  1.899E-01  2.000E+01  2.000E+04  3.536E-02
   1   14   22     1    22    1.5704E+05  5.9489E+03   1.5109E+05  0.000E+00  0.000E+00  0.000E+00  3.84261E+01  1.875E-01  2.000E+01  2.000E+04  2.974E-01
   1    9   30     2     1    5.0000E+04 -2.3336E+03   5.2334E+04  0.000E+00  0.000E+00  0.000E+00  4.02425E+01  1.175E-01  2.000E+01  2.000E+04 -1.167E-01
   1    9   29     2     2    5.2334E+04 -2.6478E+03   5.4981E+04  0.000E+00  0.000E+00  0.000E+00  3.99959E+01  1.209E-01  2.000E+01  2.000E+04 -1.324E-01
   1    9   28     2     3    5.4981E+04 -3.0167E+03   5.7998E+04  0.000E+00  0.000E+00  0.000E+00  3.97497E+01  1.247E-01  2.000E+01  2.000E+04 -1.508E-01
   1    9   27     2     4    5.7998E+04 -5.7974E+03   6.3796E+04  0.000E+00  0.000E+00  0.000E+00  3.95054E+01  1.304E-01  2.000E+01  2.000E+04 -2.899E-01
   1   10   26     2     5    6.3796E+04 -2.6436E+03   6.6439E+04  0.000E+00  0.000E+00  0.000E+00  3.92608E+01  1.358E-01  2.000E+01  2.000E+04 -1.322E-01
   1   11   25     2     6    6.6439E+04  6.9702E+01   6.6370E+04  0.000E+00  0.000E+00  0.000E+00  3.90124E+01  1.374E-01  2.000E+01  2.000E+04  3.485E-03
   1   12   24     2     7    6.6370E+04  2.7633E+03   6.3606E+04  0.000E+00  0.000E+00  0.000E+00  3.87606E+01  1.356E-01  2.000E+01  2.000E+04  1.382E-01
   1   13   23     2     8    6.3606E+04  2.7949E+03   6.0811E+04  0.000E+00  0.000E+00  0.000E+00  3.85071E+01  1.321E-01  2.000E+01  2.000E+04  1.397E-01
   1   14   22     2     9    6.0811E+04  2.5005E+03   5.8311E+04  0.000E+00  0.000E+00  0.000E+00  3.82537E+01  1.287E-01  2.000E+01  2.000E+04  1.250E-01
   1   14   22     3     1    2.0940E+05 -7.6808E+03   2.1708E+05  0.000E+00  0.000E+00  0.000E+00  3.77446E+01  1.891E-01  2.000E+01  2.000E+04 -3.840E-01
   1   15   23     3     2    2.1708E+05  2.2628E+03   2.1482E+05  0.000E+00  0.000E+00  0.000E+00  3.68572E+01  1.905E-01  2.000E+01  2.000E+04  1.131E-01
   1   15   24     3     3    2.1482E+05  6.9334E+03   2.0789E+05  0.000E+00  0.000E+00  0.000E+00  3.59658E+01  1.881E-01  2.000E+01  2.000E+04  3.467E-01
   1   15   25     3     4    2.0789E+05  1.7962E+04   1.8993E+05  0.000E+00  0.000E+00  0.000E+00  3.50702E+01  1.813E-01  2.000E+01  2.000E+04  8.981E-01
   1   15   26     3     5    1.8993E+05  7.2749E+03   1.8265E+05  0.000E+00  0.000E+00  0.000E+00  3.41743E+01  1.743E-01  2.000E+01  2.000E+04  3.637E-01
   1   16   27     3     6    1.8265E+05  3.4828E+03   1.7917E+05  0.000E+00  0.000E+00  0.000E+00  3.32824E+01  1.713E-01  2.000E+01  2.000E+04  1.741E-01
   1   17   28     3     7    1.7917E+05  1.1286E+00   1.7917E+05  0.000E+00  0.000E+00  0.000E+00  3.23925E+01  1.703E-01  2.000E+01  2.000E+04  5.643E-05
   1   18   29     3     8    1.7917E+05 -3.6381E+03   1.8280E+05  0.000E+00  0.000E+00  0.000E+00  3.15047E+01  1.714E-01  2.000E+01  2.000E+04 -1.819E-01
   1   18   30     3     9    1.8280E+05 -3.9300E+03   1.8673E+05  0.000E+00  0.000E+00  0.000E+00  3.06179E+01  1.735E-01  2.000E+01  2.000E+04 -1.965E-01



1
              HEAD IN LAYER   1 AT END OF TIME STEP   1 IN STRESS PERIOD    3
  ---------------------------------------------------------------------------

          1      2      3      4      5      6      7      8      9     10
         11     12     13     14     15     16     17     18     19     20
         21     22     23     24     25     26     27     28     29     30
 .........................................................................
   1  ****** ****** ****** ****** ****** ****** ****** ****** ****** ******
      ****** ****** ****** ****** ****** ****** ****** ****** ****** ******
      ****** ****** ****** ****** ****** ****** ****** ****** ****** ******
   2  ****** ****** ****** ****** ****** ****** ****** ****** ****** ******
      ****** ****** ****** ****** ****** ****** ****** ****** ****** ******
      ****** ****** ****** ****** ****** ****** ****** ****** ****** ******
   3  ****** ****** ****** ****** ****** ****** ****** ****** ****** ******
      ****** ****** ****** ****** ****** ****** ****** ****** ****** ******
      ****** ****** ****** ****** ****** ****** ****** ****** ****** ******
   4  ****** ****** ****** ****** ****** ****** ****** ****** ****** ******
      ****** ****** ****** ****** ****** ****** ****** ****** ****** ******
      ****** ****** ****** ****** ****** ****** ****** ****** ****** ******
   5  ****** ****** ****** ****** ****** ****** ****** ****** ****** ******
      ****** ****** ****** ****** ****** ****** ****** ****** ****** ******
      ****** ****** ****** ****** ****** ****** ****** ****** ****** ******
   6  ****** ****** ****** ****** ****** ****** ****** ****** ****** ******
      ****** ****** ****** ****** ****** ****** ****** ****** ****** ******
      ****** ****** ****** ****** ****** ****** ****** ****** ****** ******
   7  ****** ****** ****** ****** ****** ****** ****** ****** ****** ******
      ****** ****** ****** ****** ****** ****** ****** ****** ****** ******
      ****** ****** ****** ****** ****** ****** ****** ****** ****** ******
   8  ****** ****** ****** ****** ****** ****** ****** ****** ****** ******
      ****** ****** ****** ****** ****** ****** ****** ****** ****** ******
      ****** ****** ****** ****** ****** ****** ****** ****** ****** ******
   9  ****** ****** ****** ****** ****** ****** ****** ****** ****** ******
      ****** ****** ****** ****** ****** ****** ****** ****** ****** ******
      ****** ****** ****** ****** ****** ****** ****** ****** ****** ******
  10  ****** ****** ****** ****** ****** ****** ****** ****** ****** ******
      ****** ****** ****** ****** ****** ****** ****** ****** ****** ******
      ****** ****** ****** ****** ****** ****** ****** ****** ****** ******
  11  ****** ****** ****** ****** ****** ****** ****** ****** ****** ******
      ****** ****** ****** ****** ****** ****** ****** ****** ****** ******
      ****** ****** ****** ****** ****** ****** ****** ****** ****** ******
  12  ****** ****** ****** ****** ****** ****** ****** ****** ****** ******
      ****** ****** ****** ****** ****** ****** ****** ****** ****** ******
      ****** ****** ****** ****** ****** ****** ****** ****** ****** ******
  13  ****** ****** ****** ****** ****** ****** ****** ****** ****** ******
      ****** ****** ****** ****** ****** ****** ****** ****** ****** ******
      ****** ****** ****** ****** ****** ****** ****** ****** ****** ******
  14  ****** ****** ****** ****** ****** ****** ****** ****** ****** ******
      ****** ****** ****** ****** ****** ****** ****** ****** ****** ******
      ****** ****** ****** ****** ****** ****** ****** ****** ****** ******
  15  ****** ****** ****** ****** ****** ****** ****** ****** ****** ******
      ****** ****** ****** ****** ****** ****** ****** ****** ****** ******
      ****** ****** ****** ****** ****** ****** ****** ****** ****** ******
  16  ****** ****** ****** ****** ****** ****** ****** ****** ****** ******
      ****** ****** ****** ****** ****** ****** ****** ****** ****** ******
      ****** ****** ****** ****** ****** ****** ****** ****** ****** ******
  17  ****** ****** ****** ****** ****** ****** ****** ****** ****** ******
      ****** ****** ****** ****** ****** ****** ****** ****** ****** ******
      ****** ****** ****** ****** ****** ****** ****** ****** ****** ******
  18  ****** ****** ****** ****** ****** ****** ****** ****** ****** ******
      ****** ****** ****** ****** ****** ****** ****** ****** ****** ******
      ****** ****** ****** ****** ****** ****** ****** ****** ****** ******
  19  ****** ****** ****** ****** ****** ****** ****** ****** ****** ******
      ****** ****** ****** ****** ****** ****** ****** ****** ****** ******
      ****** ****** ****** ****** ****** ****** ****** ****** ****** ******
  20  ****** ****** ****** ****** ****** ****** ****** ****** ****** ******
      ****** ****** ****** ****** ****** ****** ****** ****** ****** ******
      ****** ****** ****** ****** ****** ****** ****** ****** ****** ******
  21  ****** ****** ****** ****** ****** ****** ****** ****** ****** ******
      ****** ****** ****** ****** ****** ****** ****** ****** ****** ******
      ****** ****** ****** ****** ****** ****** ****** ****** ****** ******
  22  ****** ****** ****** ****** ****** ****** ****** ****** ****** ******
      ****** ****** ****** ****** ****** ****** ****** ****** ****** ******
      ****** ****** ****** ****** ****** ****** ****** ****** ****** ******
  23  ****** ****** ****** ****** ****** ****** ****** ****** ****** ******
      ****** ****** ****** ****** ****** ****** ****** ****** ****** ******
      ****** ****** ****** ****** ****** ****** ****** ****** ****** ******
  24  ****** ****** ****** ****** ****** ****** ****** ****** ****** ******
      ****** ****** ****** ****** ****** ****** ****** ****** ****** ******
      ****** ****** ****** ****** ****** ****** ****** ****** ****** ******
  25  ****** ****** ****** ****** ****** ****** ****** ****** ****** ******
      ****** ****** ****** ****** ****** ****** ****** ****** ****** ******
      ****** ****** ****** ****** ****** ****** ****** ****** ****** ******

 HEAD WILL BE SAVED ON UNIT   51 AT END OF TIME STEP    1, STRESS PERIOD    3
1
  VOLUMETRIC BUDGET FOR ENTIRE MODEL AT END OF TIME STEP    1, STRESS PERIOD   3
  ------------------------------------------------------------------------------

     CUMULATIVE VOLUMES      L**3       RATES FOR THIS TIME STEP      L**3/T
     ------------------                 ------------------------

           IN:                                      IN:
           ---                                      ---
             STORAGE =    22351491.3124               STORAGE =       25681.6440
       CONSTANT HEAD =    27775965.7548         CONSTANT HEAD =      121032.7271
               WELLS =           0.0000                 WELLS =           0.0000
            RECHARGE =     6292800.0000              RECHARGE =           0.0000
      STREAM LEAKAGE =    11492259.0449        STREAM LEAKAGE =       52701.2752

            TOTAL IN =    67912516.1121              TOTAL IN =      199415.6462

          OUT:                                     OUT:
          ----                                     ----
             STORAGE =           0.0000               STORAGE =           0.0000
       CONSTANT HEAD =           0.0000         CONSTANT HEAD =           0.0000
               WELLS =    30134502.1113                 WELLS =      109979.9347
            RECHARGE =           0.0000              RECHARGE =           0.0000
      STREAM LEAKAGE =    37778014.9089        STREAM LEAKAGE =       89435.7143

           TOTAL OUT =    67912517.0202             TOTAL OUT =      199415.6491

            IN - OUT =          -0.9081              IN - OUT =      -2.8389E-03

 PERCENT DISCREPANCY =          -0.00     PERCENT DISCREPANCY =          -0.00






         TIME SUMMARY AT END OF TIME STEP    1 IN STRESS PERIOD    3
                    SECONDS     MINUTES      HOURS       DAYS        YEARS
                    -----------------------------------------------------------
   TIME STEP LENGTH 7.86240E+06 1.31040E+05  2184.0      91.000     0.24914    
 STRESS PERIOD TIME 7.86240E+06 1.31040E+05  2184.0      91.000     0.24914    
         TOTAL TIME 2.36736E+07 3.94560E+05  6576.0      274.00     0.75017    
1
1
                            STRESS PERIOD NO.    4, LENGTH =   91.00000    
                            -----------------------------------------------

                              NUMBER OF TIME STEPS =     1

                               MULTIPLIER FOR DELT =     1.500

                            INITIAL TIME STEP SIZE =   91.00000    

 WELL NO.  LAYER   ROW   COL   STRESS RATE         
 --------------------------------------------------
      1      1     17     25     -0.3467E+05
      2      1     16     17     -0.3097E+05
      3      1     14     25     -0.4434E+05

      3 WELLS

                 RECHARGE =  1.000000E-03

 REUSING STREAM SEGMENT DATA FROM LAST STRESS PERIOD
 
 SOLVING FOR HEAD 


     6 CALLS TO PCG ROUTINE FOR TIME STEP   1 IN STRESS PERIOD    4
    21 TOTAL ITERATIONS

 OUTPUT CONTROL FOR STRESS PERIOD    4   TIME STEP    1
    SAVE BUDGET
    SAVE HEAD FOR ALL LAYERS
    PRINT HEAD FOR ALL LAYERS
 UBDSV2 SAVING "STREAMFLOW OUT  " ON UNIT  50 AT TIME STEP  1, STRESS PERIOD   4



 STREAM LISTING     PERIOD      4   STEP        1

 LAYER ROW COL. STREAM  RCH.  FLOW INTO     FLOW TO   FLOW OUT OF   OVRLND.     DIRECT     STREAM       STREAM     STREAM     STREAM   STREAMBED  STREAMBED
                SEG.NO.  NO.  STRM. RCH.    AQUIFER    STRM. RCH.    RUNOFF     PRECIP       ET          HEAD       DEPTH      WIDTH   CONDCTNC.   GRADIENT

   1   13    1     1     1    1.0000E+05 -2.9612E+03   1.0296E+05  0.000E+00  0.000E+00  0.000E+00  4.84073E+01  1.459E-01  2.000E+01  2.000E+04 -1.481E-01
   1   13    2     1     2    1.0296E+05 -4.9472E+03   1.0791E+05  0.000E+00  0.000E+00  0.000E+00  4.79334E+01  1.493E-01  2.000E+01  2.000E+04 -2.474E-01
   1   14    3     1     3    1.0791E+05 -3.9714E+03   1.1188E+05  0.000E+00  0.000E+00  0.000E+00  4.74599E+01  1.531E-01  2.000E+01  2.000E+04 -1.986E-01
   1   15    4     1     4    1.1188E+05 -3.8515E+03   1.1573E+05  0.000E+00  0.000E+00  0.000E+00  4.69859E+01  1.563E-01  2.000E+01  2.000E+04 -1.926E-01
   1   16    5     1     5    1.1573E+05 -4.1291E+03   1.1986E+05  0.000E+00  0.000E+00  0.000E+00  4.65119E+01  1.596E-01  2.000E+01  2.000E+04 -2.065E-01
   1   16    6     1     6    1.1986E+05 -3.2637E+03   1.2312E+05  0.000E+00  0.000E+00  0.000E+00  4.60376E+01  1.626E-01  2.000E+01  2.000E+04 -1.632E-01
   1   16    7     1     7    1.2312E+05 -3.3158E+03   1.2644E+05  0.000E+00  0.000E+00  0.000E+00  4.55629E+01  1.652E-01  2.000E+01  2.000E+04 -1.658E-01
   1   16    8     1     8    1.2644E+05 -3.3233E+03   1.2976E+05  0.000E+00  0.000E+00  0.000E+00  4.50883E+01  1.678E-01  2.000E+01  2.000E+04 -1.662E-01
   1   16    9     1     9    1.2976E+05 -3.2652E+03   1.3303E+05  0.000E+00  0.000E+00  0.000E+00  4.46136E+01  1.704E-01  2.000E+01  2.000E+04 -1.633E-01
   1   16   10     1    10    1.3303E+05 -3.1262E+03   1.3615E+05  0.000E+00  0.000E+00  0.000E+00  4.41388E+01  1.729E-01  2.000E+01  2.000E+04 -1.563E-01
   1   16   11     1    11    1.3615E+05 -2.8704E+03   1.3903E+05  0.000E+00  0.000E+00  0.000E+00  4.36638E+01  1.752E-01  2.000E+01  2.000E+04 -1.435E-01
   1   16   12     1    12    1.3903E+05 -2.6157E+03   1.4164E+05  0.000E+00  0.000E+00  0.000E+00  4.31886E+01  1.773E-01  2.000E+01  2.000E+04 -1.308E-01
   1   15   13     1    13    1.4164E+05 -1.6176E+03   1.4326E+05  0.000E+00  0.000E+00  0.000E+00  4.27130E+01  1.789E-01  2.000E+01  2.000E+04 -8.088E-02
   1   14   14     1    14    1.4326E+05 -1.0860E+03   1.4434E+05  0.000E+00  0.000E+00  0.000E+00  4.22367E+01  1.799E-01  2.000E+01  2.000E+04 -5.430E-02
   1   13   15     1    15    1.4434E+05 -1.6111E+03   1.4596E+05  0.000E+00  0.000E+00  0.000E+00  4.17604E+01  1.809E-01  2.000E+01  2.000E+04 -8.056E-02
   1   12   16     1    16    1.4596E+05 -4.3353E+03   1.5029E+05  0.000E+00  0.000E+00  0.000E+00  4.12854E+01  1.831E-01  2.000E+01  2.000E+04 -2.168E-01
   1   12   17     1    17    1.5029E+05 -1.9644E+03   1.5226E+05  0.000E+00  0.000E+00  0.000E+00  4.08104E+01  1.854E-01  2.000E+01  2.000E+04 -9.822E-02
   1   12   18     1    18    1.5226E+05 -1.9579E+03   1.5421E+05  0.000E+00  0.000E+00  0.000E+00  4.03346E+01  1.869E-01  2.000E+01  2.000E+04 -9.790E-02
   1   12   19     1    19    1.5421E+05 -3.5331E+03   1.5775E+05  0.000E+00  0.000E+00  0.000E+00  3.98593E+01  1.889E-01  2.000E+01  2.000E+04 -1.767E-01
   1   13   20     1    20    1.5775E+05 -7.2201E+02   1.5847E+05  0.000E+00  0.000E+00  0.000E+00  3.93836E+01  1.904E-01  2.000E+01  2.000E+04 -3.610E-02
   1   14   21     1    21    1.5847E+05  6.7633E+02   1.5779E+05  0.000E+00  0.000E+00  0.000E+00  3.89063E+01  1.904E-01  2.000E+01  2.000E+04  3.382E-02
   1   14   22     1    22    1.5779E+05  5.9199E+03   1.5187E+05  0.000E+00  0.000E+00  0.000E+00  3.84267E+01  1.880E-01  2.000E+01  2.000E+04  2.960E-01
   1    9   30     2     1    5.0000E+04 -2.4428E+03   5.2443E+04  0.000E+00  0.000E+00  0.000E+00  4.02426E+01  1.176E-01  2.000E+01  2.000E+04 -1.221E-01
   1    9   29     2     2    5.2443E+04 -2.7556E+03   5.5198E+04  0.000E+00  0.000E+00  0.000E+00  3.99961E+01  1.211E-01  2.000E+01  2.000E+04 -1.378E-01
   1    9   28     2     3    5.5198E+04 -3.1208E+03   5.8319E+04  0.000E+00  0.000E+00  0.000E+00  3.97500E+01  1.250E-01  2.000E+01  2.000E+04 -1.560E-01
   1    9   27     2     4    5.8319E+04 -5.9062E+03   6.4225E+04  0.000E+00  0.000E+00  0.000E+00  3.95059E+01  1.309E-01  2.000E+01  2.000E+04 -2.953E-01
   1   10   26     2     5    6.4225E+04 -2.7690E+03   6.6994E+04  0.000E+00  0.000E+00  0.000E+00  3.92614E+01  1.364E-01  2.000E+01  2.000E+04 -1.385E-01
   1   11   25     2     6    6.6994E+04 -5.6740E+01   6.7051E+04  0.000E+00  0.000E+00  0.000E+00  3.90131E+01  1.381E-01  2.000E+01  2.000E+04 -2.837E-03
   1   12   24     2     7    6.7051E+04  2.6390E+03   6.4412E+04  0.000E+00  0.000E+00  0.000E+00  3.87615E+01  1.365E-01  2.000E+01  2.000E+04  1.320E-01
   1   13   23     2     8    6.4412E+04  2.6825E+03   6.1730E+04  0.000E+00  0.000E+00  0.000E+00  3.85082E+01  1.332E-01  2.000E+01  2.000E+04  1.341E-01
   1   14   22     2     9    6.1730E+04  2.4842E+03   5.9245E+04  0.000E+00  0.000E+00  0.000E+00  3.82549E+01  1.299E-01  2.000E+01  2.000E+04  1.242E-01
   1   14   22     3     1    2.1112E+05 -7.7027E+03   2.1882E+05  0.000E+00  0.000E+00  0.000E+00  3.77455E+01  1.900E-01  2.000E+01  2.000E+04 -3.851E-01
   1   15   23     3     2    2.1882E+05  2.2348E+03   2.1659E+05  0.000E+00  0.000E+00  0.000E+00  3.68581E+01  1.914E-01  2.000E+01  2.000E+04  1.117E-01
   1   15   24     3     3    2.1659E+05  6.8750E+03   2.0971E+05  0.000E+00  0.000E+00  0.000E+00  3.59668E+01  1.890E-01  2.000E+01  2.000E+04  3.438E-01
   1   15   25     3     4    2.0971E+05  1.7886E+04   1.9182E+05  0.000E+00  0.000E+00  0.000E+00  3.50712E+01  1.824E-01  2.000E+01  2.000E+04  8.943E-01
   1   15   26     3     5    1.9182E+05  7.1623E+03   1.8466E+05  0.000E+00  0.000E+00  0.000E+00  3.41754E+01  1.754E-01  2.000E+01  2.000E+04  3.581E-01
   1   16   27     3     6    1.8466E+05  3.3726E+03   1.8129E+05  0.000E+00  0.000E+00  0.000E+00  3.32836E+01  1.725E-01  2.000E+01  2.000E+04  1.686E-01
   1   17   28     3     7    1.8129E+05 -1.0800E+02   1.8140E+05  0.000E+00  0.000E+00  0.000E+00  3.23938E+01  1.716E-01  2.000E+01  2.000E+04 -5.400E-03
   1   18   29     3     8    1.8140E+05 -3.7312E+03   1.8513E+05  0.000E+00  0.000E+00  0.000E+00  3.15060E+01  1.726E-01  2.000E+01  2.000E+04 -1.866E-01
   1   18   30     3     9    1.8513E+05 -4.0234E+03   1.8915E+05  0.000E+00  0.000E+00  0.000E+00  3.06193E+01  1.748E-01  2.000E+01  2.000E+04 -2.012E-01



1
              HEAD IN LAYER   1 AT END OF TIME STEP   1 IN STRESS PERIOD    4
  ---------------------------------------------------------------------------

          1      2      3      4      5      6      7      8      9     10
         11     12     13     14     15     16     17     18     19     20
         21     22     23     24     25     26     27     28     29     30
 .........................................................................
   1  ****** ****** ****** ****** ****** ****** ****** ****** ****** ******
      ****** ****** ****** ****** ****** ****** ****** ****** ****** ******
      ****** ****** ****** ****** ****** ****** ****** ****** ****** ******
   2  ****** ****** ****** ****** ****** ****** ****** ****** ****** ******
      ****** ****** ****** ****** ****** ****** ****** ****** ****** ******
      ****** ****** ****** ****** ****** ****** ****** ****** ****** ******
   3  ****** ****** ****** ****** ****** ****** ****** ****** ****** ******
      ****** ****** ****** ****** ****** ****** ****** ****** ****** ******
      ****** ****** ****** ****** ****** ****** ****** ****** ****** ******
   4  ****** ****** ****** ****** ****** ****** ****** ****** ****** ******
      ****** ****** ****** ****** ****** ****** ****** ****** ****** ******
      ****** ****** ****** ****** ****** ****** ****** ****** ****** ******
   5  ****** ****** ****** ****** ****** ****** ****** ****** ****** ******
      ****** ****** ****** ****** ****** ****** ****** ****** ****** ******
      ****** ****** ****** ****** ****** ****** ****** ****** ****** ******
   6  ****** ****** ****** ****** ****** ****** ****** ****** ****** ******
      ****** ****** ****** ****** ****** ****** ****** ****** ****** ******
      ****** ****** ****** ****** ****** ****** ****** ****** ****** ******
   7  ****** ****** ****** ****** ****** ****** ****** ****** ****** ******
      ****** ****** ****** ****** ****** ****** ****** ****** ****** ******
      ****** ****** ****** ****** ****** ****** ****** ****** ****** ******
   8  ****** ****** ****** ****** ****** ****** ****** ****** ****** ******
      ****** ****** ****** ****** ****** ****** ****** ****** ****** ******
      ****** ****** ****** ****** ****** ****** ****** ****** ****** ******
   9  ****** ****** ****** ****** ****** ****** ****** ****** ****** ******
      ****** ****** ****** ****** ****** ****** ****** ****** ****** ******
      ****** ****** ****** ****** ****** ****** ****** ****** ****** ******
  10  ****** ****** ****** ****** ****** ****** ****** ****** ****** ******
      ****** ****** ****** ****** ****** ****** ****** ****** ****** ******
      ****** ****** ****** ****** ****** ****** ****** ****** ****** ******
  11  ****** ****** ****** ****** ****** ****** ****** ****** ****** ******
      ****** ****** ****** ****** ****** ****** ****** ****** ****** ******
      ****** ****** ****** ****** ****** ****** ****** ****** ****** ******
  12  ****** ****** ****** ****** ****** ****** ****** ****** ****** ******
      ****** ****** ****** ****** ****** ****** ****** ****** ****** ******
      ****** ****** ****** ****** ****** ****** ****** ****** ****** ******
  13  ****** ****** ****** ****** ****** ****** ****** ****** ****** ******
      ****** ****** ****** ****** ****** ****** ****** ****** ****** ******
      ****** ****** ****** ****** ****** ****** ****** ****** ****** ******
  14  ****** ****** ****** ****** ****** ****** ****** ****** ****** ******
      ****** ****** ****** ****** ****** ****** ****** ****** ****** ******
      ****** ****** ****** ****** ****** ****** ****** ****** ****** ******
  15  ****** ****** ****** ****** ****** ****** ****** ****** ****** ******
      ****** ****** ****** ****** ****** ****** ****** ****** ****** ******
      ****** ****** ****** ****** ****** ****** ****** ****** ****** ******
  16  ****** ****** ****** ****** ****** ****** ****** ****** ****** ******
      ****** ****** ****** ****** ****** ****** ****** ****** ****** ******
      ****** ****** ****** ****** ****** ****** ****** ****** ****** ******
  17  ****** ****** ****** ****** ****** ****** ****** ****** ****** ******
      ****** ****** ****** ****** ****** ****** ****** ****** ****** ******
      ****** ****** ****** ****** ****** ****** ****** ****** ****** ******
  18  ****** ****** ****** ****** ****** ****** ****** ****** ****** ******
      ****** ****** ****** ****** ****** ****** ****** ****** ****** ******
      ****** ****** ****** ****** ****** ****** ****** ****** ****** ******
  19  ****** ****** ****** ****** ****** ****** ****** ****** ****** ******
      ****** ****** ****** ****** ****** ****** ****** ****** ****** ******
      ****** ****** ****** ****** ****** ****** ****** ****** ****** ******
  20  ****** ****** ****** ****** ****** ****** ****** ****** ****** ******
      ****** ****** ****** ****** ****** ****** ****** ****** ****** ******
      ****** ****** ****** ****** ****** ****** ****** ****** ****** ******
  21  ****** ****** ****** ****** ****** ****** ****** ****** ****** ******
      ****** ****** ****** ****** ****** ****** ****** ****** ****** ******
      ****** ****** ****** ****** ****** ****** ****** ****** ****** ******
  22  ****** ****** ****** ****** ****** ****** ****** ****** ****** ******
      ****** ****** ****** ****** ****** ****** ****** ****** ****** ******
      ****** ****** ****** ****** ****** ****** ****** ****** ****** ******
  23  ****** ****** ****** ****** ****** ****** ****** ****** ****** ******
      ****** ****** ****** ****** ****** ****** ****** ****** ****** ******
      ****** ****** ****** ****** ****** ****** ****** ****** ****** ******
  24  ****** ****** ****** ****** ****** ****** ****** ****** ****** ******
      ****** ****** ****** ****** ****** ****** ****** ****** ****** ******
      ****** ****** ****** ****** ****** ****** ****** ****** ****** ******
  25  ****** ****** ****** ****** ****** ****** ****** ****** ****** ******
      ****** ****** ****** ****** ****** ****** ****** ****** ****** ******
      ****** ****** ****** ****** ****** ****** ****** ****** ****** ******

 HEAD WILL BE SAVED ON UNIT   51 AT END OF TIME STEP    1, STRESS PERIOD    4
1
  VOLUMETRIC BUDGET FOR ENTIRE MODEL AT END OF TIME STEP    1, STRESS PERIOD   4
  ------------------------------------------------------------------------------

     CUMULATIVE VOLUMES      L**3       RATES FOR THIS TIME STEP      L**3/T
     ------------------                 ------------------------

           IN:                                      IN:
           ---                                      ---
             STORAGE =    22479224.0570               STORAGE =        1403.6565
       CONSTANT HEAD =    38733309.9538         CONSTANT HEAD =      120410.3758
               WELLS =           0.0000                 WELLS =           0.0000
            RECHARGE =     8804400.0000              RECHARGE =       27600.0000
      STREAM LEAKAGE =    16218148.3353        STREAM LEAKAGE =       51932.8493

            TOTAL IN =    86235082.3461              TOTAL IN =      201346.8817

          OUT:                                     OUT:
          ----                                     ----
             STORAGE =       25684.2687               STORAGE =         282.2447
       CONSTANT HEAD =           0.0000         CONSTANT HEAD =           0.0000
               WELLS =    40142676.1701                 WELLS =      109979.9347
            RECHARGE =           0.0000              RECHARGE =           0.0000
      STREAM LEAKAGE =    46066722.6151        STREAM LEAKAGE =       91084.7001

           TOTAL OUT =    86235083.0539             TOTAL OUT =      201346.8795

            IN - OUT =          -0.7078              IN - OUT =       2.2006E-03

 PERCENT DISCREPANCY =          -0.00     PERCENT DISCREPANCY =           0.00






         TIME SUMMARY AT END OF TIME STEP    1 IN STRESS PERIOD    4
                    SECONDS     MINUTES      HOURS       DAYS        YEARS
                    -----------------------------------------------------------
   TIME STEP LENGTH 7.86240E+06 1.31040E+05  2184.0      91.000     0.24914    
 STRESS PERIOD TIME 7.86240E+06 1.31040E+05  2184.0      91.000     0.24914    
         TOTAL TIME 3.15360E+07 5.25600E+05  8760.0      365.00     0.99932    
1
1
                            STRESS PERIOD NO.    5, LENGTH =   92.00000    
                            -----------------------------------------------

                              NUMBER OF TIME STEPS =     1

                               MULTIPLIER FOR DELT =     1.500

                            INITIAL TIME STEP SIZE =   92.00000    

 WELL NO.  LAYER   ROW   COL   STRESS RATE         
 --------------------------------------------------
      1      1     17     25     -0.3467E+05
      2      1     16     17     -0.3097E+05
      3      1     14     25     -0.4434E+05

      3 WELLS

                 RECHARGE =  5.000000E-04

 REUSING STREAM SEGMENT DATA FROM LAST STRESS PERIOD
 
 SOLVING FOR HEAD 


     6 CALLS TO PCG ROUTINE FOR TIME STEP   1 IN STRESS PERIOD    5
    23 TOTAL ITERATIONS

 OUTPUT CONTROL FOR STRESS PERIOD    5   TIME STEP    1
    SAVE BUDGET
    SAVE HEAD FOR ALL LAYERS
    PRINT HEAD FOR ALL LAYERS
 UBDSV2 SAVING "STREAMFLOW OUT  " ON UNIT  50 AT TIME STEP  1, STRESS PERIOD   5



 STREAM LISTING     PERIOD      5   STEP        1

 LAYER ROW COL. STREAM  RCH.  FLOW INTO     FLOW TO   FLOW OUT OF   OVRLND.     DIRECT     STREAM       STREAM     STREAM     STREAM   STREAMBED  STREAMBED
                SEG.NO.  NO.  STRM. RCH.    AQUIFER    STRM. RCH.    RUNOFF     PRECIP       ET          HEAD       DEPTH      WIDTH   CONDCTNC.   GRADIENT

   1   13    1     1     1    1.0000E+05 -2.7880E+03   1.0279E+05  0.000E+00  0.000E+00  0.000E+00  4.84072E+01  1.459E-01  2.000E+01  2.000E+04 -1.394E-01
   1   13    2     1     2    1.0279E+05 -4.7070E+03   1.0750E+05  0.000E+00  0.000E+00  0.000E+00  4.79332E+01  1.491E-01  2.000E+01  2.000E+04 -2.354E-01
   1   14    3     1     3    1.0750E+05 -3.7476E+03   1.1124E+05  0.000E+00  0.000E+00  0.000E+00  4.74595E+01  1.526E-01  2.000E+01  2.000E+04 -1.874E-01
   1   15    4     1     4    1.1124E+05 -3.6388E+03   1.1488E+05  0.000E+00  0.000E+00  0.000E+00  4.69853E+01  1.557E-01  2.000E+01  2.000E+04 -1.819E-01
   1   16    5     1     5    1.1488E+05 -3.9432E+03   1.1882E+05  0.000E+00  0.000E+00  0.000E+00  4.65111E+01  1.588E-01  2.000E+01  2.000E+04 -1.972E-01
   1   16    6     1     6    1.1882E+05 -3.1107E+03   1.2194E+05  0.000E+00  0.000E+00  0.000E+00  4.60367E+01  1.617E-01  2.000E+01  2.000E+04 -1.555E-01
   1   16    7     1     7    1.2194E+05 -3.1580E+03   1.2509E+05  0.000E+00  0.000E+00  0.000E+00  4.55619E+01  1.642E-01  2.000E+01  2.000E+04 -1.579E-01
   1   16    8     1     8    1.2509E+05 -3.1628E+03   1.2826E+05  0.000E+00  0.000E+00  0.000E+00  4.50872E+01  1.667E-01  2.000E+01  2.000E+04 -1.581E-01
   1   16    9     1     9    1.2826E+05 -3.1040E+03   1.3136E+05  0.000E+00  0.000E+00  0.000E+00  4.46123E+01  1.692E-01  2.000E+01  2.000E+04 -1.552E-01
   1   16   10     1    10    1.3136E+05 -2.9662E+03   1.3433E+05  0.000E+00  0.000E+00  0.000E+00  4.41374E+01  1.715E-01  2.000E+01  2.000E+04 -1.483E-01
   1   16   11     1    11    1.3433E+05 -2.7125E+03   1.3704E+05  0.000E+00  0.000E+00  0.000E+00  4.36624E+01  1.737E-01  2.000E+01  2.000E+04 -1.356E-01
   1   16   12     1    12    1.3704E+05 -2.4115E+03   1.3945E+05  0.000E+00  0.000E+00  0.000E+00  4.31870E+01  1.757E-01  2.000E+01  2.000E+04 -1.206E-01
   1   15   13     1    13    1.3945E+05 -1.3887E+03   1.4084E+05  0.000E+00  0.000E+00  0.000E+00  4.27112E+01  1.771E-01  2.000E+01  2.000E+04 -6.943E-02
   1   14   14     1    14    1.4084E+05 -8.4986E+02   1.4169E+05  0.000E+00  0.000E+00  0.000E+00  4.22348E+01  1.780E-01  2.000E+01  2.000E+04 -4.249E-02
   1   13   15     1    15    1.4169E+05 -1.3775E+03   1.4307E+05  0.000E+00  0.000E+00  0.000E+00  4.17584E+01  1.788E-01  2.000E+01  2.000E+04 -6.887E-02
   1   12   16     1    16    1.4307E+05 -4.1075E+03   1.4717E+05  0.000E+00  0.000E+00  0.000E+00  4.12831E+01  1.809E-01  2.000E+01  2.000E+04 -2.054E-01
   1   12   17     1    17    1.4717E+05 -1.8032E+03   1.4898E+05  0.000E+00  0.000E+00  0.000E+00  4.08081E+01  1.831E-01  2.000E+01  2.000E+04 -9.016E-02
   1   12   18     1    18    1.4898E+05 -1.8028E+03   1.5078E+05  0.000E+00  0.000E+00  0.000E+00  4.03321E+01  1.844E-01  2.000E+01  2.000E+04 -9.014E-02
   1   12   19     1    19    1.5078E+05 -3.3487E+03   1.5413E+05  0.000E+00  0.000E+00  0.000E+00  3.98568E+01  1.863E-01  2.000E+01  2.000E+04 -1.674E-01
   1   13   20     1    20    1.5413E+05 -5.4581E+02   1.5467E+05  0.000E+00  0.000E+00  0.000E+00  3.93809E+01  1.877E-01  2.000E+01  2.000E+04 -2.729E-02
   1   14   21     1    21    1.5467E+05  8.4358E+02   1.5383E+05  0.000E+00  0.000E+00  0.000E+00  3.89035E+01  1.876E-01  2.000E+01  2.000E+04  4.218E-02
   1   14   22     1    22    1.5383E+05  5.9469E+03   1.4788E+05  0.000E+00  0.000E+00  0.000E+00  3.84238E+01  1.851E-01  2.000E+01  2.000E+04  2.973E-01
   1    9   30     2     1    5.0000E+04 -2.3268E+03   5.2327E+04  0.000E+00  0.000E+00  0.000E+00  4.02425E+01  1.175E-01  2.000E+01  2.000E+04 -1.163E-01
   1    9   29     2     2    5.2327E+04 -2.6400E+03   5.4967E+04  0.000E+00  0.000E+00  0.000E+00  3.99959E+01  1.209E-01  2.000E+01  2.000E+04 -1.320E-01
   1    9   28     2     3    5.4967E+04 -3.0045E+03   5.7971E+04  0.000E+00  0.000E+00  0.000E+00  3.97496E+01  1.246E-01  2.000E+01  2.000E+04 -1.502E-01
   1    9   27     2     4    5.7971E+04 -5.7447E+03   6.3716E+04  0.000E+00  0.000E+00  0.000E+00  3.95053E+01  1.303E-01  2.000E+01  2.000E+04 -2.872E-01
   1   10   26     2     5    6.3716E+04 -2.6025E+03   6.6319E+04  0.000E+00  0.000E+00  0.000E+00  3.92606E+01  1.356E-01  2.000E+01  2.000E+04 -1.301E-01
   1   11   25     2     6    6.6319E+04  1.0345E+02   6.6215E+04  0.000E+00  0.000E+00  0.000E+00  3.90122E+01  1.372E-01  2.000E+01  2.000E+04  5.172E-03
   1   12   24     2     7    6.6215E+04  2.7813E+03   6.3434E+04  0.000E+00  0.000E+00  0.000E+00  3.87604E+01  1.354E-01  2.000E+01  2.000E+04  1.391E-01
   1   13   23     2     8    6.3434E+04  2.7939E+03   6.0640E+04  0.000E+00  0.000E+00  0.000E+00  3.85069E+01  1.319E-01  2.000E+01  2.000E+04  1.397E-01
   1   14   22     2     9    6.0640E+04  2.5406E+03   5.8099E+04  0.000E+00  0.000E+00  0.000E+00  3.82534E+01  1.284E-01  2.000E+01  2.000E+04  1.270E-01
   1   14   22     3     1    2.0598E+05 -7.6723E+03   2.1366E+05  0.000E+00  0.000E+00  0.000E+00  3.77428E+01  1.872E-01  2.000E+01  2.000E+04 -3.836E-01
   1   15   23     3     2    2.1366E+05  2.3907E+03   2.1126E+05  0.000E+00  0.000E+00  0.000E+00  3.68553E+01  1.887E-01  2.000E+01  2.000E+04  1.195E-01
   1   15   24     3     3    2.1126E+05  6.9811E+03   2.0428E+05  0.000E+00  0.000E+00  0.000E+00  3.59639E+01  1.861E-01  2.000E+01  2.000E+04  3.491E-01
   1   15   25     3     4    2.0428E+05  1.7988E+04   1.8630E+05  0.000E+00  0.000E+00  0.000E+00  3.50682E+01  1.794E-01  2.000E+01  2.000E+04  8.994E-01
   1   15   26     3     5    1.8630E+05  7.2859E+03   1.7901E+05  0.000E+00  0.000E+00  0.000E+00  3.41723E+01  1.723E-01  2.000E+01  2.000E+04  3.643E-01
   1   16   27     3     6    1.7901E+05  3.5330E+03   1.7548E+05  0.000E+00  0.000E+00  0.000E+00  3.32803E+01  1.692E-01  2.000E+01  2.000E+04  1.767E-01
   1   17   28     3     7    1.7548E+05  5.6174E+01   1.7542E+05  0.000E+00  0.000E+00  0.000E+00  3.23904E+01  1.682E-01  2.000E+01  2.000E+04  2.809E-03
   1   18   29     3     8    1.7542E+05 -3.5755E+03   1.7900E+05  0.000E+00  0.000E+00  0.000E+00  3.15025E+01  1.692E-01  2.000E+01  2.000E+04 -1.788E-01
   1   18   30     3     9    1.7900E+05 -3.9101E+03   1.8291E+05  0.000E+00  0.000E+00  0.000E+00  3.06158E+01  1.713E-01  2.000E+01  2.000E+04 -1.955E-01



1
              HEAD IN LAYER   1 AT END OF TIME STEP   1 IN STRESS PERIOD    5
  ---------------------------------------------------------------------------

          1      2      3      4      5      6      7      8      9     10
         11     12     13     14     15     16     17     18     19     20
         21     22     23     24     25     26     27     28     29     30
 .........................................................................
   1  ****** ****** ****** ****** ****** ****** ****** ****** ****** ******
      ****** ****** ****** ****** ****** ****** ****** ****** ****** ******
      ****** ****** ****** ****** ****** ****** ****** ****** ****** ******
   2  ****** ****** ****** ****** ****** ****** ****** ****** ****** ******
      ****** ****** ****** ****** ****** ****** ****** ****** ****** ******
      ****** ****** ****** ****** ****** ****** ****** ****** ****** ******
   3  ****** ****** ****** ****** ****** ****** ****** ****** ****** ******
      ****** ****** ****** ****** ****** ****** ****** ****** ****** ******
      ****** ****** ****** ****** ****** ****** ****** ****** ****** ******
   4  ****** ****** ****** ****** ****** ****** ****** ****** ****** ******
      ****** ****** ****** ****** ****** ****** ****** ****** ****** ******
      ****** ****** ****** ****** ****** ****** ****** ****** ****** ******
   5  ****** ****** ****** ****** ****** ****** ****** ****** ****** ******
      ****** ****** ****** ****** ****** ****** ****** ****** ****** ******
      ****** ****** ****** ****** ****** ****** ****** ****** ****** ******
   6  ****** ****** ****** ****** ****** ****** ****** ****** ****** ******
      ****** ****** ****** ****** ****** ****** ****** ****** ****** ******
      ****** ****** ****** ****** ****** ****** ****** ****** ****** ******
   7  ****** ****** ****** ****** ****** ****** ****** ****** ****** ******
      ****** ****** ****** ****** ****** ****** ****** ****** ****** ******
      ****** ****** ****** ****** ****** ****** ****** ****** ****** ******
   8  ****** ****** ****** ****** ****** ****** ****** ****** ****** ******
      ****** ****** ****** ****** ****** ****** ****** ****** ****** ******
      ****** ****** ****** ****** ****** ****** ****** ****** ****** ******
   9  ****** ****** ****** ****** ****** ****** ****** ****** ****** ******
      ****** ****** ****** ****** ****** ****** ****** ****** ****** ******
      ****** ****** ****** ****** ****** ****** ****** ****** ****** ******
  10  ****** ****** ****** ****** ****** ****** ****** ****** ****** ******
      ****** ****** ****** ****** ****** ****** ****** ****** ****** ******
      ****** ****** ****** ****** ****** ****** ****** ****** ****** ******
  11  ****** ****** ****** ****** ****** ****** ****** ****** ****** ******
      ****** ****** ****** ****** ****** ****** ****** ****** ****** ******
      ****** ****** ****** ****** ****** ****** ****** ****** ****** ******
  12  ****** ****** ****** ****** ****** ****** ****** ****** ****** ******
      ****** ****** ****** ****** ****** ****** ****** ****** ****** ******
      ****** ****** ****** ****** ****** ****** ****** ****** ****** ******
  13  ****** ****** ****** ****** ****** ****** ****** ****** ****** ******
      ****** ****** ****** ****** ****** ****** ****** ****** ****** ******
      ****** ****** ****** ****** ****** ****** ****** ****** ****** ******
  14  ****** ****** ****** ****** ****** ****** ****** ****** ****** ******
      ****** ****** ****** ****** ****** ****** ****** ****** ****** ******
      ****** ****** ****** ****** ****** ****** ****** ****** ****** ******
  15  ****** ****** ****** ****** ****** ****** ****** ****** ****** ******
      ****** ****** ****** ****** ****** ****** ****** ****** ****** ******
      ****** ****** ****** ****** ****** ****** ****** ****** ****** ******
  16  ****** ****** ****** ****** ****** ****** ****** ****** ****** ******
      ****** ****** ****** ****** ****** ****** ****** ****** ****** ******
      ****** ****** ****** ****** ****** ****** ****** ****** ****** ******
  17  ****** ****** ****** ****** ****** ****** ****** ****** ****** ******
      ****** ****** ****** ****** ****** ****** ****** ****** ****** ******
      ****** ****** ****** ****** ****** ****** ****** ****** ****** ******
  18  ****** ****** ****** ****** ****** ****** ****** ****** ****** ******
      ****** ****** ****** ****** ****** ****** ****** ****** ****** ******
      ****** ****** ****** ****** ****** ****** ****** ****** ****** ******
  19  ****** ****** ****** ****** ****** ****** ****** ****** ****** ******
      ****** ****** ****** ****** ****** ****** ****** ****** ****** ******
      ****** ****** ****** ****** ****** ****** ****** ****** ****** ******
  20  ****** ****** ****** ****** ****** ****** ****** ****** ****** ******
      ****** ****** ****** ****** ****** ****** ****** ****** ****** ******
      ****** ****** ****** ****** ****** ****** ****** ****** ****** ******
  21  ****** ****** ****** ****** ****** ****** ****** ****** ****** ******
      ****** ****** ****** ****** ****** ****** ****** ****** ****** ******
      ****** ****** ****** ****** ****** ****** ****** ****** ****** ******
  22  ****** ****** ****** ****** ****** ****** ****** ****** ****** ******
      ****** ****** ****** ****** ****** ****** ****** ****** ****** ******
      ****** ****** ****** ****** ****** ****** ****** ****** ****** ******
  23  ****** ****** ****** ****** ****** ****** ****** ****** ****** ******
      ****** ****** ****** ****** ****** ****** ****** ****** ****** ******
      ****** ****** ****** ****** ****** ****** ****** ****** ****** ******
  24  ****** ****** ****** ****** ****** ****** ****** ****** ****** ******
      ****** ****** ****** ****** ****** ****** ****** ****** ****** ******
      ****** ****** ****** ****** ****** ****** ****** ****** ****** ******
  25  ****** ****** ****** ****** ****** ****** ****** ****** ****** ******
      ****** ****** ****** ****** ****** ****** ****** ****** ****** ******
      ****** ****** ****** ****** ****** ****** ****** ****** ****** ******

 HEAD WILL BE SAVED ON UNIT   51 AT END OF TIME STEP    1, STRESS PERIOD    5
1
  VOLUMETRIC BUDGET FOR ENTIRE MODEL AT END OF TIME STEP    1, STRESS PERIOD   5
  ------------------------------------------------------------------------------

     CUMULATIVE VOLUMES      L**3       RATES FOR THIS TIME STEP      L**3/T
     ------------------                 ------------------------

           IN:                                      IN:
           ---                                      ---
             STORAGE =    22884685.7088               STORAGE =        4407.1919
       CONSTANT HEAD =    50203765.8271         CONSTANT HEAD =      124678.8682
               WELLS =           0.0000                 WELLS =           0.0000
            RECHARGE =    10074000.0000              RECHARGE =       13800.0000
      STREAM LEAKAGE =    21116670.3568        STREAM LEAKAGE =       53244.8046

            TOTAL IN =   104279121.8927              TOTAL IN =      196130.8646

          OUT:                                     OUT:
          ----                                     ----
             STORAGE =       25684.2687               STORAGE =           0.0000
       CONSTANT HEAD =           0.0000         CONSTANT HEAD =           0.0000
               WELLS =    50260830.1637                 WELLS =      109979.9347
            RECHARGE =           0.0000              RECHARGE =           0.0000
      STREAM LEAKAGE =    53992608.2480        STREAM LEAKAGE =       86150.9308

           TOTAL OUT =   104279122.6803             TOTAL OUT =      196130.8655

            IN - OUT =          -0.7876              IN - OUT =      -8.6743E-04

 PERCENT DISCREPANCY =          -0.00     PERCENT DISCREPANCY =          -0.00






         TIME SUMMARY AT END OF TIME STEP    1 IN STRESS PERIOD    5
                    SECONDS     MINUTES      HOURS       DAYS        YEARS
                    -----------------------------------------------------------
   TIME STEP LENGTH 7.94880E+06 1.32480E+05  2208.0      92.000     0.25188    
 STRESS PERIOD TIME 7.94880E+06 1.32480E+05  2208.0      92.000     0.25188    
         TOTAL TIME 3.94848E+07 6.58080E+05  10968.      457.00      1.2512    
1
1
                            STRESS PERIOD NO.    6, LENGTH =   91.00000    
                            -----------------------------------------------

                              NUMBER OF TIME STEPS =     1

                               MULTIPLIER FOR DELT =     1.500

                            INITIAL TIME STEP SIZE =   91.00000    

 WELL NO.  LAYER   ROW   COL   STRESS RATE         
 --------------------------------------------------
      1      1     17     25     -0.3467E+05
      2      1     16     17     -0.3097E+05
      3      1     14     25     -0.4434E+05

      3 WELLS

                 RECHARGE =  2.000000E-03

 REUSING STREAM SEGMENT DATA FROM LAST STRESS PERIOD
 
 SOLVING FOR HEAD 


     7 CALLS TO PCG ROUTINE FOR TIME STEP   1 IN STRESS PERIOD    6
    26 TOTAL ITERATIONS

 OUTPUT CONTROL FOR STRESS PERIOD    6   TIME STEP    1
    SAVE BUDGET
    SAVE HEAD FOR ALL LAYERS
    PRINT HEAD FOR ALL LAYERS
 UBDSV2 SAVING "STREAMFLOW OUT  " ON UNIT  50 AT TIME STEP  1, STRESS PERIOD   6



 STREAM LISTING     PERIOD      6   STEP        1

 LAYER ROW COL. STREAM  RCH.  FLOW INTO     FLOW TO   FLOW OUT OF   OVRLND.     DIRECT     STREAM       STREAM     STREAM     STREAM   STREAMBED  STREAMBED
                SEG.NO.  NO.  STRM. RCH.    AQUIFER    STRM. RCH.    RUNOFF     PRECIP       ET          HEAD       DEPTH      WIDTH   CONDCTNC.   GRADIENT

   1   13    1     1     1    1.0000E+05 -3.1877E+03   1.0319E+05  0.000E+00  0.000E+00  0.000E+00  4.84074E+01  1.460E-01  2.000E+01  2.000E+04 -1.594E-01
   1   13    2     1     2    1.0319E+05 -5.2327E+03   1.0842E+05  0.000E+00  0.000E+00  0.000E+00  4.79337E+01  1.496E-01  2.000E+01  2.000E+04 -2.616E-01
   1   14    3     1     3    1.0842E+05 -4.2872E+03   1.1271E+05  0.000E+00  0.000E+00  0.000E+00  4.74605E+01  1.536E-01  2.000E+01  2.000E+04 -2.144E-01
   1   15    4     1     4    1.1271E+05 -4.1756E+03   1.1688E+05  0.000E+00  0.000E+00  0.000E+00  4.69867E+01  1.571E-01  2.000E+01  2.000E+04 -2.088E-01
   1   16    5     1     5    1.1688E+05 -4.4417E+03   1.2132E+05  0.000E+00  0.000E+00  0.000E+00  4.65129E+01  1.606E-01  2.000E+01  2.000E+04 -2.221E-01
   1   16    6     1     6    1.2132E+05 -3.5025E+03   1.2483E+05  0.000E+00  0.000E+00  0.000E+00  4.60388E+01  1.638E-01  2.000E+01  2.000E+04 -1.751E-01
   1   16    7     1     7    1.2483E+05 -3.5553E+03   1.2838E+05  0.000E+00  0.000E+00  0.000E+00  4.55644E+01  1.666E-01  2.000E+01  2.000E+04 -1.778E-01
   1   16    8     1     8    1.2838E+05 -3.5634E+03   1.3195E+05  0.000E+00  0.000E+00  0.000E+00  4.50899E+01  1.694E-01  2.000E+01  2.000E+04 -1.782E-01
   1   16    9     1     9    1.3195E+05 -3.5042E+03   1.3545E+05  0.000E+00  0.000E+00  0.000E+00  4.46154E+01  1.722E-01  2.000E+01  2.000E+04 -1.752E-01
   1   16   10     1    10    1.3545E+05 -3.3628E+03   1.3881E+05  0.000E+00  0.000E+00  0.000E+00  4.41407E+01  1.748E-01  2.000E+01  2.000E+04 -1.681E-01
   1   16   11     1    11    1.3881E+05 -3.1038E+03   1.4192E+05  0.000E+00  0.000E+00  0.000E+00  4.36659E+01  1.773E-01  2.000E+01  2.000E+04 -1.552E-01
   1   16   12     1    12    1.4192E+05 -2.9146E+03   1.4483E+05  0.000E+00  0.000E+00  0.000E+00  4.31909E+01  1.796E-01  2.000E+01  2.000E+04 -1.457E-01
   1   15   13     1    13    1.4483E+05 -1.9343E+03   1.4677E+05  0.000E+00  0.000E+00  0.000E+00  4.27155E+01  1.814E-01  2.000E+01  2.000E+04 -9.671E-02
   1   14   14     1    14    1.4677E+05 -1.4049E+03   1.4817E+05  0.000E+00  0.000E+00  0.000E+00  4.22394E+01  1.826E-01  2.000E+01  2.000E+04 -7.025E-02
   1   13   15     1    15    1.4817E+05 -1.9233E+03   1.5009E+05  0.000E+00  0.000E+00  0.000E+00  4.17634E+01  1.839E-01  2.000E+01  2.000E+04 -9.616E-02
   1   12   16     1    16    1.5009E+05 -4.6292E+03   1.5472E+05  0.000E+00  0.000E+00  0.000E+00  4.12885E+01  1.863E-01  2.000E+01  2.000E+04 -2.315E-01
   1   12   17     1    17    1.5472E+05 -2.1932E+03   1.5692E+05  0.000E+00  0.000E+00  0.000E+00  4.08138E+01  1.888E-01  2.000E+01  2.000E+04 -1.097E-01
   1   12   18     1    18    1.5692E+05 -2.1868E+03   1.5910E+05  0.000E+00  0.000E+00  0.000E+00  4.03381E+01  1.903E-01  2.000E+01  2.000E+04 -1.093E-01
   1   12   19     1    19    1.5910E+05 -3.8178E+03   1.6292E+05  0.000E+00  0.000E+00  0.000E+00  3.98630E+01  1.925E-01  2.000E+01  2.000E+04 -1.909E-01
   1   13   20     1    20    1.6292E+05 -1.0036E+03   1.6392E+05  0.000E+00  0.000E+00  0.000E+00  3.93874E+01  1.942E-01  2.000E+01  2.000E+04 -5.018E-02
   1   14   21     1    21    1.6392E+05  4.2338E+02   1.6350E+05  0.000E+00  0.000E+00  0.000E+00  3.89103E+01  1.944E-01  2.000E+01  2.000E+04  2.117E-02
   1   14   22     1    22    1.6350E+05  5.8658E+03   1.5764E+05  0.000E+00  0.000E+00  0.000E+00  3.84308E+01  1.922E-01  2.000E+01  2.000E+04  2.933E-01
   1    9   30     2     1    5.0000E+04 -2.6839E+03   5.2684E+04  0.000E+00  0.000E+00  0.000E+00  4.02427E+01  1.177E-01  2.000E+01  2.000E+04 -1.342E-01
   1    9   29     2     2    5.2684E+04 -2.9942E+03   5.5678E+04  0.000E+00  0.000E+00  0.000E+00  3.99966E+01  1.216E-01  2.000E+01  2.000E+04 -1.497E-01
   1    9   28     2     3    5.5678E+04 -3.3565E+03   5.9035E+04  0.000E+00  0.000E+00  0.000E+00  3.97508E+01  1.258E-01  2.000E+01  2.000E+04 -1.678E-01
   1    9   27     2     4    5.9035E+04 -6.2142E+03   6.5249E+04  0.000E+00  0.000E+00  0.000E+00  3.95070E+01  1.320E-01  2.000E+01  2.000E+04 -3.107E-01
   1   10   26     2     5    6.5249E+04 -3.0884E+03   6.8337E+04  0.000E+00  0.000E+00  0.000E+00  3.92629E+01  1.379E-01  2.000E+01  2.000E+04 -1.544E-01
   1   11   25     2     6    6.8337E+04 -3.6152E+02   6.8699E+04  0.000E+00  0.000E+00  0.000E+00  3.90150E+01  1.400E-01  2.000E+01  2.000E+04 -1.808E-02
   1   12   24     2     7    6.8699E+04  2.3703E+03   6.6328E+04  0.000E+00  0.000E+00  0.000E+00  3.87637E+01  1.387E-01  2.000E+01  2.000E+04  1.185E-01
   1   13   23     2     8    6.6328E+04  2.4734E+03   6.3855E+04  0.000E+00  0.000E+00  0.000E+00  3.85107E+01  1.357E-01  2.000E+01  2.000E+04  1.237E-01
   1   14   22     2     9    6.3855E+04  2.4026E+03   6.1453E+04  0.000E+00  0.000E+00  0.000E+00  3.82577E+01  1.327E-01  2.000E+01  2.000E+04  1.201E-01
   1   14   22     3     1    2.1909E+05 -7.7556E+03   2.2684E+05  0.000E+00  0.000E+00  0.000E+00  3.77498E+01  1.942E-01  2.000E+01  2.000E+04 -3.878E-01
   1   15   23     3     2    2.2684E+05  1.9984E+03   2.2485E+05  0.000E+00  0.000E+00  0.000E+00  3.68624E+01  1.957E-01  2.000E+01  2.000E+04  9.992E-02
   1   15   24     3     3    2.2485E+05  6.6961E+03   2.1815E+05  0.000E+00  0.000E+00  0.000E+00  3.59712E+01  1.934E-01  2.000E+01  2.000E+04  3.348E-01
   1   15   25     3     4    2.1815E+05  1.7702E+04   2.0045E+05  0.000E+00  0.000E+00  0.000E+00  3.50759E+01  1.870E-01  2.000E+01  2.000E+04  8.851E-01
   1   15   26     3     5    2.0045E+05  6.9162E+03   1.9353E+05  0.000E+00  0.000E+00  0.000E+00  3.41803E+01  1.803E-01  2.000E+01  2.000E+04  3.458E-01
   1   16   27     3     6    1.9353E+05  3.0699E+03   1.9046E+05  0.000E+00  0.000E+00  0.000E+00  3.32886E+01  1.775E-01  2.000E+01  2.000E+04  1.535E-01
   1   17   28     3     7    1.9046E+05 -4.1657E+02   1.9088E+05  0.000E+00  0.000E+00  0.000E+00  3.23990E+01  1.768E-01  2.000E+01  2.000E+04 -2.083E-02
   1   18   29     3     8    1.9088E+05 -4.0188E+03   1.9490E+05  0.000E+00  0.000E+00  0.000E+00  3.15114E+01  1.780E-01  2.000E+01  2.000E+04 -2.009E-01
   1   18   30     3     9    1.9490E+05 -4.2451E+03   1.9914E+05  0.000E+00  0.000E+00  0.000E+00  3.06247E+01  1.803E-01  2.000E+01  2.000E+04 -2.123E-01



1
              HEAD IN LAYER   1 AT END OF TIME STEP   1 IN STRESS PERIOD    6
  ---------------------------------------------------------------------------

          1      2      3      4      5      6      7      8      9     10
         11     12     13     14     15     16     17     18     19     20
         21     22     23     24     25     26     27     28     29     30
 .........................................................................
   1  ****** ****** ****** ****** ****** ****** ****** ****** ****** ******
      ****** ****** ****** ****** ****** ****** ****** ****** ****** ******
      ****** ****** ****** ****** ****** ****** ****** ****** ****** ******
   2  ****** ****** ****** ****** ****** ****** ****** ****** ****** ******
      ****** ****** ****** ****** ****** ****** ****** ****** ****** ******
      ****** ****** ****** ****** ****** ****** ****** ****** ****** ******
   3  ****** ****** ****** ****** ****** ****** ****** ****** ****** ******
      ****** ****** ****** ****** ****** ****** ****** ****** ****** ******
      ****** ****** ****** ****** ****** ****** ****** ****** ****** ******
   4  ****** ****** ****** ****** ****** ****** ****** ****** ****** ******
      ****** ****** ****** ****** ****** ****** ****** ****** ****** ******
      ****** ****** ****** ****** ****** ****** ****** ****** ****** ******
   5  ****** ****** ****** ****** ****** ****** ****** ****** ****** ******
      ****** ****** ****** ****** ****** ****** ****** ****** ****** ******
      ****** ****** ****** ****** ****** ****** ****** ****** ****** ******
   6  ****** ****** ****** ****** ****** ****** ****** ****** ****** ******
      ****** ****** ****** ****** ****** ****** ****** ****** ****** ******
      ****** ****** ****** ****** ****** ****** ****** ****** ****** ******
   7  ****** ****** ****** ****** ****** ****** ****** ****** ****** ******
      ****** ****** ****** ****** ****** ****** ****** ****** ****** ******
      ****** ****** ****** ****** ****** ****** ****** ****** ****** ******
   8  ****** ****** ****** ****** ****** ****** ****** ****** ****** ******
      ****** ****** ****** ****** ****** ****** ****** ****** ****** ******
      ****** ****** ****** ****** ****** ****** ****** ****** ****** ******
   9  ****** ****** ****** ****** ****** ****** ****** ****** ****** ******
      ****** ****** ****** ****** ****** ****** ****** ****** ****** ******
      ****** ****** ****** ****** ****** ****** ****** ****** ****** ******
  10  ****** ****** ****** ****** ****** ****** ****** ****** ****** ******
      ****** ****** ****** ****** ****** ****** ****** ****** ****** ******
      ****** ****** ****** ****** ****** ****** ****** ****** ****** ******
  11  ****** ****** ****** ****** ****** ****** ****** ****** ****** ******
      ****** ****** ****** ****** ****** ****** ****** ****** ****** ******
      ****** ****** ****** ****** ****** ****** ****** ****** ****** ******
  12  ****** ****** ****** ****** ****** ****** ****** ****** ****** ******
      ****** ****** ****** ****** ****** ****** ****** ****** ****** ******
      ****** ****** ****** ****** ****** ****** ****** ****** ****** ******
  13  ****** ****** ****** ****** ****** ****** ****** ****** ****** ******
      ****** ****** ****** ****** ****** ****** ****** ****** ****** ******
      ****** ****** ****** ****** ****** ****** ****** ****** ****** ******
  14  ****** ****** ****** ****** ****** ****** ****** ****** ****** ******
      ****** ****** ****** ****** ****** ****** ****** ****** ****** ******
      ****** ****** ****** ****** ****** ****** ****** ****** ****** ******
  15  ****** ****** ****** ****** ****** ****** ****** ****** ****** ******
      ****** ****** ****** ****** ****** ****** ****** ****** ****** ******
      ****** ****** ****** ****** ****** ****** ****** ****** ****** ******
  16  ****** ****** ****** ****** ****** ****** ****** ****** ****** ******
      ****** ****** ****** ****** ****** ****** ****** ****** ****** ******
      ****** ****** ****** ****** ****** ****** ****** ****** ****** ******
  17  ****** ****** ****** ****** ****** ****** ****** ****** ****** ******
      ****** ****** ****** ****** ****** ****** ****** ****** ****** ******
      ****** ****** ****** ****** ****** ****** ****** ****** ****** ******
  18  ****** ****** ****** ****** ****** ****** ****** ****** ****** ******
      ****** ****** ****** ****** ****** ****** ****** ****** ****** ******
      ****** ****** ****** ****** ****** ****** ****** ****** ****** ******
  19  ****** ****** ****** ****** ****** ****** ****** ****** ****** ******
      ****** ****** ****** ****** ****** ****** ****** ****** ****** ******
      ****** ****** ****** ****** ****** ****** ****** ****** ****** ******
  20  ****** ****** ****** ****** ****** ****** ****** ****** ****** ******
      ****** ****** ****** ****** ****** ****** ****** ****** ****** ******
      ****** ****** ****** ****** ****** ****** ****** ****** ****** ******
  21  ****** ****** ****** ****** ****** ****** ****** ****** ****** ******
      ****** ****** ****** ****** ****** ****** ****** ****** ****** ******
      ****** ****** ****** ****** ****** ****** ****** ****** ****** ******
  22  ****** ****** ****** ****** ****** ****** ****** ****** ****** ******
      ****** ****** ****** ****** ****** ****** ****** ****** ****** ******
      ****** ****** ****** ****** ****** ****** ****** ****** ****** ******
  23  ****** ****** ****** ****** ****** ****** ****** ****** ****** ******
      ****** ****** ****** ****** ****** ****** ****** ****** ****** ******
      ****** ****** ****** ****** ****** ****** ****** ****** ****** ******
  24  ****** ****** ****** ****** ****** ****** ****** ****** ****** ******
      ****** ****** ****** ****** ****** ****** ****** ****** ****** ******
      ****** ****** ****** ****** ****** ****** ****** ****** ****** ******
  25  ****** ****** ****** ****** ****** ****** ****** ****** ****** ******
      ****** ****** ****** ****** ****** ****** ****** ****** ****** ******
      ****** ****** ****** ****** ****** ****** ****** ****** ****** ******

 HEAD WILL BE SAVED ON UNIT   51 AT END OF TIME STEP    1, STRESS PERIOD    6
1
  VOLUMETRIC BUDGET FOR ENTIRE MODEL AT END OF TIME STEP    1, STRESS PERIOD   6
  ------------------------------------------------------------------------------

     CUMULATIVE VOLUMES      L**3       RATES FOR THIS TIME STEP      L**3/T
     ------------------                 ------------------------

           IN:                                      IN:
           ---                                      ---
             STORAGE =    22884685.7088               STORAGE =           0.0000
       CONSTANT HEAD =    60580532.3941         CONSTANT HEAD =      114030.4018
               WELLS =           0.0000                 WELLS =           0.0000
            RECHARGE =    15097200.0000              RECHARGE =       55200.0000
      STREAM LEAKAGE =    25659198.4086        STREAM LEAKAGE =       49917.8907

            TOTAL IN =   124221616.5115              TOTAL IN =      219148.2925

          OUT:                                     OUT:
          ----                                     ----
             STORAGE =      945608.5520               STORAGE =       10109.0581
       CONSTANT HEAD =           0.0000         CONSTANT HEAD =           0.0000
               WELLS =    60269004.2225                 WELLS =      109979.9347
            RECHARGE =           0.0000              RECHARGE =           0.0000
      STREAM LEAKAGE =    63007004.3570        STREAM LEAKAGE =       99059.2979

           TOTAL OUT =   124221617.1315             TOTAL OUT =      219148.2907

            IN - OUT =          -0.6200              IN - OUT =       1.8424E-03

 PERCENT DISCREPANCY =          -0.00     PERCENT DISCREPANCY =           0.00






         TIME SUMMARY AT END OF TIME STEP    1 IN STRESS PERIOD    6
                    SECONDS     MINUTES      HOURS       DAYS        YEARS
                    -----------------------------------------------------------
   TIME STEP LENGTH 7.86240E+06 1.31040E+05  2184.0      91.000     0.24914    
 STRESS PERIOD TIME 7.86240E+06 1.31040E+05  2184.0      91.000     0.24914    
         TOTAL TIME 4.73472E+07 7.89120E+05  13152.      548.00      1.5003    
1
1
                            STRESS PERIOD NO.    7, LENGTH =   91.00000    
                            -----------------------------------------------

                              NUMBER OF TIME STEPS =     1

                               MULTIPLIER FOR DELT =     1.500

                            INITIAL TIME STEP SIZE =   91.00000    

 WELL NO.  LAYER   ROW   COL   STRESS RATE         
 --------------------------------------------------
      1      1     17     25     -0.3250E+05
      2      1     16     17     -0.1643E+05
      3      1     14     25       0.000    

      3 WELLS

                 RECHARGE =   0.00000    

 REUSING STREAM SEGMENT DATA FROM LAST STRESS PERIOD
 
 SOLVING FOR HEAD 


     7 CALLS TO PCG ROUTINE FOR TIME STEP   1 IN STRESS PERIOD    7
    25 TOTAL ITERATIONS

 OUTPUT CONTROL FOR STRESS PERIOD    7   TIME STEP    1
    SAVE BUDGET
    SAVE HEAD FOR ALL LAYERS
    PRINT HEAD FOR ALL LAYERS
 UBDSV2 SAVING "STREAMFLOW OUT  " ON UNIT  50 AT TIME STEP  1, STRESS PERIOD   7



 STREAM LISTING     PERIOD      7   STEP        1

 LAYER ROW COL. STREAM  RCH.  FLOW INTO     FLOW TO   FLOW OUT OF   OVRLND.     DIRECT     STREAM       STREAM     STREAM     STREAM   STREAMBED  STREAMBED
                SEG.NO.  NO.  STRM. RCH.    AQUIFER    STRM. RCH.    RUNOFF     PRECIP       ET          HEAD       DEPTH      WIDTH   CONDCTNC.   GRADIENT

   1   13    1     1     1    1.0000E+05 -2.6946E+03   1.0269E+05  0.000E+00  0.000E+00  0.000E+00  4.84072E+01  1.458E-01  2.000E+01  2.000E+04 -1.347E-01
   1   13    2     1     2    1.0269E+05 -4.5853E+03   1.0728E+05  0.000E+00  0.000E+00  0.000E+00  4.79330E+01  1.489E-01  2.000E+01  2.000E+04 -2.293E-01
   1   14    3     1     3    1.0728E+05 -3.6234E+03   1.1090E+05  0.000E+00  0.000E+00  0.000E+00  4.74592E+01  1.524E-01  2.000E+01  2.000E+04 -1.812E-01
   1   15    4     1     4    1.1090E+05 -3.5189E+03   1.1442E+05  0.000E+00  0.000E+00  0.000E+00  4.69849E+01  1.554E-01  2.000E+01  2.000E+04 -1.759E-01
   1   16    5     1     5    1.1442E+05 -3.8438E+03   1.1827E+05  0.000E+00  0.000E+00  0.000E+00  4.65107E+01  1.584E-01  2.000E+01  2.000E+04 -1.922E-01
   1   16    6     1     6    1.1827E+05 -3.0320E+03   1.2130E+05  0.000E+00  0.000E+00  0.000E+00  4.60362E+01  1.612E-01  2.000E+01  2.000E+04 -1.516E-01
   1   16    7     1     7    1.2130E+05 -3.0832E+03   1.2438E+05  0.000E+00  0.000E+00  0.000E+00  4.55614E+01  1.637E-01  2.000E+01  2.000E+04 -1.542E-01
   1   16    8     1     8    1.2438E+05 -3.0968E+03   1.2748E+05  0.000E+00  0.000E+00  0.000E+00  4.50866E+01  1.661E-01  2.000E+01  2.000E+04 -1.548E-01
   1   16    9     1     9    1.2748E+05 -3.0544E+03   1.3053E+05  0.000E+00  0.000E+00  0.000E+00  4.46117E+01  1.685E-01  2.000E+01  2.000E+04 -1.527E-01
   1   16   10     1    10    1.3053E+05 -2.9472E+03   1.3348E+05  0.000E+00  0.000E+00  0.000E+00  4.41368E+01  1.709E-01  2.000E+01  2.000E+04 -1.474E-01
   1   16   11     1    11    1.3348E+05 -2.7592E+03   1.3624E+05  0.000E+00  0.000E+00  0.000E+00  4.36617E+01  1.731E-01  2.000E+01  2.000E+04 -1.380E-01
   1   16   12     1    12    1.3624E+05 -2.8685E+03   1.3911E+05  0.000E+00  0.000E+00  0.000E+00  4.31866E+01  1.752E-01  2.000E+01  2.000E+04 -1.434E-01
   1   15   13     1    13    1.3911E+05 -2.1263E+03   1.4123E+05  0.000E+00  0.000E+00  0.000E+00  4.27112E+01  1.771E-01  2.000E+01  2.000E+04 -1.063E-01
   1   14   14     1    14    1.4123E+05 -1.8394E+03   1.4307E+05  0.000E+00  0.000E+00  0.000E+00  4.22355E+01  1.786E-01  2.000E+01  2.000E+04 -9.197E-02
   1   13   15     1    15    1.4307E+05 -2.2970E+03   1.4537E+05  0.000E+00  0.000E+00  0.000E+00  4.17597E+01  1.802E-01  2.000E+01  2.000E+04 -1.148E-01
   1   12   16     1    16    1.4537E+05 -4.4642E+03   1.4983E+05  0.000E+00  0.000E+00  0.000E+00  4.12850E+01  1.827E-01  2.000E+01  2.000E+04 -2.232E-01
   1   12   17     1    17    1.4983E+05 -2.3559E+03   1.5219E+05  0.000E+00  0.000E+00  0.000E+00  4.08102E+01  1.852E-01  2.000E+01  2.000E+04 -1.178E-01
   1   12   18     1    18    1.5219E+05 -2.2934E+03   1.5448E+05  0.000E+00  0.000E+00  0.000E+00  4.03347E+01  1.869E-01  2.000E+01  2.000E+04 -1.147E-01
   1   12   19     1    19    1.5448E+05 -3.6328E+03   1.5812E+05  0.000E+00  0.000E+00  0.000E+00  3.98596E+01  1.891E-01  2.000E+01  2.000E+04 -1.816E-01
   1   13   20     1    20    1.5812E+05 -1.2445E+03   1.5936E+05  0.000E+00  0.000E+00  0.000E+00  3.93841E+01  1.909E-01  2.000E+01  2.000E+04 -6.222E-02
   1   14   21     1    21    1.5936E+05  6.1434E+01   1.5930E+05  0.000E+00  0.000E+00  0.000E+00  3.89072E+01  1.913E-01  2.000E+01  2.000E+04  3.072E-03
   1   14   22     1    22    1.5930E+05  5.3835E+03   1.5392E+05  0.000E+00  0.000E+00  0.000E+00  3.84280E+01  1.893E-01  2.000E+01  2.000E+04  2.692E-01
   1    9   30     2     1    5.0000E+04 -2.4936E+03   5.2494E+04  0.000E+00  0.000E+00  0.000E+00  4.02426E+01  1.176E-01  2.000E+01  2.000E+04 -1.247E-01
   1    9   29     2     2    5.2494E+04 -2.8286E+03   5.5322E+04  0.000E+00  0.000E+00  0.000E+00  3.99962E+01  1.212E-01  2.000E+01  2.000E+04 -1.414E-01
   1    9   28     2     3    5.5322E+04 -3.2186E+03   5.8541E+04  0.000E+00  0.000E+00  0.000E+00  3.97503E+01  1.253E-01  2.000E+01  2.000E+04 -1.609E-01
   1    9   27     2     4    5.8541E+04 -5.9195E+03   6.4460E+04  0.000E+00  0.000E+00  0.000E+00  3.95062E+01  1.312E-01  2.000E+01  2.000E+04 -2.960E-01
   1   10   26     2     5    6.4460E+04 -3.4208E+03   6.7881E+04  0.000E+00  0.000E+00  0.000E+00  3.92621E+01  1.371E-01  2.000E+01  2.000E+04 -1.710E-01
   1   11   25     2     6    6.7881E+04 -2.2789E+03   7.0160E+04  0.000E+00  0.000E+00  0.000E+00  3.90156E+01  1.406E-01  2.000E+01  2.000E+04 -1.139E-01
   1   12   24     2     7    7.0160E+04 -1.3912E+03   7.1551E+04  0.000E+00  0.000E+00  0.000E+00  3.87678E+01  1.428E-01  2.000E+01  2.000E+04 -6.956E-02
   1   13   23     2     8    7.1551E+04 -6.8464E+02   7.2236E+04  0.000E+00  0.000E+00  0.000E+00  3.85191E+01  1.441E-01  2.000E+01  2.000E+04 -3.423E-02
   1   14   22     2     9    7.2236E+04  2.1876E+03   7.0048E+04  0.000E+00  0.000E+00  0.000E+00  3.82682E+01  1.432E-01  2.000E+01  2.000E+04  1.094E-01
   1   14   22     3     1    2.2396E+05 -8.1280E+03   2.3209E+05  0.000E+00  0.000E+00  0.000E+00  3.77524E+01  1.968E-01  2.000E+01  2.000E+04 -4.064E-01
   1   15   23     3     2    2.3209E+05  7.3868E+02   2.3135E+05  0.000E+00  0.000E+00  0.000E+00  3.68654E+01  1.987E-01  2.000E+01  2.000E+04  3.693E-02
   1   15   24     3     3    2.3135E+05  2.0790E+03   2.2927E+05  0.000E+00  0.000E+00  0.000E+00  3.59758E+01  1.980E-01  2.000E+01  2.000E+04  1.040E-01
   1   15   25     3     4    2.2927E+05  3.7708E+03   2.2550E+05  0.000E+00  0.000E+00  0.000E+00  3.50854E+01  1.965E-01  2.000E+01  2.000E+04  1.885E-01
   1   15   26     3     5    2.2550E+05  1.2728E+03   2.2423E+05  0.000E+00  0.000E+00  0.000E+00  3.41952E+01  1.952E-01  2.000E+01  2.000E+04  6.364E-02
   1   16   27     3     6    2.2423E+05  2.1933E+03   2.2204E+05  0.000E+00  0.000E+00  0.000E+00  3.33054E+01  1.943E-01  2.000E+01  2.000E+04  1.097E-01
   1   17   28     3     7    2.2204E+05 -4.5735E+02   2.2249E+05  0.000E+00  0.000E+00  0.000E+00  3.24161E+01  1.938E-01  2.000E+01  2.000E+04 -2.287E-02
   1   18   29     3     8    2.2249E+05 -3.7190E+03   2.2621E+05  0.000E+00  0.000E+00  0.000E+00  3.15283E+01  1.949E-01  2.000E+01  2.000E+04 -1.859E-01
   1   18   30     3     9    2.2621E+05 -4.0165E+03   2.3023E+05  0.000E+00  0.000E+00  0.000E+00  3.06414E+01  1.969E-01  2.000E+01  2.000E+04 -2.008E-01



1
              HEAD IN LAYER   1 AT END OF TIME STEP   1 IN STRESS PERIOD    7
  ---------------------------------------------------------------------------

          1      2      3      4      5      6      7      8      9     10
         11     12     13     14     15     16     17     18     19     20
         21     22     23     24     25     26     27     28     29     30
 .........................................................................
   1  ****** ****** ****** ****** ****** ****** ****** ****** ****** ******
      ****** ****** ****** ****** ****** ****** ****** ****** ****** ******
      ****** ****** ****** ****** ****** ****** ****** ****** ****** ******
   2  ****** ****** ****** ****** ****** ****** ****** ****** ****** ******
      ****** ****** ****** ****** ****** ****** ****** ****** ****** ******
      ****** ****** ****** ****** ****** ****** ****** ****** ****** ******
   3  ****** ****** ****** ****** ****** ****** ****** ****** ****** ******
      ****** ****** ****** ****** ****** ****** ****** ****** ****** ******
      ****** ****** ****** ****** ****** ****** ****** ****** ****** ******
   4  ****** ****** ****** ****** ****** ****** ****** ****** ****** ******
      ****** ****** ****** ****** ****** ****** ****** ****** ****** ******
      ****** ****** ****** ****** ****** ****** ****** ****** ****** ******
   5  ****** ****** ****** ****** ****** ****** ****** ****** ****** ******
      ****** ****** ****** ****** ****** ****** ****** ****** ****** ******
      ****** ****** ****** ****** ****** ****** ****** ****** ****** ******
   6  ****** ****** ****** ****** ****** ****** ****** ****** ****** ******
      ****** ****** ****** ****** ****** ****** ****** ****** ****** ******
      ****** ****** ****** ****** ****** ****** ****** ****** ****** ******
   7  ****** ****** ****** ****** ****** ****** ****** ****** ****** ******
      ****** ****** ****** ****** ****** ****** ****** ****** ****** ******
      ****** ****** ****** ****** ****** ****** ****** ****** ****** ******
   8  ****** ****** ****** ****** ****** ****** ****** ****** ****** ******
      ****** ****** ****** ****** ****** ****** ****** ****** ****** ******
      ****** ****** ****** ****** ****** ****** ****** ****** ****** ******
   9  ****** ****** ****** ****** ****** ****** ****** ****** ****** ******
      ****** ****** ****** ****** ****** ****** ****** ****** ****** ******
      ****** ****** ****** ****** ****** ****** ****** ****** ****** ******
  10  ****** ****** ****** ****** ****** ****** ****** ****** ****** ******
      ****** ****** ****** ****** ****** ****** ****** ****** ****** ******
      ****** ****** ****** ****** ****** ****** ****** ****** ****** ******
  11  ****** ****** ****** ****** ****** ****** ****** ****** ****** ******
      ****** ****** ****** ****** ****** ****** ****** ****** ****** ******
      ****** ****** ****** ****** ****** ****** ****** ****** ****** ******
  12  ****** ****** ****** ****** ****** ****** ****** ****** ****** ******
      ****** ****** ****** ****** ****** ****** ****** ****** ****** ******
      ****** ****** ****** ****** ****** ****** ****** ****** ****** ******
  13  ****** ****** ****** ****** ****** ****** ****** ****** ****** ******
      ****** ****** ****** ****** ****** ****** ****** ****** ****** ******
      ****** ****** ****** ****** ****** ****** ****** ****** ****** ******
  14  ****** ****** ****** ****** ****** ****** ****** ****** ****** ******
      ****** ****** ****** ****** ****** ****** ****** ****** ****** ******
      ****** ****** ****** ****** ****** ****** ****** ****** ****** ******
  15  ****** ****** ****** ****** ****** ****** ****** ****** ****** ******
      ****** ****** ****** ****** ****** ****** ****** ****** ****** ******
      ****** ****** ****** ****** ****** ****** ****** ****** ****** ******
  16  ****** ****** ****** ****** ****** ****** ****** ****** ****** ******
      ****** ****** ****** ****** ****** ****** ****** ****** ****** ******
      ****** ****** ****** ****** ****** ****** ****** ****** ****** ******
  17  ****** ****** ****** ****** ****** ****** ****** ****** ****** ******
      ****** ****** ****** ****** ****** ****** ****** ****** ****** ******
      ****** ****** ****** ****** ****** ****** ****** ****** ****** ******
  18  ****** ****** ****** ****** ****** ****** ****** ****** ****** ******
      ****** ****** ****** ****** ****** ****** ****** ****** ****** ******
      ****** ****** ****** ****** ****** ****** ****** ****** ****** ******
  19  ****** ****** ****** ****** ****** ****** ****** ****** ****** ******
      ****** ****** ****** ****** ****** ****** ****** ****** ****** ******
      ****** ****** ****** ****** ****** ****** ****** ****** ****** ******
  20  ****** ****** ****** ****** ****** ****** ****** ****** ****** ******
      ****** ****** ****** ****** ****** ****** ****** ****** ****** ******
      ****** ****** ****** ****** ****** ****** ****** ****** ****** ******
  21  ****** ****** ****** ****** ****** ****** ****** ****** ****** ******
      ****** ****** ****** ****** ****** ****** ****** ****** ****** ******
      ****** ****** ****** ****** ****** ****** ****** ****** ****** ******
  22  ****** ****** ****** ****** ****** ****** ****** ****** ****** ******
      ****** ****** ****** ****** ****** ****** ****** ****** ****** ******
      ****** ****** ****** ****** ****** ****** ****** ****** ****** ******
  23  ****** ****** ****** ****** ****** ****** ****** ****** ****** ******
      ****** ****** ****** ****** ****** ****** ****** ****** ****** ******
      ****** ****** ****** ****** ****** ****** ****** ****** ****** ******
  24  ****** ****** ****** ****** ****** ****** ****** ****** ****** ******
      ****** ****** ****** ****** ****** ****** ****** ****** ****** ******
      ****** ****** ****** ****** ****** ****** ****** ****** ****** ******
  25  ****** ****** ****** ****** ****** ****** ****** ****** ****** ******
      ****** ****** ****** ****** ****** ****** ****** ****** ****** ******
      ****** ****** ****** ****** ****** ****** ****** ****** ****** ******

 HEAD WILL BE SAVED ON UNIT   51 AT END OF TIME STEP    1, STRESS PERIOD    7
1
  VOLUMETRIC BUDGET FOR ENTIRE MODEL AT END OF TIME STEP    1, STRESS PERIOD   7
  ------------------------------------------------------------------------------

     CUMULATIVE VOLUMES      L**3       RATES FOR THIS TIME STEP      L**3/T
     ------------------                 ------------------------

           IN:                                      IN:
           ---                                      ---
             STORAGE =    23709786.1931               STORAGE =        9067.0383
       CONSTANT HEAD =    71982937.5280         CONSTANT HEAD =      125301.1553
               WELLS =           0.0000                 WELLS =           0.0000
            RECHARGE =    15097200.0000              RECHARGE =           0.0000
      STREAM LEAKAGE =    27268729.2457        STREAM LEAKAGE =       17687.1521

            TOTAL IN =   138058652.9668              TOTAL IN =      152055.3457

          OUT:                                     OUT:
          ----                                     ----
             STORAGE =     1419816.0028               STORAGE =        5211.0709
       CONSTANT HEAD =           0.0000         CONSTANT HEAD =           0.0000
               WELLS =    64721332.7201                 WELLS =       48926.6868
            RECHARGE =           0.0000              RECHARGE =           0.0000
      STREAM LEAKAGE =    71917505.0292        STREAM LEAKAGE =       97917.5898

           TOTAL OUT =   138058653.7521             TOTAL OUT =      152055.3475

            IN - OUT =          -0.7854              IN - OUT =      -1.8175E-03

 PERCENT DISCREPANCY =          -0.00     PERCENT DISCREPANCY =          -0.00






         TIME SUMMARY AT END OF TIME STEP    1 IN STRESS PERIOD    7
                    SECONDS     MINUTES      HOURS       DAYS        YEARS
                    -----------------------------------------------------------
   TIME STEP LENGTH 7.86240E+06 1.31040E+05  2184.0      91.000     0.24914    
 STRESS PERIOD TIME 7.86240E+06 1.31040E+05  2184.0      91.000     0.24914    
         TOTAL TIME 5.52096E+07 9.20160E+05  15336.      639.00      1.7495    
1
1
                            STRESS PERIOD NO.    8, LENGTH =   91.00000    
                            -----------------------------------------------

                              NUMBER OF TIME STEPS =     1

                               MULTIPLIER FOR DELT =     1.500

                            INITIAL TIME STEP SIZE =   91.00000    

 WELL NO.  LAYER   ROW   COL   STRESS RATE         
 --------------------------------------------------
      1      1     17     25     -0.3250E+05
      2      1     16     17     -0.1643E+05
      3      1     14     25       0.000    

      3 WELLS

                 RECHARGE =  1.000000E-03

 REUSING STREAM SEGMENT DATA FROM LAST STRESS PERIOD
 
 SOLVING FOR HEAD 


     6 CALLS TO PCG ROUTINE FOR TIME STEP   1 IN STRESS PERIOD    8
    23 TOTAL ITERATIONS

 OUTPUT CONTROL FOR STRESS PERIOD    8   TIME STEP    1
    SAVE BUDGET
    SAVE HEAD FOR ALL LAYERS
    PRINT HEAD FOR ALL LAYERS
 UBDSV2 SAVING "STREAMFLOW OUT  " ON UNIT  50 AT TIME STEP  1, STRESS PERIOD   8



 STREAM LISTING     PERIOD      8   STEP        1

 LAYER ROW COL. STREAM  RCH.  FLOW INTO     FLOW TO   FLOW OUT OF   OVRLND.     DIRECT     STREAM       STREAM     STREAM     STREAM   STREAMBED  STREAMBED
                SEG.NO.  NO.  STRM. RCH.    AQUIFER    STRM. RCH.    RUNOFF     PRECIP       ET          HEAD       DEPTH      WIDTH   CONDCTNC.   GRADIENT

   1   13    1     1     1    1.0000E+05 -2.8652E+03   1.0287E+05  0.000E+00  0.000E+00  0.000E+00  4.84073E+01  1.459E-01  2.000E+01  2.000E+04 -1.433E-01
   1   13    2     1     2    1.0287E+05 -4.7980E+03   1.0766E+05  0.000E+00  0.000E+00  0.000E+00  4.79333E+01  1.492E-01  2.000E+01  2.000E+04 -2.399E-01
   1   14    3     1     3    1.0766E+05 -3.8603E+03   1.1152E+05  0.000E+00  0.000E+00  0.000E+00  4.74596E+01  1.528E-01  2.000E+01  2.000E+04 -1.930E-01
   1   15    4     1     4    1.1152E+05 -3.7604E+03   1.1528E+05  0.000E+00  0.000E+00  0.000E+00  4.69855E+01  1.560E-01  2.000E+01  2.000E+04 -1.880E-01
   1   16    5     1     5    1.1528E+05 -4.0732E+03   1.1936E+05  0.000E+00  0.000E+00  0.000E+00  4.65115E+01  1.592E-01  2.000E+01  2.000E+04 -2.037E-01
   1   16    6     1     6    1.1936E+05 -3.2161E+03   1.2257E+05  0.000E+00  0.000E+00  0.000E+00  4.60372E+01  1.622E-01  2.000E+01  2.000E+04 -1.608E-01
   1   16    7     1     7    1.2257E+05 -3.2725E+03   1.2585E+05  0.000E+00  0.000E+00  0.000E+00  4.55625E+01  1.647E-01  2.000E+01  2.000E+04 -1.636E-01
   1   16    8     1     8    1.2585E+05 -3.2925E+03   1.2914E+05  0.000E+00  0.000E+00  0.000E+00  4.50878E+01  1.673E-01  2.000E+01  2.000E+04 -1.646E-01
   1   16    9     1     9    1.2914E+05 -3.2583E+03   1.3240E+05  0.000E+00  0.000E+00  0.000E+00  4.46131E+01  1.699E-01  2.000E+01  2.000E+04 -1.629E-01
   1   16   10     1    10    1.3240E+05 -3.1630E+03   1.3556E+05  0.000E+00  0.000E+00  0.000E+00  4.41383E+01  1.724E-01  2.000E+01  2.000E+04 -1.581E-01
   1   16   11     1    11    1.3556E+05 -2.9967E+03   1.3856E+05  0.000E+00  0.000E+00  0.000E+00  4.36634E+01  1.748E-01  2.000E+01  2.000E+04 -1.498E-01
   1   16   12     1    12    1.3856E+05 -3.2821E+03   1.4184E+05  0.000E+00  0.000E+00  0.000E+00  4.31885E+01  1.772E-01  2.000E+01  2.000E+04 -1.641E-01
   1   15   13     1    13    1.4184E+05 -2.5902E+03   1.4443E+05  0.000E+00  0.000E+00  0.000E+00  4.27135E+01  1.794E-01  2.000E+01  2.000E+04 -1.295E-01
   1   14   14     1    14    1.4443E+05 -2.3289E+03   1.4676E+05  0.000E+00  0.000E+00  0.000E+00  4.22380E+01  1.812E-01  2.000E+01  2.000E+04 -1.164E-01
   1   13   15     1    15    1.4676E+05 -2.7521E+03   1.4951E+05  0.000E+00  0.000E+00  0.000E+00  4.17627E+01  1.831E-01  2.000E+01  2.000E+04 -1.376E-01
   1   12   16     1    16    1.4951E+05 -4.7794E+03   1.5429E+05  0.000E+00  0.000E+00  0.000E+00  4.12882E+01  1.859E-01  2.000E+01  2.000E+04 -2.390E-01
   1   12   17     1    17    1.5429E+05 -2.6594E+03   1.5695E+05  0.000E+00  0.000E+00  0.000E+00  4.08136E+01  1.886E-01  2.000E+01  2.000E+04 -1.330E-01
   1   12   18     1    18    1.5695E+05 -2.5926E+03   1.5954E+05  0.000E+00  0.000E+00  0.000E+00  4.03382E+01  1.905E-01  2.000E+01  2.000E+04 -1.296E-01
   1   12   19     1    19    1.5954E+05 -3.9365E+03   1.6348E+05  0.000E+00  0.000E+00  0.000E+00  3.98633E+01  1.929E-01  2.000E+01  2.000E+04 -1.968E-01
   1   13   20     1    20    1.6348E+05 -1.6638E+03   1.6514E+05  0.000E+00  0.000E+00  0.000E+00  3.93880E+01  1.949E-01  2.000E+01  2.000E+04 -8.319E-02
   1   14   21     1    21    1.6514E+05 -3.8206E+02   1.6552E+05  0.000E+00  0.000E+00  0.000E+00  3.89115E+01  1.956E-01  2.000E+01  2.000E+04 -1.910E-02
   1   14   22     1    22    1.6552E+05  5.2865E+03   1.6024E+05  0.000E+00  0.000E+00  0.000E+00  3.84325E+01  1.938E-01  2.000E+01  2.000E+04  2.643E-01
   1    9   30     2     1    5.0000E+04 -2.7519E+03   5.2752E+04  0.000E+00  0.000E+00  0.000E+00  4.02428E+01  1.178E-01  2.000E+01  2.000E+04 -1.376E-01
   1    9   29     2     2    5.2752E+04 -3.0850E+03   5.5837E+04  0.000E+00  0.000E+00  0.000E+00  3.99967E+01  1.217E-01  2.000E+01  2.000E+04 -1.542E-01
   1    9   28     2     3    5.5837E+04 -3.4686E+03   5.9305E+04  0.000E+00  0.000E+00  0.000E+00  3.97511E+01  1.261E-01  2.000E+01  2.000E+04 -1.734E-01
   1    9   27     2     4    5.9305E+04 -6.2008E+03   6.5506E+04  0.000E+00  0.000E+00  0.000E+00  3.95073E+01  1.323E-01  2.000E+01  2.000E+04 -3.100E-01
   1   10   26     2     5    6.5506E+04 -3.8115E+03   6.9318E+04  0.000E+00  0.000E+00  0.000E+00  3.92636E+01  1.386E-01  2.000E+01  2.000E+04 -1.906E-01
   1   11   25     2     6    6.9318E+04 -2.7553E+03   7.2073E+04  0.000E+00  0.000E+00  0.000E+00  3.90176E+01  1.426E-01  2.000E+01  2.000E+04 -1.378E-01
   1   12   24     2     7    7.2073E+04 -1.9010E+03   7.3974E+04  0.000E+00  0.000E+00  0.000E+00  3.87704E+01  1.454E-01  2.000E+01  2.000E+04 -9.505E-02
   1   13   23     2     8    7.3974E+04 -1.0709E+03   7.5045E+04  0.000E+00  0.000E+00  0.000E+00  3.85222E+01  1.472E-01  2.000E+01  2.000E+04 -5.354E-02
   1   14   22     2     9    7.5045E+04  2.0691E+03   7.2976E+04  0.000E+00  0.000E+00  0.000E+00  3.82716E+01  1.466E-01  2.000E+01  2.000E+04  1.035E-01
   1   14   22     3     1    2.3321E+05 -8.2198E+03   2.4143E+05  0.000E+00  0.000E+00  0.000E+00  3.77572E+01  2.016E-01  2.000E+01  2.000E+04 -4.110E-01
   1   15   23     3     2    2.4143E+05  3.1256E+02   2.4112E+05  0.000E+00  0.000E+00  0.000E+00  3.68703E+01  2.036E-01  2.000E+01  2.000E+04  1.563E-02
   1   15   24     3     3    2.4112E+05  1.6584E+03   2.3946E+05  0.000E+00  0.000E+00  0.000E+00  3.59809E+01  2.031E-01  2.000E+01  2.000E+04  8.292E-02
   1   15   25     3     4    2.3946E+05  3.2007E+03   2.3626E+05  0.000E+00  0.000E+00  0.000E+00  3.50908E+01  2.019E-01  2.000E+01  2.000E+04  1.600E-01
   1   15   26     3     5    2.3626E+05  6.5634E+02   2.3560E+05  0.000E+00  0.000E+00  0.000E+00  3.42009E+01  2.009E-01  2.000E+01  2.000E+04  3.282E-02
   1   16   27     3     6    2.3560E+05  1.7157E+03   2.3389E+05  0.000E+00  0.000E+00  0.000E+00  3.33114E+01  2.003E-01  2.000E+01  2.000E+04  8.579E-02
   1   17   28     3     7    2.3389E+05 -8.5737E+02   2.3475E+05  0.000E+00  0.000E+00  0.000E+00  3.24223E+01  2.001E-01  2.000E+01  2.000E+04 -4.287E-02
   1   18   29     3     8    2.3475E+05 -4.0278E+03   2.3877E+05  0.000E+00  0.000E+00  0.000E+00  3.15347E+01  2.013E-01  2.000E+01  2.000E+04 -2.014E-01
   1   18   30     3     9    2.3877E+05 -4.2591E+03   2.4303E+05  0.000E+00  0.000E+00  0.000E+00  3.06479E+01  2.034E-01  2.000E+01  2.000E+04 -2.130E-01



1
              HEAD IN LAYER   1 AT END OF TIME STEP   1 IN STRESS PERIOD    8
  ---------------------------------------------------------------------------

          1      2      3      4      5      6      7      8      9     10
         11     12     13     14     15     16     17     18     19     20
         21     22     23     24     25     26     27     28     29     30
 .........................................................................
   1  ****** ****** ****** ****** ****** ****** ****** ****** ****** ******
      ****** ****** ****** ****** ****** ****** ****** ****** ****** ******
      ****** ****** ****** ****** ****** ****** ****** ****** ****** ******
   2  ****** ****** ****** ****** ****** ****** ****** ****** ****** ******
      ****** ****** ****** ****** ****** ****** ****** ****** ****** ******
      ****** ****** ****** ****** ****** ****** ****** ****** ****** ******
   3  ****** ****** ****** ****** ****** ****** ****** ****** ****** ******
      ****** ****** ****** ****** ****** ****** ****** ****** ****** ******
      ****** ****** ****** ****** ****** ****** ****** ****** ****** ******
   4  ****** ****** ****** ****** ****** ****** ****** ****** ****** ******
      ****** ****** ****** ****** ****** ****** ****** ****** ****** ******
      ****** ****** ****** ****** ****** ****** ****** ****** ****** ******
   5  ****** ****** ****** ****** ****** ****** ****** ****** ****** ******
      ****** ****** ****** ****** ****** ****** ****** ****** ****** ******
      ****** ****** ****** ****** ****** ****** ****** ****** ****** ******
   6  ****** ****** ****** ****** ****** ****** ****** ****** ****** ******
      ****** ****** ****** ****** ****** ****** ****** ****** ****** ******
      ****** ****** ****** ****** ****** ****** ****** ****** ****** ******
   7  ****** ****** ****** ****** ****** ****** ****** ****** ****** ******
      ****** ****** ****** ****** ****** ****** ****** ****** ****** ******
      ****** ****** ****** ****** ****** ****** ****** ****** ****** ******
   8  ****** ****** ****** ****** ****** ****** ****** ****** ****** ******
      ****** ****** ****** ****** ****** ****** ****** ****** ****** ******
      ****** ****** ****** ****** ****** ****** ****** ****** ****** ******
   9  ****** ****** ****** ****** ****** ****** ****** ****** ****** ******
      ****** ****** ****** ****** ****** ****** ****** ****** ****** ******
      ****** ****** ****** ****** ****** ****** ****** ****** ****** ******
  10  ****** ****** ****** ****** ****** ****** ****** ****** ****** ******
      ****** ****** ****** ****** ****** ****** ****** ****** ****** ******
      ****** ****** ****** ****** ****** ****** ****** ****** ****** ******
  11  ****** ****** ****** ****** ****** ****** ****** ****** ****** ******
      ****** ****** ****** ****** ****** ****** ****** ****** ****** ******
      ****** ****** ****** ****** ****** ****** ****** ****** ****** ******
  12  ****** ****** ****** ****** ****** ****** ****** ****** ****** ******
      ****** ****** ****** ****** ****** ****** ****** ****** ****** ******
      ****** ****** ****** ****** ****** ****** ****** ****** ****** ******
  13  ****** ****** ****** ****** ****** ****** ****** ****** ****** ******
      ****** ****** ****** ****** ****** ****** ****** ****** ****** ******
      ****** ****** ****** ****** ****** ****** ****** ****** ****** ******
  14  ****** ****** ****** ****** ****** ****** ****** ****** ****** ******
      ****** ****** ****** ****** ****** ****** ****** ****** ****** ******
      ****** ****** ****** ****** ****** ****** ****** ****** ****** ******
  15  ****** ****** ****** ****** ****** ****** ****** ****** ****** ******
      ****** ****** ****** ****** ****** ****** ****** ****** ****** ******
      ****** ****** ****** ****** ****** ****** ****** ****** ****** ******
  16  ****** ****** ****** ****** ****** ****** ****** ****** ****** ******
      ****** ****** ****** ****** ****** ****** ****** ****** ****** ******
      ****** ****** ****** ****** ****** ****** ****** ****** ****** ******
  17  ****** ****** ****** ****** ****** ****** ****** ****** ****** ******
      ****** ****** ****** ****** ****** ****** ****** ****** ****** ******
      ****** ****** ****** ****** ****** ****** ****** ****** ****** ******
  18  ****** ****** ****** ****** ****** ****** ****** ****** ****** ******
      ****** ****** ****** ****** ****** ****** ****** ****** ****** ******
      ****** ****** ****** ****** ****** ****** ****** ****** ****** ******
  19  ****** ****** ****** ****** ****** ****** ****** ****** ****** ******
      ****** ****** ****** ****** ****** ****** ****** ****** ****** ******
      ****** ****** ****** ****** ****** ****** ****** ****** ****** ******
  20  ****** ****** ****** ****** ****** ****** ****** ****** ****** ******
      ****** ****** ****** ****** ****** ****** ****** ****** ****** ******
      ****** ****** ****** ****** ****** ****** ****** ****** ****** ******
  21  ****** ****** ****** ****** ****** ****** ****** ****** ****** ******
      ****** ****** ****** ****** ****** ****** ****** ****** ****** ******
      ****** ****** ****** ****** ****** ****** ****** ****** ****** ******
  22  ****** ****** ****** ****** ****** ****** ****** ****** ****** ******
      ****** ****** ****** ****** ****** ****** ****** ****** ****** ******
      ****** ****** ****** ****** ****** ****** ****** ****** ****** ******
  23  ****** ****** ****** ****** ****** ****** ****** ****** ****** ******
      ****** ****** ****** ****** ****** ****** ****** ****** ****** ******
      ****** ****** ****** ****** ****** ****** ****** ****** ****** ******
  24  ****** ****** ****** ****** ****** ****** ****** ****** ****** ******
      ****** ****** ****** ****** ****** ****** ****** ****** ****** ******
      ****** ****** ****** ****** ****** ****** ****** ****** ****** ******
  25  ****** ****** ****** ****** ****** ****** ****** ****** ****** ******
      ****** ****** ****** ****** ****** ****** ****** ****** ****** ******
      ****** ****** ****** ****** ****** ****** ****** ****** ****** ******

 HEAD WILL BE SAVED ON UNIT   51 AT END OF TIME STEP    1, STRESS PERIOD    8
1
  VOLUMETRIC BUDGET FOR ENTIRE MODEL AT END OF TIME STEP    1, STRESS PERIOD   8
  ------------------------------------------------------------------------------

     CUMULATIVE VOLUMES      L**3       RATES FOR THIS TIME STEP      L**3/T
     ------------------                 ------------------------

           IN:                                      IN:
           ---                                      ---
             STORAGE =    23709786.1931               STORAGE =           0.0000
       CONSTANT HEAD =    82897217.1074         CONSTANT HEAD =      119937.1382
               WELLS =           0.0000                 WELLS =           0.0000
            RECHARGE =    17608800.0000              RECHARGE =       27600.0000
      STREAM LEAKAGE =    28624571.5018        STREAM LEAKAGE =       14899.3655

            TOTAL IN =   152840374.8022              TOTAL IN =      162436.5037

          OUT:                                     OUT:
          ----                                     ----
             STORAGE =     1927363.4561               STORAGE =        5577.4445
       CONSTANT HEAD =           0.0000         CONSTANT HEAD =           0.0000
               WELLS =    69173661.2177                 WELLS =       48926.6868
            RECHARGE =           0.0000              RECHARGE =           0.0000
      STREAM LEAKAGE =    81739350.8241        STREAM LEAKAGE =      107932.3714

           TOTAL OUT =   152840375.4979             TOTAL OUT =      162436.5027

            IN - OUT =          -0.6956              IN - OUT =       9.8606E-04

 PERCENT DISCREPANCY =          -0.00     PERCENT DISCREPANCY =           0.00






         TIME SUMMARY AT END OF TIME STEP    1 IN STRESS PERIOD    8
                    SECONDS     MINUTES      HOURS       DAYS        YEARS
                    -----------------------------------------------------------
   TIME STEP LENGTH 7.86240E+06 1.31040E+05  2184.0      91.000     0.24914    
 STRESS PERIOD TIME 7.86240E+06 1.31040E+05  2184.0      91.000     0.24914    
         TOTAL TIME 6.30720E+07 1.05120E+06  17520.      730.00      1.9986    
1
1
                            STRESS PERIOD NO.    9, LENGTH =   92.00000    
                            -----------------------------------------------

                              NUMBER OF TIME STEPS =     1

                               MULTIPLIER FOR DELT =     1.500

                            INITIAL TIME STEP SIZE =   92.00000    

 WELL NO.  LAYER   ROW   COL   STRESS RATE         
 --------------------------------------------------
      1      1     17     25     -0.3250E+05
      2      1     16     17     -0.1643E+05
      3      1     14     25       0.000    

      3 WELLS

                 RECHARGE =  5.000000E-04

 REUSING STREAM SEGMENT DATA FROM LAST STRESS PERIOD
 
 SOLVING FOR HEAD 


     6 CALLS TO PCG ROUTINE FOR TIME STEP   1 IN STRESS PERIOD    9
    22 TOTAL ITERATIONS

 OUTPUT CONTROL FOR STRESS PERIOD    9   TIME STEP    1
    SAVE BUDGET
    SAVE HEAD FOR ALL LAYERS
    PRINT HEAD FOR ALL LAYERS
 UBDSV2 SAVING "STREAMFLOW OUT  " ON UNIT  50 AT TIME STEP  1, STRESS PERIOD   9



 STREAM LISTING     PERIOD      9   STEP        1

 LAYER ROW COL. STREAM  RCH.  FLOW INTO     FLOW TO   FLOW OUT OF   OVRLND.     DIRECT     STREAM       STREAM     STREAM     STREAM   STREAMBED  STREAMBED
                SEG.NO.  NO.  STRM. RCH.    AQUIFER    STRM. RCH.    RUNOFF     PRECIP       ET          HEAD       DEPTH      WIDTH   CONDCTNC.   GRADIENT

   1   13    1     1     1    1.0000E+05 -2.7505E+03   1.0275E+05  0.000E+00  0.000E+00  0.000E+00  4.84072E+01  1.458E-01  2.000E+01  2.000E+04 -1.375E-01
   1   13    2     1     2    1.0275E+05 -4.6469E+03   1.0740E+05  0.000E+00  0.000E+00  0.000E+00  4.79331E+01  1.490E-01  2.000E+01  2.000E+04 -2.323E-01
   1   14    3     1     3    1.0740E+05 -3.7077E+03   1.1111E+05  0.000E+00  0.000E+00  0.000E+00  4.74594E+01  1.525E-01  2.000E+01  2.000E+04 -1.854E-01
   1   15    4     1     4    1.1111E+05 -3.6113E+03   1.1472E+05  0.000E+00  0.000E+00  0.000E+00  4.69851E+01  1.556E-01  2.000E+01  2.000E+04 -1.806E-01
   1   16    5     1     5    1.1472E+05 -3.9410E+03   1.1866E+05  0.000E+00  0.000E+00  0.000E+00  4.65110E+01  1.587E-01  2.000E+01  2.000E+04 -1.971E-01
   1   16    6     1     6    1.1866E+05 -3.1106E+03   1.2177E+05  0.000E+00  0.000E+00  0.000E+00  4.60365E+01  1.615E-01  2.000E+01  2.000E+04 -1.555E-01
   1   16    7     1     7    1.2177E+05 -3.1665E+03   1.2493E+05  0.000E+00  0.000E+00  0.000E+00  4.55618E+01  1.641E-01  2.000E+01  2.000E+04 -1.583E-01
   1   16    8     1     8    1.2493E+05 -3.1875E+03   1.2812E+05  0.000E+00  0.000E+00  0.000E+00  4.50870E+01  1.666E-01  2.000E+01  2.000E+04 -1.594E-01
   1   16    9     1     9    1.2812E+05 -3.1562E+03   1.3128E+05  0.000E+00  0.000E+00  0.000E+00  4.46123E+01  1.691E-01  2.000E+01  2.000E+04 -1.578E-01
   1   16   10     1    10    1.3128E+05 -3.0660E+03   1.3434E+05  0.000E+00  0.000E+00  0.000E+00  4.41374E+01  1.715E-01  2.000E+01  2.000E+04 -1.533E-01
   1   16   11     1    11    1.3434E+05 -2.9082E+03   1.3725E+05  0.000E+00  0.000E+00  0.000E+00  4.36624E+01  1.738E-01  2.000E+01  2.000E+04 -1.454E-01
   1   16   12     1    12    1.3725E+05 -3.1991E+03   1.4045E+05  0.000E+00  0.000E+00  0.000E+00  4.31875E+01  1.761E-01  2.000E+01  2.000E+04 -1.600E-01
   1   15   13     1    13    1.4045E+05 -2.4912E+03   1.4294E+05  0.000E+00  0.000E+00  0.000E+00  4.27124E+01  1.783E-01  2.000E+01  2.000E+04 -1.246E-01
   1   14   14     1    14    1.4294E+05 -2.2257E+03   1.4517E+05  0.000E+00  0.000E+00  0.000E+00  4.22369E+01  1.801E-01  2.000E+01  2.000E+04 -1.113E-01
   1   13   15     1    15    1.4517E+05 -2.6420E+03   1.4781E+05  0.000E+00  0.000E+00  0.000E+00  4.17614E+01  1.819E-01  2.000E+01  2.000E+04 -1.321E-01
   1   12   16     1    16    1.4781E+05 -4.6526E+03   1.5246E+05  0.000E+00  0.000E+00  0.000E+00  4.12869E+01  1.846E-01  2.000E+01  2.000E+04 -2.326E-01
   1   12   17     1    17    1.5246E+05 -2.5760E+03   1.5504E+05  0.000E+00  0.000E+00  0.000E+00  4.08122E+01  1.872E-01  2.000E+01  2.000E+04 -1.288E-01
   1   12   18     1    18    1.5504E+05 -2.5113E+03   1.5755E+05  0.000E+00  0.000E+00  0.000E+00  4.03368E+01  1.891E-01  2.000E+01  2.000E+04 -1.256E-01
   1   12   19     1    19    1.5755E+05 -3.8260E+03   1.6138E+05  0.000E+00  0.000E+00  0.000E+00  3.98618E+01  1.914E-01  2.000E+01  2.000E+04 -1.913E-01
   1   13   20     1    20    1.6138E+05 -1.5802E+03   1.6296E+05  0.000E+00  0.000E+00  0.000E+00  3.93865E+01  1.933E-01  2.000E+01  2.000E+04 -7.901E-02
   1   14   21     1    21    1.6296E+05 -3.2684E+02   1.6328E+05  0.000E+00  0.000E+00  0.000E+00  3.89099E+01  1.940E-01  2.000E+01  2.000E+04 -1.634E-02
   1   14   22     1    22    1.6328E+05  5.3015E+03   1.5798E+05  0.000E+00  0.000E+00  0.000E+00  3.84309E+01  1.922E-01  2.000E+01  2.000E+04  2.651E-01
   1    9   30     2     1    5.0000E+04 -2.6688E+03   5.2669E+04  0.000E+00  0.000E+00  0.000E+00  4.02427E+01  1.177E-01  2.000E+01  2.000E+04 -1.334E-01
   1    9   29     2     2    5.2669E+04 -3.0018E+03   5.5671E+04  0.000E+00  0.000E+00  0.000E+00  3.99966E+01  1.216E-01  2.000E+01  2.000E+04 -1.501E-01
   1    9   28     2     3    5.5671E+04 -3.3841E+03   5.9055E+04  0.000E+00  0.000E+00  0.000E+00  3.97508E+01  1.258E-01  2.000E+01  2.000E+04 -1.692E-01
   1    9   27     2     4    5.9055E+04 -6.0821E+03   6.5137E+04  0.000E+00  0.000E+00  0.000E+00  3.95070E+01  1.320E-01  2.000E+01  2.000E+04 -3.041E-01
   1   10   26     2     5    6.5137E+04 -3.6974E+03   6.8834E+04  0.000E+00  0.000E+00  0.000E+00  3.92631E+01  1.381E-01  2.000E+01  2.000E+04 -1.849E-01
   1   11   25     2     6    6.8834E+04 -2.6490E+03   7.1483E+04  0.000E+00  0.000E+00  0.000E+00  3.90170E+01  1.420E-01  2.000E+01  2.000E+04 -1.324E-01
   1   12   24     2     7    7.1483E+04 -1.8052E+03   7.3288E+04  0.000E+00  0.000E+00  0.000E+00  3.87697E+01  1.447E-01  2.000E+01  2.000E+04 -9.026E-02
   1   13   23     2     8    7.3288E+04 -9.9033E+02   7.4279E+04  0.000E+00  0.000E+00  0.000E+00  3.85213E+01  1.463E-01  2.000E+01  2.000E+04 -4.952E-02
   1   14   22     2     9    7.4279E+04  2.0977E+03   7.2181E+04  0.000E+00  0.000E+00  0.000E+00  3.82707E+01  1.457E-01  2.000E+01  2.000E+04  1.049E-01
   1   14   22     3     1    2.3016E+05 -8.2039E+03   2.3837E+05  0.000E+00  0.000E+00  0.000E+00  3.77556E+01  2.000E-01  2.000E+01  2.000E+04 -4.102E-01
   1   15   23     3     2    2.3837E+05  3.6660E+02   2.3800E+05  0.000E+00  0.000E+00  0.000E+00  3.68687E+01  2.020E-01  2.000E+01  2.000E+04  1.833E-02
   1   15   24     3     3    2.3800E+05  1.7070E+03   2.3629E+05  0.000E+00  0.000E+00  0.000E+00  3.59793E+01  2.015E-01  2.000E+01  2.000E+04  8.535E-02
   1   15   25     3     4    2.3629E+05  3.2497E+03   2.3304E+05  0.000E+00  0.000E+00  0.000E+00  3.50891E+01  2.003E-01  2.000E+01  2.000E+04  1.625E-01
   1   15   26     3     5    2.3304E+05  7.1711E+02   2.3233E+05  0.000E+00  0.000E+00  0.000E+00  3.41992E+01  1.992E-01  2.000E+01  2.000E+04  3.586E-02
   1   16   27     3     6    2.3233E+05  1.8002E+03   2.3053E+05  0.000E+00  0.000E+00  0.000E+00  3.33097E+01  1.986E-01  2.000E+01  2.000E+04  9.001E-02
   1   17   28     3     7    2.3053E+05 -7.6400E+02   2.3129E+05  0.000E+00  0.000E+00  0.000E+00  3.24205E+01  1.983E-01  2.000E+01  2.000E+04 -3.820E-02
   1   18   29     3     8    2.3129E+05 -3.9329E+03   2.3522E+05  0.000E+00  0.000E+00  0.000E+00  3.15329E+01  1.995E-01  2.000E+01  2.000E+04 -1.966E-01
   1   18   30     3     9    2.3522E+05 -4.1844E+03   2.3941E+05  0.000E+00  0.000E+00  0.000E+00  3.06460E+01  2.016E-01  2.000E+01  2.000E+04 -2.092E-01



1
              HEAD IN LAYER   1 AT END OF TIME STEP   1 IN STRESS PERIOD    9
  ---------------------------------------------------------------------------

          1      2      3      4      5      6      7      8      9     10
         11     12     13     14     15     16     17     18     19     20
         21     22     23     24     25     26     27     28     29     30
 .........................................................................
   1  ****** ****** ****** ****** ****** ****** ****** ****** ****** ******
      ****** ****** ****** ****** ****** ****** ****** ****** ****** ******
      ****** ****** ****** ****** ****** ****** ****** ****** ****** ******
   2  ****** ****** ****** ****** ****** ****** ****** ****** ****** ******
      ****** ****** ****** ****** ****** ****** ****** ****** ****** ******
      ****** ****** ****** ****** ****** ****** ****** ****** ****** ******
   3  ****** ****** ****** ****** ****** ****** ****** ****** ****** ******
      ****** ****** ****** ****** ****** ****** ****** ****** ****** ******
      ****** ****** ****** ****** ****** ****** ****** ****** ****** ******
   4  ****** ****** ****** ****** ****** ****** ****** ****** ****** ******
      ****** ****** ****** ****** ****** ****** ****** ****** ****** ******
      ****** ****** ****** ****** ****** ****** ****** ****** ****** ******
   5  ****** ****** ****** ****** ****** ****** ****** ****** ****** ******
      ****** ****** ****** ****** ****** ****** ****** ****** ****** ******
      ****** ****** ****** ****** ****** ****** ****** ****** ****** ******
   6  ****** ****** ****** ****** ****** ****** ****** ****** ****** ******
      ****** ****** ****** ****** ****** ****** ****** ****** ****** ******
      ****** ****** ****** ****** ****** ****** ****** ****** ****** ******
   7  ****** ****** ****** ****** ****** ****** ****** ****** ****** ******
      ****** ****** ****** ****** ****** ****** ****** ****** ****** ******
      ****** ****** ****** ****** ****** ****** ****** ****** ****** ******
   8  ****** ****** ****** ****** ****** ****** ****** ****** ****** ******
      ****** ****** ****** ****** ****** ****** ****** ****** ****** ******
      ****** ****** ****** ****** ****** ****** ****** ****** ****** ******
   9  ****** ****** ****** ****** ****** ****** ****** ****** ****** ******
      ****** ****** ****** ****** ****** ****** ****** ****** ****** ******
      ****** ****** ****** ****** ****** ****** ****** ****** ****** ******
  10  ****** ****** ****** ****** ****** ****** ****** ****** ****** ******
      ****** ****** ****** ****** ****** ****** ****** ****** ****** ******
      ****** ****** ****** ****** ****** ****** ****** ****** ****** ******
  11  ****** ****** ****** ****** ****** ****** ****** ****** ****** ******
      ****** ****** ****** ****** ****** ****** ****** ****** ****** ******
      ****** ****** ****** ****** ****** ****** ****** ****** ****** ******
  12  ****** ****** ****** ****** ****** ****** ****** ****** ****** ******
      ****** ****** ****** ****** ****** ****** ****** ****** ****** ******
      ****** ****** ****** ****** ****** ****** ****** ****** ****** ******
  13  ****** ****** ****** ****** ****** ****** ****** ****** ****** ******
      ****** ****** ****** ****** ****** ****** ****** ****** ****** ******
      ****** ****** ****** ****** ****** ****** ****** ****** ****** ******
  14  ****** ****** ****** ****** ****** ****** ****** ****** ****** ******
      ****** ****** ****** ****** ****** ****** ****** ****** ****** ******
      ****** ****** ****** ****** ****** ****** ****** ****** ****** ******
  15  ****** ****** ****** ****** ****** ****** ****** ****** ****** ******
      ****** ****** ****** ****** ****** ****** ****** ****** ****** ******
      ****** ****** ****** ****** ****** ****** ****** ****** ****** ******
  16  ****** ****** ****** ****** ****** ****** ****** ****** ****** ******
      ****** ****** ****** ****** ****** ****** ****** ****** ****** ******
      ****** ****** ****** ****** ****** ****** ****** ****** ****** ******
  17  ****** ****** ****** ****** ****** ****** ****** ****** ****** ******
      ****** ****** ****** ****** ****** ****** ****** ****** ****** ******
      ****** ****** ****** ****** ****** ****** ****** ****** ****** ******
  18  ****** ****** ****** ****** ****** ****** ****** ****** ****** ******
      ****** ****** ****** ****** ****** ****** ****** ****** ****** ******
      ****** ****** ****** ****** ****** ****** ****** ****** ****** ******
  19  ****** ****** ****** ****** ****** ****** ****** ****** ****** ******
      ****** ****** ****** ****** ****** ****** ****** ****** ****** ******
      ****** ****** ****** ****** ****** ****** ****** ****** ****** ******
  20  ****** ****** ****** ****** ****** ****** ****** ****** ****** ******
      ****** ****** ****** ****** ****** ****** ****** ****** ****** ******
      ****** ****** ****** ****** ****** ****** ****** ****** ****** ******
  21  ****** ****** ****** ****** ****** ****** ****** ****** ****** ******
      ****** ****** ****** ****** ****** ****** ****** ****** ****** ******
      ****** ****** ****** ****** ****** ****** ****** ****** ****** ******
  22  ****** ****** ****** ****** ****** ****** ****** ****** ****** ******
      ****** ****** ****** ****** ****** ****** ****** ****** ****** ******
      ****** ****** ****** ****** ****** ****** ****** ****** ****** ******
  23  ****** ****** ****** ****** ****** ****** ****** ****** ****** ******
      ****** ****** ****** ****** ****** ****** ****** ****** ****** ******
      ****** ****** ****** ****** ****** ****** ****** ****** ****** ******
  24  ****** ****** ****** ****** ****** ****** ****** ****** ****** ******
      ****** ****** ****** ****** ****** ****** ****** ****** ****** ******
      ****** ****** ****** ****** ****** ****** ****** ****** ****** ******
  25  ****** ****** ****** ****** ****** ****** ****** ****** ****** ******
      ****** ****** ****** ****** ****** ****** ****** ****** ****** ******
      ****** ****** ****** ****** ****** ****** ****** ****** ****** ******

 HEAD WILL BE SAVED ON UNIT   51 AT END OF TIME STEP    1, STRESS PERIOD    9
1
  VOLUMETRIC BUDGET FOR ENTIRE MODEL AT END OF TIME STEP    1, STRESS PERIOD   9
  ------------------------------------------------------------------------------

     CUMULATIVE VOLUMES      L**3       RATES FOR THIS TIME STEP      L**3/T
     ------------------                 ------------------------

           IN:                                      IN:
           ---                                      ---
             STORAGE =    23905464.6062               STORAGE =        2126.9393
       CONSTANT HEAD =    94158935.0022         CONSTANT HEAD =      122409.9771
               WELLS =           0.0000                 WELLS =           0.0000
            RECHARGE =    18878400.0000              RECHARGE =       13800.0000
      STREAM LEAKAGE =    30026627.4529        STREAM LEAKAGE =       15239.7386

            TOTAL IN =   166969427.0613              TOTAL IN =      153576.6550

          OUT:                                     OUT:
          ----                                     ----
             STORAGE =     1927611.3366               STORAGE =           2.6944
       CONSTANT HEAD =           0.0000         CONSTANT HEAD =           0.0000
               WELLS =    73674916.4020                 WELLS =       48926.6868
            RECHARGE =           0.0000              RECHARGE =           0.0000
      STREAM LEAKAGE =    91366900.2708        STREAM LEAKAGE =      104647.2766

           TOTAL OUT =   166969428.0095             TOTAL OUT =      153576.6577

            IN - OUT =          -0.9482              IN - OUT =      -2.7458E-03

 PERCENT DISCREPANCY =          -0.00     PERCENT DISCREPANCY =          -0.00






         TIME SUMMARY AT END OF TIME STEP    1 IN STRESS PERIOD    9
                    SECONDS     MINUTES      HOURS       DAYS        YEARS
                    -----------------------------------------------------------
   TIME STEP LENGTH 7.94880E+06 1.32480E+05  2208.0      92.000     0.25188    
 STRESS PERIOD TIME 7.94880E+06 1.32480E+05  2208.0      92.000     0.25188    
         TOTAL TIME 7.10208E+07 1.18368E+06  19728.      822.00      2.2505    
1
1
                            STRESS PERIOD NO.   10, LENGTH =   91.00000    
                            -----------------------------------------------

                              NUMBER OF TIME STEPS =     1

                               MULTIPLIER FOR DELT =     1.500

                            INITIAL TIME STEP SIZE =   91.00000    

 WELL NO.  LAYER   ROW   COL   STRESS RATE         
 --------------------------------------------------
      1      1     17     25     -0.3250E+05
      2      1     16     17     -0.1643E+05
      3      1     14     25       0.000    

      3 WELLS

                 RECHARGE =  2.000000E-03

 REUSING STREAM SEGMENT DATA FROM LAST STRESS PERIOD
 
 SOLVING FOR HEAD 


     7 CALLS TO PCG ROUTINE FOR TIME STEP   1 IN STRESS PERIOD   10
    26 TOTAL ITERATIONS

 OUTPUT CONTROL FOR STRESS PERIOD   10   TIME STEP    1
    SAVE BUDGET
    SAVE HEAD FOR ALL LAYERS
    PRINT HEAD FOR ALL LAYERS
 UBDSV2 SAVING "STREAMFLOW OUT  " ON UNIT  50 AT TIME STEP  1, STRESS PERIOD  10



 STREAM LISTING     PERIOD     10   STEP        1

 LAYER ROW COL. STREAM  RCH.  FLOW INTO     FLOW TO   FLOW OUT OF   OVRLND.     DIRECT     STREAM       STREAM     STREAM     STREAM   STREAMBED  STREAMBED
                SEG.NO.  NO.  STRM. RCH.    AQUIFER    STRM. RCH.    RUNOFF     PRECIP       ET          HEAD       DEPTH      WIDTH   CONDCTNC.   GRADIENT

   1   13    1     1     1    1.0000E+05 -3.1741E+03   1.0317E+05  0.000E+00  0.000E+00  0.000E+00  4.84074E+01  1.460E-01  2.000E+01  2.000E+04 -1.587E-01
   1   13    2     1     2    1.0317E+05 -5.2095E+03   1.0838E+05  0.000E+00  0.000E+00  0.000E+00  4.79337E+01  1.496E-01  2.000E+01  2.000E+04 -2.605E-01
   1   14    3     1     3    1.0838E+05 -4.2753E+03   1.1266E+05  0.000E+00  0.000E+00  0.000E+00  4.74604E+01  1.536E-01  2.000E+01  2.000E+04 -2.138E-01
   1   15    4     1     4    1.1266E+05 -4.1723E+03   1.1683E+05  0.000E+00  0.000E+00  0.000E+00  4.69866E+01  1.571E-01  2.000E+01  2.000E+04 -2.086E-01
   1   16    5     1     5    1.1683E+05 -4.4585E+03   1.2129E+05  0.000E+00  0.000E+00  0.000E+00  4.65129E+01  1.606E-01  2.000E+01  2.000E+04 -2.229E-01
   1   16    6     1     6    1.2129E+05 -3.5201E+03   1.2481E+05  0.000E+00  0.000E+00  0.000E+00  4.60388E+01  1.638E-01  2.000E+01  2.000E+04 -1.760E-01
   1   16    7     1     7    1.2481E+05 -3.5832E+03   1.2839E+05  0.000E+00  0.000E+00  0.000E+00  4.55644E+01  1.666E-01  2.000E+01  2.000E+04 -1.792E-01
   1   16    8     1     8    1.2839E+05 -3.6087E+03   1.3200E+05  0.000E+00  0.000E+00  0.000E+00  4.50899E+01  1.695E-01  2.000E+01  2.000E+04 -1.804E-01
   1   16    9     1     9    1.3200E+05 -3.5782E+03   1.3558E+05  0.000E+00  0.000E+00  0.000E+00  4.46154E+01  1.723E-01  2.000E+01  2.000E+04 -1.789E-01
   1   16   10     1    10    1.3558E+05 -3.4852E+03   1.3907E+05  0.000E+00  0.000E+00  0.000E+00  4.41409E+01  1.750E-01  2.000E+01  2.000E+04 -1.743E-01
   1   16   11     1    11    1.3907E+05 -3.3235E+03   1.4239E+05  0.000E+00  0.000E+00  0.000E+00  4.36662E+01  1.776E-01  2.000E+01  2.000E+04 -1.662E-01
   1   16   12     1    12    1.4239E+05 -3.7403E+03   1.4613E+05  0.000E+00  0.000E+00  0.000E+00  4.31916E+01  1.802E-01  2.000E+01  2.000E+04 -1.870E-01
   1   15   13     1    13    1.4613E+05 -3.0780E+03   1.4921E+05  0.000E+00  0.000E+00  0.000E+00  4.27169E+01  1.828E-01  2.000E+01  2.000E+04 -1.539E-01
   1   14   14     1    14    1.4921E+05 -2.8228E+03   1.5203E+05  0.000E+00  0.000E+00  0.000E+00  4.22418E+01  1.849E-01  2.000E+01  2.000E+04 -1.411E-01
   1   13   15     1    15    1.5203E+05 -3.2276E+03   1.5526E+05  0.000E+00  0.000E+00  0.000E+00  4.17667E+01  1.872E-01  2.000E+01  2.000E+04 -1.614E-01
   1   12   16     1    16    1.5526E+05 -5.2101E+03   1.6047E+05  0.000E+00  0.000E+00  0.000E+00  4.12925E+01  1.902E-01  2.000E+01  2.000E+04 -2.605E-01
   1   12   17     1    17    1.6047E+05 -2.9909E+03   1.6346E+05  0.000E+00  0.000E+00  0.000E+00  4.08182E+01  1.932E-01  2.000E+01  2.000E+04 -1.495E-01
   1   12   18     1    18    1.6346E+05 -2.9183E+03   1.6638E+05  0.000E+00  0.000E+00  0.000E+00  4.03430E+01  1.953E-01  2.000E+01  2.000E+04 -1.459E-01
   1   12   19     1    19    1.6638E+05 -4.3189E+03   1.7070E+05  0.000E+00  0.000E+00  0.000E+00  3.98683E+01  1.979E-01  2.000E+01  2.000E+04 -2.159E-01
   1   13   20     1    20    1.7070E+05 -2.0645E+03   1.7276E+05  0.000E+00  0.000E+00  0.000E+00  3.93933E+01  2.001E-01  2.000E+01  2.000E+04 -1.032E-01
   1   14   21     1    21    1.7276E+05 -7.7887E+02   1.7354E+05  0.000E+00  0.000E+00  0.000E+00  3.89170E+01  2.011E-01  2.000E+01  2.000E+04 -3.894E-02
   1   14   22     1    22    1.7354E+05  5.2196E+03   1.6832E+05  0.000E+00  0.000E+00  0.000E+00  3.84382E+01  1.995E-01  2.000E+01  2.000E+04  2.610E-01
   1    9   30     2     1    5.0000E+04 -3.0331E+03   5.3033E+04  0.000E+00  0.000E+00  0.000E+00  4.02430E+01  1.180E-01  2.000E+01  2.000E+04 -1.517E-01
   1    9   29     2     2    5.3033E+04 -3.3632E+03   5.6396E+04  0.000E+00  0.000E+00  0.000E+00  3.99973E+01  1.223E-01  2.000E+01  2.000E+04 -1.682E-01
   1    9   28     2     3    5.6396E+04 -3.7435E+03   6.0140E+04  0.000E+00  0.000E+00  0.000E+00  3.97520E+01  1.270E-01  2.000E+01  2.000E+04 -1.872E-01
   1    9   27     2     4    6.0140E+04 -6.5636E+03   6.6703E+04  0.000E+00  0.000E+00  0.000E+00  3.95086E+01  1.336E-01  2.000E+01  2.000E+04 -3.282E-01
   1   10   26     2     5    6.6703E+04 -4.1961E+03   7.0899E+04  0.000E+00  0.000E+00  0.000E+00  3.92653E+01  1.403E-01  2.000E+01  2.000E+04 -2.098E-01
   1   11   25     2     6    7.0899E+04 -3.1262E+03   7.4026E+04  0.000E+00  0.000E+00  0.000E+00  3.90198E+01  1.448E-01  2.000E+01  2.000E+04 -1.563E-01
   1   12   24     2     7    7.4026E+04 -2.2264E+03   7.6252E+04  0.000E+00  0.000E+00  0.000E+00  3.87729E+01  1.479E-01  2.000E+01  2.000E+04 -1.113E-01
   1   13   23     2     8    7.6252E+04 -1.3181E+03   7.7570E+04  0.000E+00  0.000E+00  0.000E+00  3.85250E+01  1.500E-01  2.000E+01  2.000E+04 -6.591E-02
   1   14   22     2     9    7.7570E+04  1.9494E+03   7.5621E+04  0.000E+00  0.000E+00  0.000E+00  3.82747E+01  1.497E-01  2.000E+01  2.000E+04  9.747E-02
   1   14   22     3     1    2.4394E+05 -8.2918E+03   2.5223E+05  0.000E+00  0.000E+00  0.000E+00  3.77626E+01  2.070E-01  2.000E+01  2.000E+04 -4.146E-01
   1   15   23     3     2    2.5223E+05 -5.5320E+01   2.5229E+05  0.000E+00  0.000E+00  0.000E+00  3.68758E+01  2.091E-01  2.000E+01  2.000E+04 -2.766E-03
   1   15   24     3     3    2.5229E+05  1.4068E+03   2.5088E+05  0.000E+00  0.000E+00  0.000E+00  3.59866E+01  2.088E-01  2.000E+01  2.000E+04  7.034E-02
   1   15   25     3     4    2.5088E+05  2.9512E+03   2.4793E+05  0.000E+00  0.000E+00  0.000E+00  3.50966E+01  2.077E-01  2.000E+01  2.000E+04  1.476E-01
   1   15   26     3     5    2.4793E+05  3.3502E+02   2.4759E+05  0.000E+00  0.000E+00  0.000E+00  3.42069E+01  2.069E-01  2.000E+01  2.000E+04  1.675E-02
   1   16   27     3     6    2.4759E+05  1.3183E+03   2.4628E+05  0.000E+00  0.000E+00  0.000E+00  3.33176E+01  2.065E-01  2.000E+01  2.000E+04  6.592E-02
   1   17   28     3     7    2.4628E+05 -1.2556E+03   2.4753E+05  0.000E+00  0.000E+00  0.000E+00  3.24287E+01  2.065E-01  2.000E+01  2.000E+04 -6.278E-02
   1   18   29     3     8    2.4753E+05 -4.3941E+03   2.5193E+05  0.000E+00  0.000E+00  0.000E+00  3.15412E+01  2.079E-01  2.000E+01  2.000E+04 -2.197E-01
   1   18   30     3     9    2.5193E+05 -4.5299E+03   2.5646E+05  0.000E+00  0.000E+00  0.000E+00  3.06545E+01  2.101E-01  2.000E+01  2.000E+04 -2.265E-01



1
              HEAD IN LAYER   1 AT END OF TIME STEP   1 IN STRESS PERIOD   10
  ---------------------------------------------------------------------------

          1      2      3      4      5      6      7      8      9     10
         11     12     13     14     15     16     17     18     19     20
         21     22     23     24     25     26     27     28     29     30
 .........................................................................
   1  ****** ****** ****** ****** ****** ****** ****** ****** ****** ******
      ****** ****** ****** ****** ****** ****** ****** ****** ****** ******
      ****** ****** ****** ****** ****** ****** ****** ****** ****** ******
   2  ****** ****** ****** ****** ****** ****** ****** ****** ****** ******
      ****** ****** ****** ****** ****** ****** ****** ****** ****** ******
      ****** ****** ****** ****** ****** ****** ****** ****** ****** ******
   3  ****** ****** ****** ****** ****** ****** ****** ****** ****** ******
      ****** ****** ****** ****** ****** ****** ****** ****** ****** ******
      ****** ****** ****** ****** ****** ****** ****** ****** ****** ******
   4  ****** ****** ****** ****** ****** ****** ****** ****** ****** ******
      ****** ****** ****** ****** ****** ****** ****** ****** ****** ******
      ****** ****** ****** ****** ****** ****** ****** ****** ****** ******
   5  ****** ****** ****** ****** ****** ****** ****** ****** ****** ******
      ****** ****** ****** ****** ****** ****** ****** ****** ****** ******
      ****** ****** ****** ****** ****** ****** ****** ****** ****** ******
   6  ****** ****** ****** ****** ****** ****** ****** ****** ****** ******
      ****** ****** ****** ****** ****** ****** ****** ****** ****** ******
      ****** ****** ****** ****** ****** ****** ****** ****** ****** ******
   7  ****** ****** ****** ****** ****** ****** ****** ****** ****** ******
      ****** ****** ****** ****** ****** ****** ****** ****** ****** ******
      ****** ****** ****** ****** ****** ****** ****** ****** ****** ******
   8  ****** ****** ****** ****** ****** ****** ****** ****** ****** ******
      ****** ****** ****** ****** ****** ****** ****** ****** ****** ******
      ****** ****** ****** ****** ****** ****** ****** ****** ****** ******
   9  ****** ****** ****** ****** ****** ****** ****** ****** ****** ******
      ****** ****** ****** ****** ****** ****** ****** ****** ****** ******
      ****** ****** ****** ****** ****** ****** ****** ****** ****** ******
  10  ****** ****** ****** ****** ****** ****** ****** ****** ****** ******
      ****** ****** ****** ****** ****** ****** ****** ****** ****** ******
      ****** ****** ****** ****** ****** ****** ****** ****** ****** ******
  11  ****** ****** ****** ****** ****** ****** ****** ****** ****** ******
      ****** ****** ****** ****** ****** ****** ****** ****** ****** ******
      ****** ****** ****** ****** ****** ****** ****** ****** ****** ******
  12  ****** ****** ****** ****** ****** ****** ****** ****** ****** ******
      ****** ****** ****** ****** ****** ****** ****** ****** ****** ******
      ****** ****** ****** ****** ****** ****** ****** ****** ****** ******
  13  ****** ****** ****** ****** ****** ****** ****** ****** ****** ******
      ****** ****** ****** ****** ****** ****** ****** ****** ****** ******
      ****** ****** ****** ****** ****** ****** ****** ****** ****** ******
  14  ****** ****** ****** ****** ****** ****** ****** ****** ****** ******
      ****** ****** ****** ****** ****** ****** ****** ****** ****** ******
      ****** ****** ****** ****** ****** ****** ****** ****** ****** ******
  15  ****** ****** ****** ****** ****** ****** ****** ****** ****** ******
      ****** ****** ****** ****** ****** ****** ****** ****** ****** ******
      ****** ****** ****** ****** ****** ****** ****** ****** ****** ******
  16  ****** ****** ****** ****** ****** ****** ****** ****** ****** ******
      ****** ****** ****** ****** ****** ****** ****** ****** ****** ******
      ****** ****** ****** ****** ****** ****** ****** ****** ****** ******
  17  ****** ****** ****** ****** ****** ****** ****** ****** ****** ******
      ****** ****** ****** ****** ****** ****** ****** ****** ****** ******
      ****** ****** ****** ****** ****** ****** ****** ****** ****** ******
  18  ****** ****** ****** ****** ****** ****** ****** ****** ****** ******
      ****** ****** ****** ****** ****** ****** ****** ****** ****** ******
      ****** ****** ****** ****** ****** ****** ****** ****** ****** ******
  19  ****** ****** ****** ****** ****** ****** ****** ****** ****** ******
      ****** ****** ****** ****** ****** ****** ****** ****** ****** ******
      ****** ****** ****** ****** ****** ****** ****** ****** ****** ******
  20  ****** ****** ****** ****** ****** ****** ****** ****** ****** ******
      ****** ****** ****** ****** ****** ****** ****** ****** ****** ******
      ****** ****** ****** ****** ****** ****** ****** ****** ****** ******
  21  ****** ****** ****** ****** ****** ****** ****** ****** ****** ******
      ****** ****** ****** ****** ****** ****** ****** ****** ****** ******
      ****** ****** ****** ****** ****** ****** ****** ****** ****** ******
  22  ****** ****** ****** ****** ****** ****** ****** ****** ****** ******
      ****** ****** ****** ****** ****** ****** ****** ****** ****** ******
      ****** ****** ****** ****** ****** ****** ****** ****** ****** ******
  23  ****** ****** ****** ****** ****** ****** ****** ****** ****** ******
      ****** ****** ****** ****** ****** ****** ****** ****** ****** ******
      ****** ****** ****** ****** ****** ****** ****** ****** ****** ******
  24  ****** ****** ****** ****** ****** ****** ****** ****** ****** ******
      ****** ****** ****** ****** ****** ****** ****** ****** ****** ******
      ****** ****** ****** ****** ****** ****** ****** ****** ****** ******
  25  ****** ****** ****** ****** ****** ****** ****** ****** ****** ******
      ****** ****** ****** ****** ****** ****** ****** ****** ****** ******
      ****** ****** ****** ****** ****** ****** ****** ****** ****** ******

 HEAD WILL BE SAVED ON UNIT   51 AT END OF TIME STEP    1, STRESS PERIOD   10
1
  VOLUMETRIC BUDGET FOR ENTIRE MODEL AT END OF TIME STEP    1, STRESS PERIOD  10
  ------------------------------------------------------------------------------

     CUMULATIVE VOLUMES      L**3       RATES FOR THIS TIME STEP      L**3/T
     ------------------                 ------------------------

           IN:                                      IN:
           ---                                      ---
             STORAGE =    23905464.6062               STORAGE =           0.0000
       CONSTANT HEAD =   104270027.5107         CONSTANT HEAD =      111110.9067
               WELLS =           0.0000                 WELLS =           0.0000
            RECHARGE =    23901600.0000              RECHARGE =       55200.0000
      STREAM LEAKAGE =    31226044.2572        STREAM LEAKAGE =       13180.4044

            TOTAL IN =   183303136.3741              TOTAL IN =      179491.3111

          OUT:                                     OUT:
          ----                                     ----
             STORAGE =     2922146.4411               STORAGE =       10928.9572
       CONSTANT HEAD =           0.0000         CONSTANT HEAD =           0.0000
               WELLS =    78127244.8996                 WELLS =       48926.6868
            RECHARGE =           0.0000              RECHARGE =           0.0000
      STREAM LEAKAGE =   102253745.8232        STREAM LEAKAGE =      119635.6654

           TOTAL OUT =   183303137.1639             TOTAL OUT =      179491.3094

            IN - OUT =          -0.7899              IN - OUT =       1.7403E-03

 PERCENT DISCREPANCY =          -0.00     PERCENT DISCREPANCY =           0.00






         TIME SUMMARY AT END OF TIME STEP    1 IN STRESS PERIOD   10
                    SECONDS     MINUTES      HOURS       DAYS        YEARS
                    -----------------------------------------------------------
   TIME STEP LENGTH 7.86240E+06 1.31040E+05  2184.0      91.000     0.24914    
 STRESS PERIOD TIME 7.86240E+06 1.31040E+05  2184.0      91.000     0.24914    
         TOTAL TIME 7.88832E+07 1.31472E+06  21912.      913.00      2.4997    
1
1
                            STRESS PERIOD NO.   11, LENGTH =   91.00000    
                            -----------------------------------------------

                              NUMBER OF TIME STEPS =     1

                               MULTIPLIER FOR DELT =     1.500

                            INITIAL TIME STEP SIZE =   91.00000    

 WELL NO.  LAYER   ROW   COL   STRESS RATE         
 --------------------------------------------------
      1      1     17     25     -0.3250E+05
      2      1     16     17     -0.1643E+05
      3      1     14     25       0.000    

      3 WELLS

                 RECHARGE =   0.00000    

 REUSING STREAM SEGMENT DATA FROM LAST STRESS PERIOD
 
 SOLVING FOR HEAD 


     7 CALLS TO PCG ROUTINE FOR TIME STEP   1 IN STRESS PERIOD   11
    26 TOTAL ITERATIONS

 OUTPUT CONTROL FOR STRESS PERIOD   11   TIME STEP    1
    SAVE BUDGET
    SAVE HEAD FOR ALL LAYERS
    PRINT HEAD FOR ALL LAYERS
 UBDSV2 SAVING "STREAMFLOW OUT  " ON UNIT  50 AT TIME STEP  1, STRESS PERIOD  11



 STREAM LISTING     PERIOD     11   STEP        1

 LAYER ROW COL. STREAM  RCH.  FLOW INTO     FLOW TO   FLOW OUT OF   OVRLND.     DIRECT     STREAM       STREAM     STREAM     STREAM   STREAMBED  STREAMBED
                SEG.NO.  NO.  STRM. RCH.    AQUIFER    STRM. RCH.    RUNOFF     PRECIP       ET          HEAD       DEPTH      WIDTH   CONDCTNC.   GRADIENT

   1   13    1     1     1    1.0000E+05 -2.6902E+03   1.0269E+05  0.000E+00  0.000E+00  0.000E+00  4.84072E+01  1.458E-01  2.000E+01  2.000E+04 -1.345E-01
   1   13    2     1     2    1.0269E+05 -4.5768E+03   1.0727E+05  0.000E+00  0.000E+00  0.000E+00  4.79330E+01  1.489E-01  2.000E+01  2.000E+04 -2.288E-01
   1   14    3     1     3    1.0727E+05 -3.6209E+03   1.1089E+05  0.000E+00  0.000E+00  0.000E+00  4.74592E+01  1.524E-01  2.000E+01  2.000E+04 -1.810E-01
   1   15    4     1     4    1.1089E+05 -3.5213E+03   1.1441E+05  0.000E+00  0.000E+00  0.000E+00  4.69849E+01  1.554E-01  2.000E+01  2.000E+04 -1.761E-01
   1   16    5     1     5    1.1441E+05 -3.8579E+03   1.1827E+05  0.000E+00  0.000E+00  0.000E+00  4.65107E+01  1.584E-01  2.000E+01  2.000E+04 -1.929E-01
   1   16    6     1     6    1.1827E+05 -3.0450E+03   1.2131E+05  0.000E+00  0.000E+00  0.000E+00  4.60362E+01  1.612E-01  2.000E+01  2.000E+04 -1.523E-01
   1   16    7     1     7    1.2131E+05 -3.1014E+03   1.2441E+05  0.000E+00  0.000E+00  0.000E+00  4.55614E+01  1.637E-01  2.000E+01  2.000E+04 -1.551E-01
   1   16    8     1     8    1.2441E+05 -3.1230E+03   1.2754E+05  0.000E+00  0.000E+00  0.000E+00  4.50866E+01  1.661E-01  2.000E+01  2.000E+04 -1.562E-01
   1   16    9     1     9    1.2754E+05 -3.0929E+03   1.3063E+05  0.000E+00  0.000E+00  0.000E+00  4.46118E+01  1.686E-01  2.000E+01  2.000E+04 -1.546E-01
   1   16   10     1    10    1.3063E+05 -3.0045E+03   1.3363E+05  0.000E+00  0.000E+00  0.000E+00  4.41369E+01  1.710E-01  2.000E+01  2.000E+04 -1.502E-01
   1   16   11     1    11    1.3363E+05 -2.8495E+03   1.3648E+05  0.000E+00  0.000E+00  0.000E+00  4.36619E+01  1.732E-01  2.000E+01  2.000E+04 -1.425E-01
   1   16   12     1    12    1.3648E+05 -3.1356E+03   1.3962E+05  0.000E+00  0.000E+00  0.000E+00  4.31869E+01  1.755E-01  2.000E+01  2.000E+04 -1.568E-01
   1   15   13     1    13    1.3962E+05 -2.4185E+03   1.4204E+05  0.000E+00  0.000E+00  0.000E+00  4.27117E+01  1.776E-01  2.000E+01  2.000E+04 -1.209E-01
   1   14   14     1    14    1.4204E+05 -2.1517E+03   1.4419E+05  0.000E+00  0.000E+00  0.000E+00  4.22362E+01  1.794E-01  2.000E+01  2.000E+04 -1.076E-01
   1   13   15     1    15    1.4419E+05 -2.5678E+03   1.4676E+05  0.000E+00  0.000E+00  0.000E+00  4.17607E+01  1.811E-01  2.000E+01  2.000E+04 -1.284E-01
   1   12   16     1    16    1.4676E+05 -4.5840E+03   1.5134E+05  0.000E+00  0.000E+00  0.000E+00  4.12861E+01  1.838E-01  2.000E+01  2.000E+04 -2.292E-01
   1   12   17     1    17    1.5134E+05 -2.5192E+03   1.5386E+05  0.000E+00  0.000E+00  0.000E+00  4.08114E+01  1.864E-01  2.000E+01  2.000E+04 -1.260E-01
   1   12   18     1    18    1.5386E+05 -2.4533E+03   1.5631E+05  0.000E+00  0.000E+00  0.000E+00  4.03359E+01  1.882E-01  2.000E+01  2.000E+04 -1.227E-01
   1   12   19     1    19    1.5631E+05 -3.7512E+03   1.6006E+05  0.000E+00  0.000E+00  0.000E+00  3.98609E+01  1.905E-01  2.000E+01  2.000E+04 -1.876E-01
   1   13   20     1    20    1.6006E+05 -1.5047E+03   1.6157E+05  0.000E+00  0.000E+00  0.000E+00  3.93855E+01  1.924E-01  2.000E+01  2.000E+04 -7.524E-02
   1   14   21     1    21    1.6157E+05 -2.6839E+02   1.6184E+05  0.000E+00  0.000E+00  0.000E+00  3.89089E+01  1.930E-01  2.000E+01  2.000E+04 -1.342E-02
   1   14   22     1    22    1.6184E+05  5.3196E+03   1.5652E+05  0.000E+00  0.000E+00  0.000E+00  3.84298E+01  1.912E-01  2.000E+01  2.000E+04  2.660E-01
   1    9   30     2     1    5.0000E+04 -2.5922E+03   5.2592E+04  0.000E+00  0.000E+00  0.000E+00  4.02427E+01  1.177E-01  2.000E+01  2.000E+04 -1.296E-01
   1    9   29     2     2    5.2592E+04 -2.9260E+03   5.5518E+04  0.000E+00  0.000E+00  0.000E+00  3.99964E+01  1.214E-01  2.000E+01  2.000E+04 -1.463E-01
   1    9   28     2     3    5.5518E+04 -3.3097E+03   5.8828E+04  0.000E+00  0.000E+00  0.000E+00  3.97506E+01  1.256E-01  2.000E+01  2.000E+04 -1.655E-01
   1    9   27     2     4    5.8828E+04 -5.9922E+03   6.4820E+04  0.000E+00  0.000E+00  0.000E+00  3.95066E+01  1.316E-01  2.000E+01  2.000E+04 -2.996E-01
   1   10   26     2     5    6.4820E+04 -3.5990E+03   6.8419E+04  0.000E+00  0.000E+00  0.000E+00  3.92626E+01  1.376E-01  2.000E+01  2.000E+04 -1.799E-01
   1   11   25     2     6    6.8419E+04 -2.5523E+03   7.0971E+04  0.000E+00  0.000E+00  0.000E+00  3.90164E+01  1.414E-01  2.000E+01  2.000E+04 -1.276E-01
   1   12   24     2     7    7.0971E+04 -1.7156E+03   7.2687E+04  0.000E+00  0.000E+00  0.000E+00  3.87690E+01  1.440E-01  2.000E+01  2.000E+04 -8.578E-02
   1   13   23     2     8    7.2687E+04 -9.1548E+02   7.3602E+04  0.000E+00  0.000E+00  0.000E+00  3.85206E+01  1.456E-01  2.000E+01  2.000E+04 -4.577E-02
   1   14   22     2     9    7.3602E+04  2.1202E+03   7.1482E+04  0.000E+00  0.000E+00  0.000E+00  3.82699E+01  1.449E-01  2.000E+01  2.000E+04  1.060E-01
   1   14   22     3     1    2.2800E+05 -8.1871E+03   2.3619E+05  0.000E+00  0.000E+00  0.000E+00  3.77545E+01  1.989E-01  2.000E+01  2.000E+04 -4.094E-01
   1   15   23     3     2    2.3619E+05  4.2168E+02   2.3577E+05  0.000E+00  0.000E+00  0.000E+00  3.68676E+01  2.009E-01  2.000E+01  2.000E+04  2.108E-02
   1   15   24     3     3    2.3577E+05  1.7596E+03   2.3401E+05  0.000E+00  0.000E+00  0.000E+00  3.59781E+01  2.004E-01  2.000E+01  2.000E+04  8.798E-02
   1   15   25     3     4    2.3401E+05  3.3081E+03   2.3070E+05  0.000E+00  0.000E+00  0.000E+00  3.50880E+01  1.991E-01  2.000E+01  2.000E+04  1.654E-01
   1   15   26     3     5    2.3070E+05  7.9756E+02   2.2990E+05  0.000E+00  0.000E+00  0.000E+00  3.41980E+01  1.980E-01  2.000E+01  2.000E+04  3.988E-02
   1   16   27     3     6    2.2990E+05  1.8918E+03   2.2801E+05  0.000E+00  0.000E+00  0.000E+00  3.33084E+01  1.973E-01  2.000E+01  2.000E+04  9.459E-02
   1   17   28     3     7    2.2801E+05 -6.7161E+02   2.2868E+05  0.000E+00  0.000E+00  0.000E+00  3.24192E+01  1.970E-01  2.000E+01  2.000E+04 -3.358E-02
   1   18   29     3     8    2.2868E+05 -3.8498E+03   2.3253E+05  0.000E+00  0.000E+00  0.000E+00  3.15315E+01  1.982E-01  2.000E+01  2.000E+04 -1.925E-01
   1   18   30     3     9    2.3253E+05 -4.1144E+03   2.3664E+05  0.000E+00  0.000E+00  0.000E+00  3.06447E+01  2.002E-01  2.000E+01  2.000E+04 -2.057E-01



1
              HEAD IN LAYER   1 AT END OF TIME STEP   1 IN STRESS PERIOD   11
  ---------------------------------------------------------------------------

          1      2      3      4      5      6      7      8      9     10
         11     12     13     14     15     16     17     18     19     20
         21     22     23     24     25     26     27     28     29     30
 .........................................................................
   1  ****** ****** ****** ****** ****** ****** ****** ****** ****** ******
      ****** ****** ****** ****** ****** ****** ****** ****** ****** ******
      ****** ****** ****** ****** ****** ****** ****** ****** ****** ******
   2  ****** ****** ****** ****** ****** ****** ****** ****** ****** ******
      ****** ****** ****** ****** ****** ****** ****** ****** ****** ******
      ****** ****** ****** ****** ****** ****** ****** ****** ****** ******
   3  ****** ****** ****** ****** ****** ****** ****** ****** ****** ******
      ****** ****** ****** ****** ****** ****** ****** ****** ****** ******
      ****** ****** ****** ****** ****** ****** ****** ****** ****** ******
   4  ****** ****** ****** ****** ****** ****** ****** ****** ****** ******
      ****** ****** ****** ****** ****** ****** ****** ****** ****** ******
      ****** ****** ****** ****** ****** ****** ****** ****** ****** ******
   5  ****** ****** ****** ****** ****** ****** ****** ****** ****** ******
      ****** ****** ****** ****** ****** ****** ****** ****** ****** ******
      ****** ****** ****** ****** ****** ****** ****** ****** ****** ******
   6  ****** ****** ****** ****** ****** ****** ****** ****** ****** ******
      ****** ****** ****** ****** ****** ****** ****** ****** ****** ******
      ****** ****** ****** ****** ****** ****** ****** ****** ****** ******
   7  ****** ****** ****** ****** ****** ****** ****** ****** ****** ******
      ****** ****** ****** ****** ****** ****** ****** ****** ****** ******
      ****** ****** ****** ****** ****** ****** ****** ****** ****** ******
   8  ****** ****** ****** ****** ****** ****** ****** ****** ****** ******
      ****** ****** ****** ****** ****** ****** ****** ****** ****** ******
      ****** ****** ****** ****** ****** ****** ****** ****** ****** ******
   9  ****** ****** ****** ****** ****** ****** ****** ****** ****** ******
      ****** ****** ****** ****** ****** ****** ****** ****** ****** ******
      ****** ****** ****** ****** ****** ****** ****** ****** ****** ******
  10  ****** ****** ****** ****** ****** ****** ****** ****** ****** ******
      ****** ****** ****** ****** ****** ****** ****** ****** ****** ******
      ****** ****** ****** ****** ****** ****** ****** ****** ****** ******
  11  ****** ****** ****** ****** ****** ****** ****** ****** ****** ******
      ****** ****** ****** ****** ****** ****** ****** ****** ****** ******
      ****** ****** ****** ****** ****** ****** ****** ****** ****** ******
  12  ****** ****** ****** ****** ****** ****** ****** ****** ****** ******
      ****** ****** ****** ****** ****** ****** ****** ****** ****** ******
      ****** ****** ****** ****** ****** ****** ****** ****** ****** ******
  13  ****** ****** ****** ****** ****** ****** ****** ****** ****** ******
      ****** ****** ****** ****** ****** ****** ****** ****** ****** ******
      ****** ****** ****** ****** ****** ****** ****** ****** ****** ******
  14  ****** ****** ****** ****** ****** ****** ****** ****** ****** ******
      ****** ****** ****** ****** ****** ****** ****** ****** ****** ******
      ****** ****** ****** ****** ****** ****** ****** ****** ****** ******
  15  ****** ****** ****** ****** ****** ****** ****** ****** ****** ******
      ****** ****** ****** ****** ****** ****** ****** ****** ****** ******
      ****** ****** ****** ****** ****** ****** ****** ****** ****** ******
  16  ****** ****** ****** ****** ****** ****** ****** ****** ****** ******
      ****** ****** ****** ****** ****** ****** ****** ****** ****** ******
      ****** ****** ****** ****** ****** ****** ****** ****** ****** ******
  17  ****** ****** ****** ****** ****** ****** ****** ****** ****** ******
      ****** ****** ****** ****** ****** ****** ****** ****** ****** ******
      ****** ****** ****** ****** ****** ****** ****** ****** ****** ******
  18  ****** ****** ****** ****** ****** ****** ****** ****** ****** ******
      ****** ****** ****** ****** ****** ****** ****** ****** ****** ******
      ****** ****** ****** ****** ****** ****** ****** ****** ****** ******
  19  ****** ****** ****** ****** ****** ****** ****** ****** ****** ******
      ****** ****** ****** ****** ****** ****** ****** ****** ****** ******
      ****** ****** ****** ****** ****** ****** ****** ****** ****** ******
  20  ****** ****** ****** ****** ****** ****** ****** ****** ****** ******
      ****** ****** ****** ****** ****** ****** ****** ****** ****** ******
      ****** ****** ****** ****** ****** ****** ****** ****** ****** ******
  21  ****** ****** ****** ****** ****** ****** ****** ****** ****** ******
      ****** ****** ****** ****** ****** ****** ****** ****** ****** ******
      ****** ****** ****** ****** ****** ****** ****** ****** ****** ******
  22  ****** ****** ****** ****** ****** ****** ****** ****** ****** ******
      ****** ****** ****** ****** ****** ****** ****** ****** ****** ******
      ****** ****** ****** ****** ****** ****** ****** ****** ****** ******
  23  ****** ****** ****** ****** ****** ****** ****** ****** ****** ******
      ****** ****** ****** ****** ****** ****** ****** ****** ****** ******
      ****** ****** ****** ****** ****** ****** ****** ****** ****** ******
  24  ****** ****** ****** ****** ****** ****** ****** ****** ****** ******
      ****** ****** ****** ****** ****** ****** ****** ****** ****** ******
      ****** ****** ****** ****** ****** ****** ****** ****** ****** ******
  25  ****** ****** ****** ****** ****** ****** ****** ****** ****** ******
      ****** ****** ****** ****** ****** ****** ****** ****** ****** ******
      ****** ****** ****** ****** ****** ****** ****** ****** ****** ******

 HEAD WILL BE SAVED ON UNIT   51 AT END OF TIME STEP    1, STRESS PERIOD   11
1
  VOLUMETRIC BUDGET FOR ENTIRE MODEL AT END OF TIME STEP    1, STRESS PERIOD  11
  ------------------------------------------------------------------------------

     CUMULATIVE VOLUMES      L**3       RATES FOR THIS TIME STEP      L**3/T
     ------------------                 ------------------------

           IN:                                      IN:
           ---                                      ---
             STORAGE =    24978930.5715               STORAGE =       11796.3293
       CONSTANT HEAD =   115533546.9904         CONSTANT HEAD =      123774.9393
               WELLS =           0.0000                 WELLS =           0.0000
            RECHARGE =    23901600.0000              RECHARGE =           0.0000
      STREAM LEAKAGE =    32647335.6138        STREAM LEAKAGE =       15618.5863

            TOTAL IN =   197061413.1756              TOTAL IN =      151189.8550

          OUT:                                     OUT:
          ----                                     ----
             STORAGE =     2922146.4411               STORAGE =           0.0000
       CONSTANT HEAD =           0.0000         CONSTANT HEAD =           0.0000
               WELLS =    82579573.3972                 WELLS =       48926.6868
            RECHARGE =           0.0000              RECHARGE =           0.0000
      STREAM LEAKAGE =   111559694.3207        STREAM LEAKAGE =      102263.1703

           TOTAL OUT =   197061414.1591             TOTAL OUT =      151189.8571

            IN - OUT =          -0.9835              IN - OUT =      -2.1275E-03

 PERCENT DISCREPANCY =          -0.00     PERCENT DISCREPANCY =          -0.00






         TIME SUMMARY AT END OF TIME STEP    1 IN STRESS PERIOD   11
                    SECONDS     MINUTES      HOURS       DAYS        YEARS
                    -----------------------------------------------------------
   TIME STEP LENGTH 7.86240E+06 1.31040E+05  2184.0      91.000     0.24914    
 STRESS PERIOD TIME 7.86240E+06 1.31040E+05  2184.0      91.000     0.24914    
         TOTAL TIME 8.67456E+07 1.44576E+06  24096.      1004.0      2.7488    
1
1
                            STRESS PERIOD NO.   12, LENGTH =   91.00000    
                            -----------------------------------------------

                              NUMBER OF TIME STEPS =     1

                               MULTIPLIER FOR DELT =     1.500

                            INITIAL TIME STEP SIZE =   91.00000    

 WELL NO.  LAYER   ROW   COL   STRESS RATE         
 --------------------------------------------------
      1      1     17     25     -0.3250E+05
      2      1     16     17     -0.1643E+05
      3      1     14     25       0.000    

      3 WELLS

                 RECHARGE =  1.000000E-03

 REUSING STREAM SEGMENT DATA FROM LAST STRESS PERIOD
 
 SOLVING FOR HEAD 


     6 CALLS TO PCG ROUTINE FOR TIME STEP   1 IN STRESS PERIOD   12
    23 TOTAL ITERATIONS

 OUTPUT CONTROL FOR STRESS PERIOD   12   TIME STEP    1
    SAVE BUDGET
    SAVE HEAD FOR ALL LAYERS
    PRINT HEAD FOR ALL LAYERS
 UBDSV2 SAVING "STREAMFLOW OUT  " ON UNIT  50 AT TIME STEP  1, STRESS PERIOD  12



 STREAM LISTING     PERIOD     12   STEP        1

 LAYER ROW COL. STREAM  RCH.  FLOW INTO     FLOW TO   FLOW OUT OF   OVRLND.     DIRECT     STREAM       STREAM     STREAM     STREAM   STREAMBED  STREAMBED
                SEG.NO.  NO.  STRM. RCH.    AQUIFER    STRM. RCH.    RUNOFF     PRECIP       ET          HEAD       DEPTH      WIDTH   CONDCTNC.   GRADIENT

   1   13    1     1     1    1.0000E+05 -2.8638E+03   1.0286E+05  0.000E+00  0.000E+00  0.000E+00  4.84073E+01  1.459E-01  2.000E+01  2.000E+04 -1.432E-01
   1   13    2     1     2    1.0286E+05 -4.7949E+03   1.0766E+05  0.000E+00  0.000E+00  0.000E+00  4.79333E+01  1.492E-01  2.000E+01  2.000E+04 -2.397E-01
   1   14    3     1     3    1.0766E+05 -3.8601E+03   1.1152E+05  0.000E+00  0.000E+00  0.000E+00  4.74596E+01  1.528E-01  2.000E+01  2.000E+04 -1.930E-01
   1   15    4     1     4    1.1152E+05 -3.7626E+03   1.1528E+05  0.000E+00  0.000E+00  0.000E+00  4.69855E+01  1.560E-01  2.000E+01  2.000E+04 -1.881E-01
   1   16    5     1     5    1.1528E+05 -4.0808E+03   1.1936E+05  0.000E+00  0.000E+00  0.000E+00  4.65115E+01  1.592E-01  2.000E+01  2.000E+04 -2.040E-01
   1   16    6     1     6    1.1936E+05 -3.2225E+03   1.2258E+05  0.000E+00  0.000E+00  0.000E+00  4.60372E+01  1.622E-01  2.000E+01  2.000E+04 -1.611E-01
   1   16    7     1     7    1.2258E+05 -3.2807E+03   1.2587E+05  0.000E+00  0.000E+00  0.000E+00  4.55625E+01  1.648E-01  2.000E+01  2.000E+04 -1.640E-01
   1   16    8     1     8    1.2587E+05 -3.3036E+03   1.2917E+05  0.000E+00  0.000E+00  0.000E+00  4.50878E+01  1.674E-01  2.000E+01  2.000E+04 -1.652E-01
   1   16    9     1     9    1.2917E+05 -3.2735E+03   1.3244E+05  0.000E+00  0.000E+00  0.000E+00  4.46131E+01  1.699E-01  2.000E+01  2.000E+04 -1.637E-01
   1   16   10     1    10    1.3244E+05 -3.1839E+03   1.3563E+05  0.000E+00  0.000E+00  0.000E+00  4.41384E+01  1.724E-01  2.000E+01  2.000E+04 -1.592E-01
   1   16   11     1    11    1.3563E+05 -3.0271E+03   1.3865E+05  0.000E+00  0.000E+00  0.000E+00  4.36635E+01  1.748E-01  2.000E+01  2.000E+04 -1.514E-01
   1   16   12     1    12    1.3865E+05 -3.3600E+03   1.4201E+05  0.000E+00  0.000E+00  0.000E+00  4.31886E+01  1.773E-01  2.000E+01  2.000E+04 -1.680E-01
   1   15   13     1    13    1.4201E+05 -2.6632E+03   1.4468E+05  0.000E+00  0.000E+00  0.000E+00  4.27136E+01  1.795E-01  2.000E+01  2.000E+04 -1.332E-01
   1   14   14     1    14    1.4468E+05 -2.3989E+03   1.4708E+05  0.000E+00  0.000E+00  0.000E+00  4.22383E+01  1.814E-01  2.000E+01  2.000E+04 -1.199E-01
   1   13   15     1    15    1.4708E+05 -2.8092E+03   1.4988E+05  0.000E+00  0.000E+00  0.000E+00  4.17629E+01  1.834E-01  2.000E+01  2.000E+04 -1.405E-01
   1   12   16     1    16    1.4988E+05 -4.8040E+03   1.5469E+05  0.000E+00  0.000E+00  0.000E+00  4.12884E+01  1.862E-01  2.000E+01  2.000E+04 -2.402E-01
   1   12   17     1    17    1.5469E+05 -2.6935E+03   1.5738E+05  0.000E+00  0.000E+00  0.000E+00  4.08139E+01  1.889E-01  2.000E+01  2.000E+04 -1.347E-01
   1   12   18     1    18    1.5738E+05 -2.6271E+03   1.6001E+05  0.000E+00  0.000E+00  0.000E+00  4.03386E+01  1.908E-01  2.000E+01  2.000E+04 -1.314E-01
   1   12   19     1    19    1.6001E+05 -3.9629E+03   1.6397E+05  0.000E+00  0.000E+00  0.000E+00  3.98637E+01  1.932E-01  2.000E+01  2.000E+04 -1.981E-01
   1   13   20     1    20    1.6397E+05 -1.7245E+03   1.6570E+05  0.000E+00  0.000E+00  0.000E+00  3.93884E+01  1.952E-01  2.000E+01  2.000E+04 -8.623E-02
   1   14   21     1    21    1.6570E+05 -4.6667E+02   1.6616E+05  0.000E+00  0.000E+00  0.000E+00  3.89119E+01  1.960E-01  2.000E+01  2.000E+04 -2.333E-02
   1   14   22     1    22    1.6616E+05  5.2758E+03   1.6089E+05  0.000E+00  0.000E+00  0.000E+00  3.84329E+01  1.943E-01  2.000E+01  2.000E+04  2.638E-01
   1    9   30     2     1    5.0000E+04 -2.7717E+03   5.2772E+04  0.000E+00  0.000E+00  0.000E+00  4.02428E+01  1.178E-01  2.000E+01  2.000E+04 -1.386E-01
   1    9   29     2     2    5.2772E+04 -3.1038E+03   5.5875E+04  0.000E+00  0.000E+00  0.000E+00  3.99968E+01  1.218E-01  2.000E+01  2.000E+04 -1.552E-01
   1    9   28     2     3    5.5875E+04 -3.4849E+03   5.9360E+04  0.000E+00  0.000E+00  0.000E+00  3.97512E+01  1.262E-01  2.000E+01  2.000E+04 -1.742E-01
   1    9   27     2     4    5.9360E+04 -6.2129E+03   6.5573E+04  0.000E+00  0.000E+00  0.000E+00  3.95074E+01  1.324E-01  2.000E+01  2.000E+04 -3.106E-01
   1   10   26     2     5    6.5573E+04 -3.8366E+03   6.9410E+04  0.000E+00  0.000E+00  0.000E+00  3.92637E+01  1.387E-01  2.000E+01  2.000E+04 -1.918E-01
   1   11   25     2     6    6.9410E+04 -2.7835E+03   7.2193E+04  0.000E+00  0.000E+00  0.000E+00  3.90178E+01  1.428E-01  2.000E+01  2.000E+04 -1.392E-01
   1   12   24     2     7    7.2193E+04 -1.9255E+03   7.4119E+04  0.000E+00  0.000E+00  0.000E+00  3.87706E+01  1.456E-01  2.000E+01  2.000E+04 -9.627E-02
   1   13   23     2     8    7.4119E+04 -1.0860E+03   7.5205E+04  0.000E+00  0.000E+00  0.000E+00  3.85224E+01  1.474E-01  2.000E+01  2.000E+04 -5.430E-02
   1   14   22     2     9    7.5205E+04  2.0532E+03   7.3152E+04  0.000E+00  0.000E+00  0.000E+00  3.82718E+01  1.468E-01  2.000E+01  2.000E+04  1.027E-01
   1   14   22     3     1    2.3404E+05 -8.2312E+03   2.4227E+05  0.000E+00  0.000E+00  0.000E+00  3.77576E+01  2.020E-01  2.000E+01  2.000E+04 -4.116E-01
   1   15   23     3     2    2.4227E+05  2.3560E+02   2.4203E+05  0.000E+00  0.000E+00  0.000E+00  3.68707E+01  2.041E-01  2.000E+01  2.000E+04  1.178E-02
   1   15   24     3     3    2.4203E+05  1.6145E+03   2.4042E+05  0.000E+00  0.000E+00  0.000E+00  3.59814E+01  2.036E-01  2.000E+01  2.000E+04  8.072E-02
   1   15   25     3     4    2.4042E+05  3.1584E+03   2.3726E+05  0.000E+00  0.000E+00  0.000E+00  3.50913E+01  2.024E-01  2.000E+01  2.000E+04  1.579E-01
   1   15   26     3     5    2.3726E+05  6.0219E+02   2.3666E+05  0.000E+00  0.000E+00  0.000E+00  3.42014E+01  2.014E-01  2.000E+01  2.000E+04  3.011E-02
   1   16   27     3     6    2.3666E+05  1.6566E+03   2.3500E+05  0.000E+00  0.000E+00  0.000E+00  3.33120E+01  2.008E-01  2.000E+01  2.000E+04  8.283E-02
   1   17   28     3     7    2.3500E+05 -9.0932E+02   2.3591E+05  0.000E+00  0.000E+00  0.000E+00  3.24229E+01  2.007E-01  2.000E+01  2.000E+04 -4.547E-02
   1   18   29     3     8    2.3591E+05 -4.0672E+03   2.3998E+05  0.000E+00  0.000E+00  0.000E+00  3.15353E+01  2.019E-01  2.000E+01  2.000E+04 -2.034E-01
   1   18   30     3     9    2.3998E+05 -4.2855E+03   2.4427E+05  0.000E+00  0.000E+00  0.000E+00  3.06485E+01  2.040E-01  2.000E+01  2.000E+04 -2.143E-01



1
              HEAD IN LAYER   1 AT END OF TIME STEP   1 IN STRESS PERIOD   12
  ---------------------------------------------------------------------------

          1      2      3      4      5      6      7      8      9     10
         11     12     13     14     15     16     17     18     19     20
         21     22     23     24     25     26     27     28     29     30
 .........................................................................
   1  ****** ****** ****** ****** ****** ****** ****** ****** ****** ******
      ****** ****** ****** ****** ****** ****** ****** ****** ****** ******
      ****** ****** ****** ****** ****** ****** ****** ****** ****** ******
   2  ****** ****** ****** ****** ****** ****** ****** ****** ****** ******
      ****** ****** ****** ****** ****** ****** ****** ****** ****** ******
      ****** ****** ****** ****** ****** ****** ****** ****** ****** ******
   3  ****** ****** ****** ****** ****** ****** ****** ****** ****** ******
      ****** ****** ****** ****** ****** ****** ****** ****** ****** ******
      ****** ****** ****** ****** ****** ****** ****** ****** ****** ******
   4  ****** ****** ****** ****** ****** ****** ****** ****** ****** ******
      ****** ****** ****** ****** ****** ****** ****** ****** ****** ******
      ****** ****** ****** ****** ****** ****** ****** ****** ****** ******
   5  ****** ****** ****** ****** ****** ****** ****** ****** ****** ******
      ****** ****** ****** ****** ****** ****** ****** ****** ****** ******
      ****** ****** ****** ****** ****** ****** ****** ****** ****** ******
   6  ****** ****** ****** ****** ****** ****** ****** ****** ****** ******
      ****** ****** ****** ****** ****** ****** ****** ****** ****** ******
      ****** ****** ****** ****** ****** ****** ****** ****** ****** ******
   7  ****** ****** ****** ****** ****** ****** ****** ****** ****** ******
      ****** ****** ****** ****** ****** ****** ****** ****** ****** ******
      ****** ****** ****** ****** ****** ****** ****** ****** ****** ******
   8  ****** ****** ****** ****** ****** ****** ****** ****** ****** ******
      ****** ****** ****** ****** ****** ****** ****** ****** ****** ******
      ****** ****** ****** ****** ****** ****** ****** ****** ****** ******
   9  ****** ****** ****** ****** ****** ****** ****** ****** ****** ******
      ****** ****** ****** ****** ****** ****** ****** ****** ****** ******
      ****** ****** ****** ****** ****** ****** ****** ****** ****** ******
  10  ****** ****** ****** ****** ****** ****** ****** ****** ****** ******
      ****** ****** ****** ****** ****** ****** ****** ****** ****** ******
      ****** ****** ****** ****** ****** ****** ****** ****** ****** ******
  11  ****** ****** ****** ****** ****** ****** ****** ****** ****** ******
      ****** ****** ****** ****** ****** ****** ****** ****** ****** ******
      ****** ****** ****** ****** ****** ****** ****** ****** ****** ******
  12  ****** ****** ****** ****** ****** ****** ****** ****** ****** ******
      ****** ****** ****** ****** ****** ****** ****** ****** ****** ******
      ****** ****** ****** ****** ****** ****** ****** ****** ****** ******
  13  ****** ****** ****** ****** ****** ****** ****** ****** ****** ******
      ****** ****** ****** ****** ****** ****** ****** ****** ****** ******
      ****** ****** ****** ****** ****** ****** ****** ****** ****** ******
  14  ****** ****** ****** ****** ****** ****** ****** ****** ****** ******
      ****** ****** ****** ****** ****** ****** ****** ****** ****** ******
      ****** ****** ****** ****** ****** ****** ****** ****** ****** ******
  15  ****** ****** ****** ****** ****** ****** ****** ****** ****** ******
      ****** ****** ****** ****** ****** ****** ****** ****** ****** ******
      ****** ****** ****** ****** ****** ****** ****** ****** ****** ******
  16  ****** ****** ****** ****** ****** ****** ****** ****** ****** ******
      ****** ****** ****** ****** ****** ****** ****** ****** ****** ******
      ****** ****** ****** ****** ****** ****** ****** ****** ****** ******
  17  ****** ****** ****** ****** ****** ****** ****** ****** ****** ******
      ****** ****** ****** ****** ****** ****** ****** ****** ****** ******
      ****** ****** ****** ****** ****** ****** ****** ****** ****** ******
  18  ****** ****** ****** ****** ****** ****** ****** ****** ****** ******
      ****** ****** ****** ****** ****** ****** ****** ****** ****** ******
      ****** ****** ****** ****** ****** ****** ****** ****** ****** ******
  19  ****** ****** ****** ****** ****** ****** ****** ****** ****** ******
      ****** ****** ****** ****** ****** ****** ****** ****** ****** ******
      ****** ****** ****** ****** ****** ****** ****** ****** ****** ******
  20  ****** ****** ****** ****** ****** ****** ****** ****** ****** ******
      ****** ****** ****** ****** ****** ****** ****** ****** ****** ******
      ****** ****** ****** ****** ****** ****** ****** ****** ****** ******
  21  ****** ****** ****** ****** ****** ****** ****** ****** ****** ******
      ****** ****** ****** ****** ****** ****** ****** ****** ****** ******
      ****** ****** ****** ****** ****** ****** ****** ****** ****** ******
  22  ****** ****** ****** ****** ****** ****** ****** ****** ****** ******
      ****** ****** ****** ****** ****** ****** ****** ****** ****** ******
      ****** ****** ****** ****** ****** ****** ****** ****** ****** ******
  23  ****** ****** ****** ****** ****** ****** ****** ****** ****** ******
      ****** ****** ****** ****** ****** ****** ****** ****** ****** ******
      ****** ****** ****** ****** ****** ****** ****** ****** ****** ******
  24  ****** ****** ****** ****** ****** ****** ****** ****** ****** ******
      ****** ****** ****** ****** ****** ****** ****** ****** ****** ******
      ****** ****** ****** ****** ****** ****** ****** ****** ****** ******
  25  ****** ****** ****** ****** ****** ****** ****** ****** ****** ******
      ****** ****** ****** ****** ****** ****** ****** ****** ****** ******
      ****** ****** ****** ****** ****** ****** ****** ****** ****** ******

 HEAD WILL BE SAVED ON UNIT   51 AT END OF TIME STEP    1, STRESS PERIOD   12
1
  VOLUMETRIC BUDGET FOR ENTIRE MODEL AT END OF TIME STEP    1, STRESS PERIOD  12
  ------------------------------------------------------------------------------

     CUMULATIVE VOLUMES      L**3       RATES FOR THIS TIME STEP      L**3/T
     ------------------                 ------------------------

           IN:                                      IN:
           ---                                      ---
             STORAGE =    24978930.5715               STORAGE =           0.0000
       CONSTANT HEAD =   126393712.6382         CONSTANT HEAD =      119342.4796
               WELLS =           0.0000                 WELLS =           0.0000
            RECHARGE =    26413200.0000              RECHARGE =       27600.0000
      STREAM LEAKAGE =    33975595.6852        STREAM LEAKAGE =       14596.2645

            TOTAL IN =   211761438.8948              TOTAL IN =      161538.7442

          OUT:                                     OUT:
          ----                                     ----
             STORAGE =     3263441.7309               STORAGE =        3750.4977
       CONSTANT HEAD =           0.0000         CONSTANT HEAD =           0.0000
               WELLS =    87031901.8948                 WELLS =       48926.6868
            RECHARGE =           0.0000              RECHARGE =           0.0000
      STREAM LEAKAGE =   121466096.1761        STREAM LEAKAGE =      108861.5589

           TOTAL OUT =   211761439.8018             TOTAL OUT =      161538.7433

            IN - OUT =          -0.9070              IN - OUT =       8.3980E-04

 PERCENT DISCREPANCY =          -0.00     PERCENT DISCREPANCY =           0.00






         TIME SUMMARY AT END OF TIME STEP    1 IN STRESS PERIOD   12
                    SECONDS     MINUTES      HOURS       DAYS        YEARS
                    -----------------------------------------------------------
   TIME STEP LENGTH 7.86240E+06 1.31040E+05  2184.0      91.000     0.24914    
 STRESS PERIOD TIME 7.86240E+06 1.31040E+05  2184.0      91.000     0.24914    
         TOTAL TIME 9.46080E+07 1.57680E+06  26280.      1095.0      2.9979    
1

 Run end date and time (yyyy/mm/dd hh:mm:ss): 2018/10/09 13:40:33
 Elapsed run time:  0.053 Seconds

