                                  MODFLOW-2005     
      U.S. GEOLOGICAL SURVEY MODULAR FINITE-DIFFERENCE GROUND-WATER FLOW MODEL
                            VERSION 1.11.00 8/8/2013

 LIST FILE: supply2.lst
                         UNIT   10

 OPENING ..\data\supply.dis
 FILE TYPE:DIS   UNIT   11   STATUS:OLD    
 FORMAT:FORMATTED              ACCESS:SEQUENTIAL          

 OPENING ..\data\supply.ba6
 FILE TYPE:BAS6   UNIT   12   STATUS:OLD    
 FORMAT:FORMATTED              ACCESS:SEQUENTIAL          

 OPENING ..\data\supply_het.bc6
 FILE TYPE:BCF6   UNIT   13   STATUS:OLD    
 FORMAT:FORMATTED              ACCESS:SEQUENTIAL          

 OPENING ..\data\supply.rch
 FILE TYPE:RCH   UNIT   15   STATUS:OLD    
 FORMAT:FORMATTED              ACCESS:SEQUENTIAL          

 OPENING ..\data\supply2.sfr
 FILE TYPE:SFR   UNIT   16   STATUS:OLD    
 FORMAT:FORMATTED              ACCESS:SEQUENTIAL          

 OPENING ..\data\supply.oc
 FILE TYPE:OC   UNIT   17   STATUS:OLD    
 FORMAT:FORMATTED              ACCESS:SEQUENTIAL          

 OPENING ..\data\supply.pcg
 FILE TYPE:PCG   UNIT   18   STATUS:OLD    
 FORMAT:FORMATTED              ACCESS:SEQUENTIAL          

 OPENING supply2.wel
 FILE TYPE:WEL   UNIT   19   STATUS:OLD    
 FORMAT:FORMATTED              ACCESS:SEQUENTIAL          

 OPENING supply2sf.cbc
 FILE TYPE:DATA(BINARY)   UNIT   50   STATUS:UNKNOWN
 FORMAT:BINARY                 ACCESS:SEQUENTIAL          

 OPENING supply2hd.bhd
 FILE TYPE:DATA(BINARY)   UNIT   51   STATUS:UNKNOWN
 FORMAT:BINARY                 ACCESS:SEQUENTIAL          

 BAS -- BASIC PACKAGE, VERSION 7, 5/2/2005 INPUT READ FROM UNIT   12
 
 MODFLOW was compiled using uniform precision
 Precision of REAL and DOUBLE PRECISION variables:          15

 DISCRETIZATION INPUT DATA READ FROM UNIT   11
    1 LAYERS        25 ROWS        30 COLUMNS
   12 STRESS PERIOD(S) IN SIMULATION
 MODEL TIME UNIT IS DAYS
 MODEL LENGTH UNIT IS UNDEFINED
  Confining bed flag for each layer:
   0

                     DELR =   200.000    

                     DELC =   200.000    

 TOP ELEVATION OF LAYER 1 =  100.0000    

   MODEL LAYER BOTTOM EL. =   0.00000     FOR LAYER   1


 STRESS PERIOD     LENGTH       TIME STEPS     MULTIPLIER FOR DELT    SS FLAG
 ----------------------------------------------------------------------------
        1         92.00000          1                    1.500         TR
        2         91.00000          1                    1.500         TR
        3         91.00000          1                    1.500         TR
        4         91.00000          1                    1.500         TR
        5         92.00000          1                    1.500         TR
        6         91.00000          1                    1.500         TR
        7         91.00000          1                    1.500         TR
        8         91.00000          1                    1.500         TR
        9         92.00000          1                    1.500         TR
       10         91.00000          1                    1.500         TR
       11         91.00000          1                    1.500         TR
       12         91.00000          1                    1.500         TR

 TRANSIENT SIMULATION



 
 #MODOFC transient water supply sample problem                                   
 #                                                                               
 THE FREE FORMAT OPTION HAS BEEN SELECTED



                     BOUNDARY ARRAY FOR LAYER   1
 READING ON UNIT   12 WITH FORMAT: (20I4)              

 AQUIFER HEAD WILL BE SET TO   0.0000     AT ALL NO-FLOW NODES (IBOUND=0).



                       INITIAL HEAD FOR LAYER   1
 READING ON UNIT   12 WITH FORMAT: (10F13.0)           

 OUTPUT CONTROL IS SPECIFIED ONLY AT TIME STEPS FOR WHICH OUTPUT IS DESIRED
 COMPACT CELL-BY-CELL BUDGET FILES WILL BE WRITTEN
 HEAD PRINT FORMAT CODE IS  18    DRAWDOWN PRINT FORMAT CODE IS   0
 HEADS WILL BE SAVED ON UNIT   51    DRAWDOWNS WILL BE SAVED ON UNIT    0

 BCF -- BLOCK-CENTERED FLOW PACKAGE, VERSION 7, 5/2/2005
         INPUT READ FROM UNIT 13
 TRANSIENT SIMULATION
 HEAD AT CELLS THAT CONVERT TO DRY=   0.0000    
 WETTING CAPABILITY IS NOT ACTIVE
      LAYER  LAYER-TYPE CODE     INTERBLOCK T
      --------------------------------------------
         1            0          0 -- HARMONIC    

 COLUMN TO ROW ANISOTROPY =  1.000000    

     PRIMARY STORAGE COEF =  5.000000E-02 FOR LAYER   1



               TRANSMIS. ALONG ROWS FOR LAYER   1
 READING ON UNIT   13 WITH FORMAT: (FREE)              

 WEL -- WELL PACKAGE, VERSION 7, 5/2/2005 INPUT READ FROM UNIT   19
 # Well package input file written by MMProc
 No named parameters
 MAXIMUM OF      4 ACTIVE WELLS AT ONE TIME


     0 Well parameters

 RCH -- RECHARGE PACKAGE, VERSION 7, 5/2/2005 INPUT READ FROM UNIT   15
 No named parameters
 OPTION 1 -- RECHARGE TO TOP LAYER


     0 Recharge parameters

 SFR7 -- STREAMFLOW ROUTING PACKAGE, VERSION 1.0.7, 2013-01-15
         INPUT READ FROM UNIT  16
 #  Supply2 test problem for GWM-VI
 #  The eighth entry in the first data line is ISTCB2 -
 #    Setting this to a negative number indicates that
 #    streamflows out of the reach will be saved to a
 #    binary file.  The absolute value of ISTCB2 is the
 #    unit to which unformatted flows will be written.
 #
 No named parameters
 Segment information will not be 
 read by reach
 No named parameters
 No specifed inflow files


 NUMBER OF STREAM REACHES IS   40

 NUMBER OF STREAM SEGMENTS IS    3

 NUMBER OF STREAM PARAMETERS IS    0

 NUMBER OF STREAM SEGMENTS DEFINED USING PARAMETERS IS              0

 MAXIMUM ERROR FOR STREAM LEAKAGE RATES IS  1.00E-04

 CONSTANT FOR MANNINGS EQUATION IS  1.2839E+05





   STREAM NETWORK DESCRIPTION: 

   LAYER    ROW    COL   SEGMENT   REACH     LENGTH
                          NUMBER   NUMBER    IN CELL        
   --------------------------------------------------
      1     13      1       1        1    2.0000E+02
      1     13      2       1        2    2.0000E+02
      1     14      3       1        3    2.0000E+02
      1     15      4       1        4    2.0000E+02
      1     16      5       1        5    2.0000E+02
      1     16      6       1        6    2.0000E+02
      1     16      7       1        7    2.0000E+02
      1     16      8       1        8    2.0000E+02
      1     16      9       1        9    2.0000E+02
      1     16     10       1       10    2.0000E+02
      1     16     11       1       11    2.0000E+02
      1     16     12       1       12    2.0000E+02
      1     15     13       1       13    2.0000E+02
      1     14     14       1       14    2.0000E+02
      1     13     15       1       15    2.0000E+02
      1     12     16       1       16    2.0000E+02
      1     12     17       1       17    2.0000E+02
      1     12     18       1       18    2.0000E+02
      1     12     19       1       19    2.0000E+02
      1     13     20       1       20    2.0000E+02
      1     14     21       1       21    2.0000E+02
      1     14     22       1       22    2.0000E+02
      1      9     30       2        1    2.0000E+02
      1      9     29       2        2    2.0000E+02
      1      9     28       2        3    2.0000E+02
      1      9     27       2        4    2.0000E+02
      1     10     26       2        5    2.0000E+02
      1     11     25       2        6    2.0000E+02
      1     12     24       2        7    2.0000E+02
      1     13     23       2        8    2.0000E+02
      1     14     22       2        9    2.0000E+02
      1     14     22       3        1    2.0000E+02
      1     15     23       3        2    2.0000E+02
      1     15     24       3        3    2.0000E+02
      1     15     25       3        4    2.0000E+02
      1     15     26       3        5    2.0000E+02
      1     16     27       3        6    2.0000E+02
      1     17     28       3        7    2.0000E+02
      1     18     29       3        8    2.0000E+02
      1     18     30       3        9    2.0000E+02




 PCG -- CONJUGATE-GRADIENT SOLUTION PACKAGE, VERSION 7, 5/2/2005
 MAXIMUM OF    500 CALLS OF SOLUTION ROUTINE
 MAXIMUM OF      5 INTERNAL ITERATIONS PER CALL TO SOLUTION ROUTINE
 MATRIX PRECONDITIONING TYPE :    1



                                    SOLUTION BY THE CONJUGATE-GRADIENT METHOD
                                   -------------------------------------------
                    MAXIMUM NUMBER OF CALLS TO PCG ROUTINE =      500
                        MAXIMUM ITERATIONS PER CALL TO PCG =        5
                               MATRIX PRECONDITIONING TYPE =        1
        RELAXATION FACTOR (ONLY USED WITH PRECOND. TYPE 1) =    0.10000E+01
 PARAMETER OF POLYNOMIAL PRECOND. = 2 (2) OR IS CALCULATED :        0
                         HEAD CHANGE CRITERION FOR CLOSURE =    0.10000E-05
                     RESIDUAL CHANGE CRITERION FOR CLOSURE =    0.10000E+01
            PCG HEAD AND RESIDUAL CHANGE PRINTOUT INTERVAL =        1
     PRINTING FROM SOLVER IS LIMITED(1) OR SUPPRESSED (>1) =        1
                            STEADY-STATE DAMPING PARAMETER =    0.10000E+01
                               TRANSIENT DAMPING PARAMETER =    0.10000E+01
1
                            STRESS PERIOD NO.    1, LENGTH =   92.00000    
                            -----------------------------------------------

                              NUMBER OF TIME STEPS =     1

                               MULTIPLIER FOR DELT =     1.500

                            INITIAL TIME STEP SIZE =   92.00000    

 WELL NO.  LAYER   ROW   COL   STRESS RATE         
 --------------------------------------------------
      1      1     19     29     -0.1190E+05
      2      1     13     22     -0.1207E+05
      3      1     11     24     -0.1308E+05
      4      1     17     29     -0.1500E+05

      4 WELLS

                 RECHARGE =  5.000000E-04



 CLASSIFICATION & COUNT OF STREAM SEGMENTS BASED ON SOURCE OF INFLOW:

                HEADWATER     DIVERSION     RECEIVES TRIBUTARY FLOW
                ---------     ---------     -----------------------
                     2              0               1



                    INPUT DATA FOR EACH STREAM SEGMENT
 ---------------------------------------------------------------------------------------------

 SEGMENT    SEG.     INFLOW   OVERLAND   STREAM    STREAM   ICALC  OUTFLOW  DIVERSION PRIORITY
    NO.    LENGTH     RATE     RUNOFF      ET       PPT.    METH.  TO SEG.  FROM SEG.    NO.

      1  4.400E+03 1.000E+05 0.000E+00 0.000E+00 0.000E+00    1        3        0        0
      2  1.800E+03 5.000E+04 0.000E+00 0.000E+00 0.000E+00    1        3        0        0
      3  1.800E+03 0.000E+00 0.000E+00 0.000E+00 0.000E+00    1        0        0        0


         STREAMBED PROPERTIES AND STREAM DIMENSIONS

 SEGMENT     BED HYD. COND.      BED THICKNESS     ELEV.-TOP OF BED     WIDTH OF STREAM     DEPTH OF STREAM    STREAM ROUGHNESS
    No.     UPPER     LOWER     UPPER     LOWER     UPPER     LOWER     UPPER     LOWER     UPPER     LOWER   CHANNEL      BANK

     1  5.000E+00 5.000E+00 1.000E+00 1.000E+00 4.850E+01 3.800E+01 2.000E+01 2.000E+01                     5.000E-02
     2  5.000E+00 5.000E+00 1.000E+00 1.000E+00 4.025E+01 3.800E+01 2.000E+01 2.000E+01                     5.000E-02
     3  5.000E+00 5.000E+00 1.000E+00 1.000E+00 3.800E+01 3.000E+01 2.000E+01 2.000E+01                     5.000E-02



 
 SOLVING FOR HEAD 


     9 CALLS TO PCG ROUTINE FOR TIME STEP   1 IN STRESS PERIOD    1
    36 TOTAL ITERATIONS

 OUTPUT CONTROL FOR STRESS PERIOD    1   TIME STEP    1
    SAVE BUDGET
    SAVE HEAD FOR ALL LAYERS
    PRINT HEAD FOR ALL LAYERS
 UBDSV2 SAVING "STREAMFLOW OUT  " ON UNIT  50 AT TIME STEP  1, STRESS PERIOD   1



 STREAM LISTING     PERIOD      1   STEP        1

 LAYER ROW COL. STREAM  RCH.  FLOW INTO     FLOW TO   FLOW OUT OF   OVRLND.     DIRECT     STREAM       STREAM     STREAM     STREAM   STREAMBED  STREAMBED
                SEG.NO.  NO.  STRM. RCH.    AQUIFER    STRM. RCH.    RUNOFF     PRECIP       ET          HEAD       DEPTH      WIDTH   CONDCTNC.   GRADIENT

   1   13    1     1     1    1.0000E+05 -6.1243E+03   1.0612E+05  0.000E+00  0.000E+00  0.000E+00  4.84087E+01  1.473E-01  2.000E+01  2.000E+04 -3.062E-01
   1   13    2     1     2    1.0612E+05 -7.5940E+03   1.1372E+05  0.000E+00  0.000E+00  0.000E+00  4.79372E+01  1.531E-01  2.000E+01  2.000E+04 -3.797E-01
   1   14    3     1     3    1.1372E+05 -2.1992E+03   1.1592E+05  0.000E+00  0.000E+00  0.000E+00  4.74640E+01  1.572E-01  2.000E+01  2.000E+04 -1.100E-01
   1   15    4     1     4    1.1592E+05 -2.2705E+03   1.1819E+05  0.000E+00  0.000E+00  0.000E+00  4.69885E+01  1.590E-01  2.000E+01  2.000E+04 -1.135E-01
   1   16    5     1     5    1.1819E+05 -7.1867E+03   1.2537E+05  0.000E+00  0.000E+00  0.000E+00  4.65151E+01  1.628E-01  2.000E+01  2.000E+04 -3.593E-01
   1   16    6     1     6    1.2537E+05 -4.3050E+03   1.2968E+05  0.000E+00  0.000E+00  0.000E+00  4.60424E+01  1.674E-01  2.000E+01  2.000E+04 -2.152E-01
   1   16    7     1     7    1.2968E+05 -4.1402E+03   1.3382E+05  0.000E+00  0.000E+00  0.000E+00  4.55684E+01  1.707E-01  2.000E+01  2.000E+04 -2.070E-01
   1   16    8     1     8    1.3382E+05 -4.1000E+03   1.3792E+05  0.000E+00  0.000E+00  0.000E+00  4.50943E+01  1.739E-01  2.000E+01  2.000E+04 -2.050E-01
   1   16    9     1     9    1.3792E+05 -4.0901E+03   1.4201E+05  0.000E+00  0.000E+00  0.000E+00  4.46202E+01  1.770E-01  2.000E+01  2.000E+04 -2.045E-01
   1   16   10     1    10    1.4201E+05 -4.0885E+03   1.4610E+05  0.000E+00  0.000E+00  0.000E+00  4.41460E+01  1.801E-01  2.000E+01  2.000E+04 -2.044E-01
   1   16   11     1    11    1.4610E+05 -4.1258E+03   1.5022E+05  0.000E+00  0.000E+00  0.000E+00  4.36718E+01  1.831E-01  2.000E+01  2.000E+04 -2.063E-01
   1   16   12     1    12    1.5022E+05 -7.0164E+03   1.5724E+05  0.000E+00  0.000E+00  0.000E+00  4.31986E+01  1.872E-01  2.000E+01  2.000E+04 -3.508E-01
   1   15   13     1    13    1.5724E+05 -7.3408E+03   1.6458E+05  0.000E+00  0.000E+00  0.000E+00  4.27265E+01  1.924E-01  2.000E+01  2.000E+04 -3.670E-01
   1   14   14     1    14    1.6458E+05 -7.8429E+03   1.7242E+05  0.000E+00  0.000E+00  0.000E+00  4.22546E+01  1.978E-01  2.000E+01  2.000E+04 -3.921E-01
   1   13   15     1    15    1.7242E+05 -8.1889E+03   1.8061E+05  0.000E+00  0.000E+00  0.000E+00  4.17830E+01  2.034E-01  2.000E+01  2.000E+04 -4.094E-01
   1   12   16     1    16    1.8061E+05 -8.8266E+03   1.8944E+05  0.000E+00  0.000E+00  0.000E+00  4.13115E+01  2.092E-01  2.000E+01  2.000E+04 -4.413E-01
   1   12   17     1    17    1.8944E+05 -6.2418E+03   1.9568E+05  0.000E+00  0.000E+00  0.000E+00  4.08393E+01  2.143E-01  2.000E+01  2.000E+04 -3.121E-01
   1   12   18     1    18    1.9568E+05 -6.0101E+03   2.0169E+05  0.000E+00  0.000E+00  0.000E+00  4.03661E+01  2.184E-01  2.000E+01  2.000E+04 -3.005E-01
   1   12   19     1    19    2.0169E+05 -7.0078E+03   2.0870E+05  0.000E+00  0.000E+00  0.000E+00  3.98931E+01  2.227E-01  2.000E+01  2.000E+04 -3.504E-01
   1   13   20     1    20    2.0870E+05 -4.8813E+03   2.1358E+05  0.000E+00  0.000E+00  0.000E+00  3.94197E+01  2.265E-01  2.000E+01  2.000E+04 -2.441E-01
   1   14   21     1    21    2.1358E+05 -4.8765E+03   2.1846E+05  0.000E+00  0.000E+00  0.000E+00  3.89455E+01  2.296E-01  2.000E+01  2.000E+04 -2.438E-01
   1   14   22     1    22    2.1846E+05  5.4088E+03   2.1305E+05  0.000E+00  0.000E+00  0.000E+00  3.84681E+01  2.295E-01  2.000E+01  2.000E+04  2.704E-01
   1    9   30     2     1    5.0000E+04 -4.6793E+03   5.4679E+04  0.000E+00  0.000E+00  0.000E+00  4.02441E+01  1.191E-01  2.000E+01  2.000E+04 -2.340E-01
   1    9   29     2     2    5.4679E+04 -4.9786E+03   5.9658E+04  0.000E+00  0.000E+00  0.000E+00  4.00006E+01  1.256E-01  2.000E+01  2.000E+04 -2.489E-01
   1    9   28     2     3    5.9658E+04 -5.2621E+03   6.4920E+04  0.000E+00  0.000E+00  0.000E+00  3.97572E+01  1.322E-01  2.000E+01  2.000E+04 -2.631E-01
   1    9   27     2     4    6.4920E+04 -7.9240E+03   7.2844E+04  0.000E+00  0.000E+00  0.000E+00  3.95154E+01  1.404E-01  2.000E+01  2.000E+04 -3.962E-01
   1   10   26     2     5    7.2844E+04 -6.3828E+03   7.9227E+04  0.000E+00  0.000E+00  0.000E+00  3.92740E+01  1.490E-01  2.000E+01  2.000E+04 -3.191E-01
   1   11   25     2     6    7.9227E+04 -2.0578E+03   8.1285E+04  0.000E+00  0.000E+00  0.000E+00  3.90289E+01  1.539E-01  2.000E+01  2.000E+04 -1.029E-01
   1   12   24     2     7    8.1285E+04 -8.0561E+02   8.2090E+04  0.000E+00  0.000E+00  0.000E+00  3.87805E+01  1.555E-01  2.000E+01  2.000E+04 -4.028E-02
   1   13   23     2     8    8.2090E+04 -4.8670E+02   8.2577E+04  0.000E+00  0.000E+00  0.000E+00  3.85313E+01  1.563E-01  2.000E+01  2.000E+04 -2.433E-02
   1   14   22     2     9    8.2577E+04  1.6593E+03   8.0918E+04  0.000E+00  0.000E+00  0.000E+00  3.82806E+01  1.556E-01  2.000E+01  2.000E+04  8.297E-02
   1   14   22     3     1    2.9397E+05 -8.2189E+03   3.0218E+05  0.000E+00  0.000E+00  0.000E+00  3.77867E+01  2.312E-01  2.000E+01  2.000E+04 -4.109E-01
   1   15   23     3     2    3.0218E+05 -1.9738E+03   3.0416E+05  0.000E+00  0.000E+00  0.000E+00  3.69002E+01  2.335E-01  2.000E+01  2.000E+04 -9.869E-02
   1   15   24     3     3    3.0416E+05 -1.5210E+03   3.0568E+05  0.000E+00  0.000E+00  0.000E+00  3.60121E+01  2.343E-01  2.000E+01  2.000E+04 -7.605E-02
   1   15   25     3     4    3.0568E+05 -1.5660E+03   3.0725E+05  0.000E+00  0.000E+00  0.000E+00  3.51239E+01  2.350E-01  2.000E+01  2.000E+04 -7.830E-02
   1   15   26     3     5    3.0725E+05 -1.8102E+03   3.0906E+05  0.000E+00  0.000E+00  0.000E+00  3.42358E+01  2.358E-01  2.000E+01  2.000E+04 -9.051E-02
   1   16   27     3     6    3.0906E+05 -1.8777E+03   3.1093E+05  0.000E+00  0.000E+00  0.000E+00  3.33478E+01  2.367E-01  2.000E+01  2.000E+04 -9.389E-02
   1   17   28     3     7    3.1093E+05  6.3042E+01   3.1087E+05  0.000E+00  0.000E+00  0.000E+00  3.24593E+01  2.371E-01  2.000E+01  2.000E+04  3.152E-03
   1   18   29     3     8    3.1087E+05  2.0766E+03   3.0879E+05  0.000E+00  0.000E+00  0.000E+00  3.15699E+01  2.366E-01  2.000E+01  2.000E+04  1.038E-01
   1   18   30     3     9    3.0879E+05 -2.4344E+03   3.1123E+05  0.000E+00  0.000E+00  0.000E+00  3.06811E+01  2.367E-01  2.000E+01  2.000E+04 -1.217E-01



1
              HEAD IN LAYER   1 AT END OF TIME STEP   1 IN STRESS PERIOD    1
  ---------------------------------------------------------------------------

          1      2      3      4      5      6      7      8      9     10
         11     12     13     14     15     16     17     18     19     20
         21     22     23     24     25     26     27     28     29     30
 .........................................................................
   1  ****** ****** ****** ****** ****** ****** ****** ****** ****** ******
      ****** ****** ****** ****** ****** ****** ****** ****** ****** ******
      ****** ****** ****** ****** ****** ****** ****** ****** ****** ******
   2  ****** ****** ****** ****** ****** ****** ****** ****** ****** ******
      ****** ****** ****** ****** ****** ****** ****** ****** ****** ******
      ****** ****** ****** ****** ****** ****** ****** ****** ****** ******
   3  ****** ****** ****** ****** ****** ****** ****** ****** ****** ******
      ****** ****** ****** ****** ****** ****** ****** ****** ****** ******
      ****** ****** ****** ****** ****** ****** ****** ****** ****** ******
   4  ****** ****** ****** ****** ****** ****** ****** ****** ****** ******
      ****** ****** ****** ****** ****** ****** ****** ****** ****** ******
      ****** ****** ****** ****** ****** ****** ****** ****** ****** ******
   5  ****** ****** ****** ****** ****** ****** ****** ****** ****** ******
      ****** ****** ****** ****** ****** ****** ****** ****** ****** ******
      ****** ****** ****** ****** ****** ****** ****** ****** ****** ******
   6  ****** ****** ****** ****** ****** ****** ****** ****** ****** ******
      ****** ****** ****** ****** ****** ****** ****** ****** ****** ******
      ****** ****** ****** ****** ****** ****** ****** ****** ****** ******
   7  ****** ****** ****** ****** ****** ****** ****** ****** ****** ******
      ****** ****** ****** ****** ****** ****** ****** ****** ****** ******
      ****** ****** ****** ****** ****** ****** ****** ****** ****** ******
   8  ****** ****** ****** ****** ****** ****** ****** ****** ****** ******
      ****** ****** ****** ****** ****** ****** ****** ****** ****** ******
      ****** ****** ****** ****** ****** ****** ****** ****** ****** ******
   9  ****** ****** ****** ****** ****** ****** ****** ****** ****** ******
      ****** ****** ****** ****** ****** ****** ****** ****** ****** ******
      ****** ****** ****** ****** ****** ****** ****** ****** ****** ******
  10  ****** ****** ****** ****** ****** ****** ****** ****** ****** ******
      ****** ****** ****** ****** ****** ****** ****** ****** ****** ******
      ****** ****** ****** ****** ****** ****** ****** ****** ****** ******
  11  ****** ****** ****** ****** ****** ****** ****** ****** ****** ******
      ****** ****** ****** ****** ****** ****** ****** ****** ****** ******
      ****** ****** ****** ****** ****** ****** ****** ****** ****** ******
  12  ****** ****** ****** ****** ****** ****** ****** ****** ****** ******
      ****** ****** ****** ****** ****** ****** ****** ****** ****** ******
      ****** ****** ****** ****** ****** ****** ****** ****** ****** ******
  13  ****** ****** ****** ****** ****** ****** ****** ****** ****** ******
      ****** ****** ****** ****** ****** ****** ****** ****** ****** ******
      ****** ****** ****** ****** ****** ****** ****** ****** ****** ******
  14  ****** ****** ****** ****** ****** ****** ****** ****** ****** ******
      ****** ****** ****** ****** ****** ****** ****** ****** ****** ******
      ****** ****** ****** ****** ****** ****** ****** ****** ****** ******
  15  ****** ****** ****** ****** ****** ****** ****** ****** ****** ******
      ****** ****** ****** ****** ****** ****** ****** ****** ****** ******
      ****** ****** ****** ****** ****** ****** ****** ****** ****** ******
  16  ****** ****** ****** ****** ****** ****** ****** ****** ****** ******
      ****** ****** ****** ****** ****** ****** ****** ****** ****** ******
      ****** ****** ****** ****** ****** ****** ****** ****** ****** ******
  17  ****** ****** ****** ****** ****** ****** ****** ****** ****** ******
      ****** ****** ****** ****** ****** ****** ****** ****** ****** ******
      ****** ****** ****** ****** ****** ****** ****** ****** ****** ******
  18  ****** ****** ****** ****** ****** ****** ****** ****** ****** ******
      ****** ****** ****** ****** ****** ****** ****** ****** ****** ******
      ****** ****** ****** ****** ****** ****** ****** ****** ****** ******
  19  ****** ****** ****** ****** ****** ****** ****** ****** ****** ******
      ****** ****** ****** ****** ****** ****** ****** ****** ****** ******
      ****** ****** ****** ****** ****** ****** ****** ****** ****** ******
  20  ****** ****** ****** ****** ****** ****** ****** ****** ****** ******
      ****** ****** ****** ****** ****** ****** ****** ****** ****** ******
      ****** ****** ****** ****** ****** ****** ****** ****** ****** ******
  21  ****** ****** ****** ****** ****** ****** ****** ****** ****** ******
      ****** ****** ****** ****** ****** ****** ****** ****** ****** ******
      ****** ****** ****** ****** ****** ****** ****** ****** ****** ******
  22  ****** ****** ****** ****** ****** ****** ****** ****** ****** ******
      ****** ****** ****** ****** ****** ****** ****** ****** ****** ******
      ****** ****** ****** ****** ****** ****** ****** ****** ****** ******
  23  ****** ****** ****** ****** ****** ****** ****** ****** ****** ******
      ****** ****** ****** ****** ****** ****** ****** ****** ****** ******
      ****** ****** ****** ****** ****** ****** ****** ****** ****** ******
  24  ****** ****** ****** ****** ****** ****** ****** ****** ****** ******
      ****** ****** ****** ****** ****** ****** ****** ****** ****** ******
      ****** ****** ****** ****** ****** ****** ****** ****** ****** ******
  25  ****** ****** ****** ****** ****** ****** ****** ****** ****** ******
      ****** ****** ****** ****** ****** ****** ****** ****** ****** ******
      ****** ****** ****** ****** ****** ****** ****** ****** ****** ******

 HEAD WILL BE SAVED ON UNIT   51 AT END OF TIME STEP    1, STRESS PERIOD    1
1
  VOLUMETRIC BUDGET FOR ENTIRE MODEL AT END OF TIME STEP    1, STRESS PERIOD   1
  ------------------------------------------------------------------------------

     CUMULATIVE VOLUMES      L**3       RATES FOR THIS TIME STEP      L**3/T
     ------------------                 ------------------------

           IN:                                      IN:
           ---                                      ---
             STORAGE =    17233327.5783               STORAGE =      187318.7780
       CONSTANT HEAD =     1118611.9337         CONSTANT HEAD =       12158.8254
               WELLS =           0.0000                 WELLS =           0.0000
            RECHARGE =     1269600.0000              RECHARGE =       13800.0000
      STREAM LEAKAGE =      847113.8751        STREAM LEAKAGE =        9207.7595

            TOTAL IN =    20468653.3871              TOTAL IN =      222485.3629

          OUT:                                     OUT:
          ----                                     ----
             STORAGE =           0.0000               STORAGE =           0.0000
       CONSTANT HEAD =           0.0000         CONSTANT HEAD =           0.0000
               WELLS =     4788529.3110                 WELLS =       52049.2316
            RECHARGE =           0.0000              RECHARGE =           0.0000
      STREAM LEAKAGE =    15680124.3645        STREAM LEAKAGE =      170436.1344

           TOTAL OUT =    20468653.6755             TOTAL OUT =      222485.3660

            IN - OUT =          -0.2884              IN - OUT =      -3.1350E-03

 PERCENT DISCREPANCY =          -0.00     PERCENT DISCREPANCY =          -0.00






         TIME SUMMARY AT END OF TIME STEP    1 IN STRESS PERIOD    1
                    SECONDS     MINUTES      HOURS       DAYS        YEARS
                    -----------------------------------------------------------
   TIME STEP LENGTH 7.94880E+06 1.32480E+05  2208.0      92.000     0.25188    
 STRESS PERIOD TIME 7.94880E+06 1.32480E+05  2208.0      92.000     0.25188    
         TOTAL TIME 7.94880E+06 1.32480E+05  2208.0      92.000     0.25188    
1
1
                            STRESS PERIOD NO.    2, LENGTH =   91.00000    
                            -----------------------------------------------

                              NUMBER OF TIME STEPS =     1

                               MULTIPLIER FOR DELT =     1.500

                            INITIAL TIME STEP SIZE =   91.00000    

 WELL NO.  LAYER   ROW   COL   STRESS RATE         
 --------------------------------------------------
      1      1     19     29     -0.1190E+05
      2      1     13     22     -0.1207E+05
      3      1     11     24     -0.1308E+05
      4      1     17     29     -0.1500E+05

      4 WELLS

                 RECHARGE =  2.000000E-03

 REUSING STREAM SEGMENT DATA FROM LAST STRESS PERIOD
 
 SOLVING FOR HEAD 


     7 CALLS TO PCG ROUTINE FOR TIME STEP   1 IN STRESS PERIOD    2
    27 TOTAL ITERATIONS

 OUTPUT CONTROL FOR STRESS PERIOD    2   TIME STEP    1
    SAVE BUDGET
    SAVE HEAD FOR ALL LAYERS
    PRINT HEAD FOR ALL LAYERS
 UBDSV2 SAVING "STREAMFLOW OUT  " ON UNIT  50 AT TIME STEP  1, STRESS PERIOD   2



 STREAM LISTING     PERIOD      2   STEP        1

 LAYER ROW COL. STREAM  RCH.  FLOW INTO     FLOW TO   FLOW OUT OF   OVRLND.     DIRECT     STREAM       STREAM     STREAM     STREAM   STREAMBED  STREAMBED
                SEG.NO.  NO.  STRM. RCH.    AQUIFER    STRM. RCH.    RUNOFF     PRECIP       ET          HEAD       DEPTH      WIDTH   CONDCTNC.   GRADIENT

   1   13    1     1     1    1.0000E+05 -4.0151E+03   1.0402E+05  0.000E+00  0.000E+00  0.000E+00  4.84078E+01  1.464E-01  2.000E+01  2.000E+04 -2.008E-01
   1   13    2     1     2    1.0402E+05 -5.2777E+03   1.0929E+05  0.000E+00  0.000E+00  0.000E+00  4.79344E+01  1.504E-01  2.000E+01  2.000E+04 -2.639E-01
   1   14    3     1     3    1.0929E+05 -1.1171E+03   1.1041E+05  0.000E+00  0.000E+00  0.000E+00  4.74599E+01  1.530E-01  2.000E+01  2.000E+04 -5.586E-02
   1   15    4     1     4    1.1041E+05 -1.1450E+03   1.1155E+05  0.000E+00  0.000E+00  0.000E+00  4.69835E+01  1.540E-01  2.000E+01  2.000E+04 -5.725E-02
   1   16    5     1     5    1.1155E+05 -4.2590E+03   1.1581E+05  0.000E+00  0.000E+00  0.000E+00  4.65085E+01  1.562E-01  2.000E+01  2.000E+04 -2.130E-01
   1   16    6     1     6    1.1581E+05 -2.5117E+03   1.1833E+05  0.000E+00  0.000E+00  0.000E+00  4.60340E+01  1.590E-01  2.000E+01  2.000E+04 -1.256E-01
   1   16    7     1     7    1.1833E+05 -2.4183E+03   1.2074E+05  0.000E+00  0.000E+00  0.000E+00  4.55587E+01  1.610E-01  2.000E+01  2.000E+04 -1.209E-01
   1   16    8     1     8    1.2074E+05 -2.3903E+03   1.2313E+05  0.000E+00  0.000E+00  0.000E+00  4.50834E+01  1.629E-01  2.000E+01  2.000E+04 -1.195E-01
   1   16    9     1     9    1.2313E+05 -2.3711E+03   1.2551E+05  0.000E+00  0.000E+00  0.000E+00  4.46080E+01  1.648E-01  2.000E+01  2.000E+04 -1.186E-01
   1   16   10     1    10    1.2551E+05 -2.3487E+03   1.2785E+05  0.000E+00  0.000E+00  0.000E+00  4.41326E+01  1.667E-01  2.000E+01  2.000E+04 -1.174E-01
   1   16   11     1    11    1.2785E+05 -2.3576E+03   1.3021E+05  0.000E+00  0.000E+00  0.000E+00  4.36572E+01  1.686E-01  2.000E+01  2.000E+04 -1.179E-01
   1   16   12     1    12    1.3021E+05 -4.1547E+03   1.3437E+05  0.000E+00  0.000E+00  0.000E+00  4.31825E+01  1.711E-01  2.000E+01  2.000E+04 -2.077E-01
   1   15   13     1    13    1.3437E+05 -4.1439E+03   1.3851E+05  0.000E+00  0.000E+00  0.000E+00  4.27084E+01  1.743E-01  2.000E+01  2.000E+04 -2.072E-01
   1   14   14     1    14    1.3851E+05 -4.5383E+03   1.4305E+05  0.000E+00  0.000E+00  0.000E+00  4.22344E+01  1.776E-01  2.000E+01  2.000E+04 -2.269E-01
   1   13   15     1    15    1.4305E+05 -4.8975E+03   1.4795E+05  0.000E+00  0.000E+00  0.000E+00  4.17607E+01  1.811E-01  2.000E+01  2.000E+04 -2.449E-01
   1   12   16     1    16    1.4795E+05 -5.7327E+03   1.5368E+05  0.000E+00  0.000E+00  0.000E+00  4.12874E+01  1.851E-01  2.000E+01  2.000E+04 -2.866E-01
   1   12   17     1    17    1.5368E+05 -3.7707E+03   1.5745E+05  0.000E+00  0.000E+00  0.000E+00  4.08136E+01  1.886E-01  2.000E+01  2.000E+04 -1.885E-01
   1   12   18     1    18    1.5745E+05 -3.5174E+03   1.6097E+05  0.000E+00  0.000E+00  0.000E+00  4.03389E+01  1.912E-01  2.000E+01  2.000E+04 -1.759E-01
   1   12   19     1    19    1.6097E+05 -3.8262E+03   1.6479E+05  0.000E+00  0.000E+00  0.000E+00  3.98643E+01  1.938E-01  2.000E+01  2.000E+04 -1.913E-01
   1   13   20     1    20    1.6479E+05 -1.6630E+03   1.6646E+05  0.000E+00  0.000E+00  0.000E+00  3.93890E+01  1.958E-01  2.000E+01  2.000E+04 -8.315E-02
   1   14   21     1    21    1.6646E+05 -2.0825E+03   1.6854E+05  0.000E+00  0.000E+00  0.000E+00  3.89130E+01  1.971E-01  2.000E+01  2.000E+04 -1.041E-01
   1   14   22     1    22    1.6854E+05  6.2383E+03   1.6230E+05  0.000E+00  0.000E+00  0.000E+00  3.84343E+01  1.956E-01  2.000E+01  2.000E+04  3.119E-01
   1    9   30     2     1    5.0000E+04 -1.8967E+03   5.1897E+04  0.000E+00  0.000E+00  0.000E+00  4.02422E+01  1.172E-01  2.000E+01  2.000E+04 -9.483E-02
   1    9   29     2     2    5.1897E+04 -2.2125E+03   5.4109E+04  0.000E+00  0.000E+00  0.000E+00  3.99950E+01  1.200E-01  2.000E+01  2.000E+04 -1.106E-01
   1    9   28     2     3    5.4109E+04 -2.5183E+03   5.6628E+04  0.000E+00  0.000E+00  0.000E+00  3.97482E+01  1.232E-01  2.000E+01  2.000E+04 -1.259E-01
   1    9   27     2     4    5.6628E+04 -4.3870E+03   6.1014E+04  0.000E+00  0.000E+00  0.000E+00  3.95027E+01  1.277E-01  2.000E+01  2.000E+04 -2.193E-01
   1   10   26     2     5    6.1014E+04 -2.6501E+03   6.3665E+04  0.000E+00  0.000E+00  0.000E+00  3.92573E+01  1.323E-01  2.000E+01  2.000E+04 -1.325E-01
   1   11   25     2     6    6.3665E+04  1.5985E+03   6.2066E+04  0.000E+00  0.000E+00  0.000E+00  3.90079E+01  1.329E-01  2.000E+01  2.000E+04  7.992E-02
   1   12   24     2     7    6.2066E+04  2.5308E+03   5.9535E+04  0.000E+00  0.000E+00  0.000E+00  3.87553E+01  1.303E-01  2.000E+01  2.000E+04  1.265E-01
   1   13   23     2     8    5.9535E+04  6.0539E+02   5.8930E+04  0.000E+00  0.000E+00  0.000E+00  3.85033E+01  1.283E-01  2.000E+01  2.000E+04  3.027E-02
   1   14   22     2     9    5.8930E+04  2.5764E+03   5.6354E+04  0.000E+00  0.000E+00  0.000E+00  3.82512E+01  1.262E-01  2.000E+01  2.000E+04  1.288E-01
   1   14   22     3     1    2.1865E+05 -7.4584E+03   2.2611E+05  0.000E+00  0.000E+00  0.000E+00  3.77494E+01  1.939E-01  2.000E+01  2.000E+04 -3.729E-01
   1   15   23     3     2    2.2611E+05 -1.0288E+03   2.2714E+05  0.000E+00  0.000E+00  0.000E+00  3.68628E+01  1.961E-01  2.000E+01  2.000E+04 -5.144E-02
   1   15   24     3     3    2.2714E+05 -6.4761E+02   2.2779E+05  0.000E+00  0.000E+00  0.000E+00  3.59743E+01  1.965E-01  2.000E+01  2.000E+04 -3.238E-02
   1   15   25     3     4    2.2779E+05 -6.4598E+02   2.2843E+05  0.000E+00  0.000E+00  0.000E+00  3.50858E+01  1.969E-01  2.000E+01  2.000E+04 -3.230E-02
   1   15   26     3     5    2.2843E+05 -6.6863E+02   2.2910E+05  0.000E+00  0.000E+00  0.000E+00  3.41972E+01  1.972E-01  2.000E+01  2.000E+04 -3.343E-02
   1   16   27     3     6    2.2910E+05 -5.4833E+02   2.2965E+05  0.000E+00  0.000E+00  0.000E+00  3.33086E+01  1.975E-01  2.000E+01  2.000E+04 -2.742E-02
   1   17   28     3     7    2.2965E+05  3.8646E+03   2.2579E+05  0.000E+00  0.000E+00  0.000E+00  3.24189E+01  1.967E-01  2.000E+01  2.000E+04  1.932E-01
   1   18   29     3     8    2.2579E+05  5.6710E+03   2.2012E+05  0.000E+00  0.000E+00  0.000E+00  3.15275E+01  1.942E-01  2.000E+01  2.000E+04  2.835E-01
   1   18   30     3     9    2.2012E+05  5.5005E+02   2.1957E+05  0.000E+00  0.000E+00  0.000E+00  3.06370E+01  1.926E-01  2.000E+01  2.000E+04  2.750E-02



1
              HEAD IN LAYER   1 AT END OF TIME STEP   1 IN STRESS PERIOD    2
  ---------------------------------------------------------------------------

          1      2      3      4      5      6      7      8      9     10
         11     12     13     14     15     16     17     18     19     20
         21     22     23     24     25     26     27     28     29     30
 .........................................................................
   1  ****** ****** ****** ****** ****** ****** ****** ****** ****** ******
      ****** ****** ****** ****** ****** ****** ****** ****** ****** ******
      ****** ****** ****** ****** ****** ****** ****** ****** ****** ******
   2  ****** ****** ****** ****** ****** ****** ****** ****** ****** ******
      ****** ****** ****** ****** ****** ****** ****** ****** ****** ******
      ****** ****** ****** ****** ****** ****** ****** ****** ****** ******
   3  ****** ****** ****** ****** ****** ****** ****** ****** ****** ******
      ****** ****** ****** ****** ****** ****** ****** ****** ****** ******
      ****** ****** ****** ****** ****** ****** ****** ****** ****** ******
   4  ****** ****** ****** ****** ****** ****** ****** ****** ****** ******
      ****** ****** ****** ****** ****** ****** ****** ****** ****** ******
      ****** ****** ****** ****** ****** ****** ****** ****** ****** ******
   5  ****** ****** ****** ****** ****** ****** ****** ****** ****** ******
      ****** ****** ****** ****** ****** ****** ****** ****** ****** ******
      ****** ****** ****** ****** ****** ****** ****** ****** ****** ******
   6  ****** ****** ****** ****** ****** ****** ****** ****** ****** ******
      ****** ****** ****** ****** ****** ****** ****** ****** ****** ******
      ****** ****** ****** ****** ****** ****** ****** ****** ****** ******
   7  ****** ****** ****** ****** ****** ****** ****** ****** ****** ******
      ****** ****** ****** ****** ****** ****** ****** ****** ****** ******
      ****** ****** ****** ****** ****** ****** ****** ****** ****** ******
   8  ****** ****** ****** ****** ****** ****** ****** ****** ****** ******
      ****** ****** ****** ****** ****** ****** ****** ****** ****** ******
      ****** ****** ****** ****** ****** ****** ****** ****** ****** ******
   9  ****** ****** ****** ****** ****** ****** ****** ****** ****** ******
      ****** ****** ****** ****** ****** ****** ****** ****** ****** ******
      ****** ****** ****** ****** ****** ****** ****** ****** ****** ******
  10  ****** ****** ****** ****** ****** ****** ****** ****** ****** ******
      ****** ****** ****** ****** ****** ****** ****** ****** ****** ******
      ****** ****** ****** ****** ****** ****** ****** ****** ****** ******
  11  ****** ****** ****** ****** ****** ****** ****** ****** ****** ******
      ****** ****** ****** ****** ****** ****** ****** ****** ****** ******
      ****** ****** ****** ****** ****** ****** ****** ****** ****** ******
  12  ****** ****** ****** ****** ****** ****** ****** ****** ****** ******
      ****** ****** ****** ****** ****** ****** ****** ****** ****** ******
      ****** ****** ****** ****** ****** ****** ****** ****** ****** ******
  13  ****** ****** ****** ****** ****** ****** ****** ****** ****** ******
      ****** ****** ****** ****** ****** ****** ****** ****** ****** ******
      ****** ****** ****** ****** ****** ****** ****** ****** ****** ******
  14  ****** ****** ****** ****** ****** ****** ****** ****** ****** ******
      ****** ****** ****** ****** ****** ****** ****** ****** ****** ******
      ****** ****** ****** ****** ****** ****** ****** ****** ****** ******
  15  ****** ****** ****** ****** ****** ****** ****** ****** ****** ******
      ****** ****** ****** ****** ****** ****** ****** ****** ****** ******
      ****** ****** ****** ****** ****** ****** ****** ****** ****** ******
  16  ****** ****** ****** ****** ****** ****** ****** ****** ****** ******
      ****** ****** ****** ****** ****** ****** ****** ****** ****** ******
      ****** ****** ****** ****** ****** ****** ****** ****** ****** ******
  17  ****** ****** ****** ****** ****** ****** ****** ****** ****** ******
      ****** ****** ****** ****** ****** ****** ****** ****** ****** ******
      ****** ****** ****** ****** ****** ****** ****** ****** ****** ******
  18  ****** ****** ****** ****** ****** ****** ****** ****** ****** ******
      ****** ****** ****** ****** ****** ****** ****** ****** ****** ******
      ****** ****** ****** ****** ****** ****** ****** ****** ****** ******
  19  ****** ****** ****** ****** ****** ****** ****** ****** ****** ******
      ****** ****** ****** ****** ****** ****** ****** ****** ****** ******
      ****** ****** ****** ****** ****** ****** ****** ****** ****** ******
  20  ****** ****** ****** ****** ****** ****** ****** ****** ****** ******
      ****** ****** ****** ****** ****** ****** ****** ****** ****** ******
      ****** ****** ****** ****** ****** ****** ****** ****** ****** ******
  21  ****** ****** ****** ****** ****** ****** ****** ****** ****** ******
      ****** ****** ****** ****** ****** ****** ****** ****** ****** ******
      ****** ****** ****** ****** ****** ****** ****** ****** ****** ******
  22  ****** ****** ****** ****** ****** ****** ****** ****** ****** ******
      ****** ****** ****** ****** ****** ****** ****** ****** ****** ******
      ****** ****** ****** ****** ****** ****** ****** ****** ****** ******
  23  ****** ****** ****** ****** ****** ****** ****** ****** ****** ******
      ****** ****** ****** ****** ****** ****** ****** ****** ****** ******
      ****** ****** ****** ****** ****** ****** ****** ****** ****** ******
  24  ****** ****** ****** ****** ****** ****** ****** ****** ****** ******
      ****** ****** ****** ****** ****** ****** ****** ****** ****** ******
      ****** ****** ****** ****** ****** ****** ****** ****** ****** ******
  25  ****** ****** ****** ****** ****** ****** ****** ****** ****** ******
      ****** ****** ****** ****** ****** ****** ****** ****** ****** ******
      ****** ****** ****** ****** ****** ****** ****** ****** ****** ******

 HEAD WILL BE SAVED ON UNIT   51 AT END OF TIME STEP    1, STRESS PERIOD    2
1
  VOLUMETRIC BUDGET FOR ENTIRE MODEL AT END OF TIME STEP    1, STRESS PERIOD   2
  ------------------------------------------------------------------------------

     CUMULATIVE VOLUMES      L**3       RATES FOR THIS TIME STEP      L**3/T
     ------------------                 ------------------------

           IN:                                      IN:
           ---                                      ---
             STORAGE =    21795120.2396               STORAGE =       50129.5897
       CONSTANT HEAD =     2600597.9407         CONSTANT HEAD =       16285.5605
               WELLS =           0.0000                 WELLS =           0.0000
            RECHARGE =     6292800.0000              RECHARGE =       55200.0000
      STREAM LEAKAGE =     2997895.3810        STREAM LEAKAGE =       23634.9616

            TOTAL IN =    33686413.5614              TOTAL IN =      145250.1118

          OUT:                                     OUT:
          ----                                     ----
             STORAGE =           0.0000               STORAGE =           0.0000
       CONSTANT HEAD =           0.0000         CONSTANT HEAD =           0.0000
               WELLS =     9525009.3903                 WELLS =       52049.2316
            RECHARGE =           0.0000              RECHARGE =           0.0000
      STREAM LEAKAGE =    24161405.3765        STREAM LEAKAGE =       93200.8902

           TOTAL OUT =    33686414.7668             TOTAL OUT =      145250.1219

            IN - OUT =          -1.2054              IN - OUT =      -1.0077E-02

 PERCENT DISCREPANCY =          -0.00     PERCENT DISCREPANCY =          -0.00






         TIME SUMMARY AT END OF TIME STEP    1 IN STRESS PERIOD    2
                    SECONDS     MINUTES      HOURS       DAYS        YEARS
                    -----------------------------------------------------------
   TIME STEP LENGTH 7.86240E+06 1.31040E+05  2184.0      91.000     0.24914    
 STRESS PERIOD TIME 7.86240E+06 1.31040E+05  2184.0      91.000     0.24914    
         TOTAL TIME 1.58112E+07 2.63520E+05  4392.0      183.00     0.50103    
1
1
                            STRESS PERIOD NO.    3, LENGTH =   91.00000    
                            -----------------------------------------------

                              NUMBER OF TIME STEPS =     1

                               MULTIPLIER FOR DELT =     1.500

                            INITIAL TIME STEP SIZE =   91.00000    

 WELL NO.  LAYER   ROW   COL   STRESS RATE         
 --------------------------------------------------
      1      1     19     29     -0.1190E+05
      2      1     13     22     -0.1207E+05
      3      1     11     24     -0.1308E+05
      4      1     17     29     -0.1500E+05

      4 WELLS

                 RECHARGE =   0.00000    

 REUSING STREAM SEGMENT DATA FROM LAST STRESS PERIOD
 
 SOLVING FOR HEAD 


     7 CALLS TO PCG ROUTINE FOR TIME STEP   1 IN STRESS PERIOD    3
    27 TOTAL ITERATIONS

 OUTPUT CONTROL FOR STRESS PERIOD    3   TIME STEP    1
    SAVE BUDGET
    SAVE HEAD FOR ALL LAYERS
    PRINT HEAD FOR ALL LAYERS
 UBDSV2 SAVING "STREAMFLOW OUT  " ON UNIT  50 AT TIME STEP  1, STRESS PERIOD   3



 STREAM LISTING     PERIOD      3   STEP        1

 LAYER ROW COL. STREAM  RCH.  FLOW INTO     FLOW TO   FLOW OUT OF   OVRLND.     DIRECT     STREAM       STREAM     STREAM     STREAM   STREAMBED  STREAMBED
                SEG.NO.  NO.  STRM. RCH.    AQUIFER    STRM. RCH.    RUNOFF     PRECIP       ET          HEAD       DEPTH      WIDTH   CONDCTNC.   GRADIENT

   1   13    1     1     1    1.0000E+05 -2.7766E+03   1.0278E+05  0.000E+00  0.000E+00  0.000E+00  4.84072E+01  1.459E-01  2.000E+01  2.000E+04 -1.388E-01
   1   13    2     1     2    1.0278E+05 -3.8865E+03   1.0666E+05  0.000E+00  0.000E+00  0.000E+00  4.79328E+01  1.487E-01  2.000E+01  2.000E+04 -1.943E-01
   1   14    3     1     3    1.0666E+05 -6.5770E+02   1.0732E+05  0.000E+00  0.000E+00  0.000E+00  4.74575E+01  1.506E-01  2.000E+01  2.000E+04 -3.289E-02
   1   15    4     1     4    1.0732E+05 -6.4126E+02   1.0796E+05  0.000E+00  0.000E+00  0.000E+00  4.69807E+01  1.512E-01  2.000E+01  2.000E+04 -3.206E-02
   1   16    5     1     5    1.0796E+05 -2.4696E+03   1.1043E+05  0.000E+00  0.000E+00  0.000E+00  4.65048E+01  1.525E-01  2.000E+01  2.000E+04 -1.235E-01
   1   16    6     1     6    1.1043E+05 -1.5124E+03   1.1194E+05  0.000E+00  0.000E+00  0.000E+00  4.60292E+01  1.542E-01  2.000E+01  2.000E+04 -7.562E-02
   1   16    7     1     7    1.1194E+05 -1.4773E+03   1.1342E+05  0.000E+00  0.000E+00  0.000E+00  4.55531E+01  1.554E-01  2.000E+01  2.000E+04 -7.387E-02
   1   16    8     1     8    1.1342E+05 -1.4677E+03   1.1489E+05  0.000E+00  0.000E+00  0.000E+00  4.50771E+01  1.566E-01  2.000E+01  2.000E+04 -7.338E-02
   1   16    9     1     9    1.1489E+05 -1.4533E+03   1.1634E+05  0.000E+00  0.000E+00  0.000E+00  4.46010E+01  1.578E-01  2.000E+01  2.000E+04 -7.267E-02
   1   16   10     1    10    1.1634E+05 -1.4316E+03   1.1777E+05  0.000E+00  0.000E+00  0.000E+00  4.41249E+01  1.590E-01  2.000E+01  2.000E+04 -7.158E-02
   1   16   11     1    11    1.1777E+05 -1.4351E+03   1.1921E+05  0.000E+00  0.000E+00  0.000E+00  4.36488E+01  1.602E-01  2.000E+01  2.000E+04 -7.175E-02
   1   16   12     1    12    1.1921E+05 -2.5545E+03   1.2176E+05  0.000E+00  0.000E+00  0.000E+00  4.31731E+01  1.618E-01  2.000E+01  2.000E+04 -1.277E-01
   1   15   13     1    13    1.2176E+05 -2.5099E+03   1.2427E+05  0.000E+00  0.000E+00  0.000E+00  4.26979E+01  1.638E-01  2.000E+01  2.000E+04 -1.255E-01
   1   14   14     1    14    1.2427E+05 -2.8626E+03   1.2714E+05  0.000E+00  0.000E+00  0.000E+00  4.22228E+01  1.659E-01  2.000E+01  2.000E+04 -1.431E-01
   1   13   15     1    15    1.2714E+05 -3.2216E+03   1.3036E+05  0.000E+00  0.000E+00  0.000E+00  4.17479E+01  1.683E-01  2.000E+01  2.000E+04 -1.611E-01
   1   12   16     1    16    1.3036E+05 -4.0017E+03   1.3436E+05  0.000E+00  0.000E+00  0.000E+00  4.12734E+01  1.711E-01  2.000E+01  2.000E+04 -2.001E-01
   1   12   17     1    17    1.3436E+05 -2.5130E+03   1.3687E+05  0.000E+00  0.000E+00  0.000E+00  4.07987E+01  1.737E-01  2.000E+01  2.000E+04 -1.256E-01
   1   12   18     1    18    1.3687E+05 -2.2741E+03   1.3915E+05  0.000E+00  0.000E+00  0.000E+00  4.03232E+01  1.755E-01  2.000E+01  2.000E+04 -1.137E-01
   1   12   19     1    19    1.3915E+05 -2.2548E+03   1.4140E+05  0.000E+00  0.000E+00  0.000E+00  3.98477E+01  1.772E-01  2.000E+01  2.000E+04 -1.127E-01
   1   13   20     1    20    1.4140E+05 -2.1492E+02   1.4162E+05  0.000E+00  0.000E+00  0.000E+00  3.93713E+01  1.782E-01  2.000E+01  2.000E+04 -1.075E-02
   1   14   21     1    21    1.4162E+05 -6.0908E+02   1.4223E+05  0.000E+00  0.000E+00  0.000E+00  3.88944E+01  1.785E-01  2.000E+01  2.000E+04 -3.045E-02
   1   14   22     1    22    1.4223E+05  6.6083E+03   1.3562E+05  0.000E+00  0.000E+00  0.000E+00  3.84148E+01  1.762E-01  2.000E+01  2.000E+04  3.304E-01
   1    9   30     2     1    5.0000E+04 -6.8265E+02   5.0683E+04  0.000E+00  0.000E+00  0.000E+00  4.02413E+01  1.163E-01  2.000E+01  2.000E+04 -3.413E-02
   1    9   29     2     2    5.0683E+04 -1.0013E+03   5.1684E+04  0.000E+00  0.000E+00  0.000E+00  3.99925E+01  1.175E-01  2.000E+01  2.000E+04 -5.007E-02
   1    9   28     2     3    5.1684E+04 -1.2962E+03   5.2980E+04  0.000E+00  0.000E+00  0.000E+00  3.97441E+01  1.191E-01  2.000E+01  2.000E+04 -6.481E-02
   1    9   27     2     4    5.2980E+04 -2.6356E+03   5.5616E+04  0.000E+00  0.000E+00  0.000E+00  3.94967E+01  1.217E-01  2.000E+01  2.000E+04 -1.318E-01
   1   10   26     2     5    5.5616E+04 -1.0065E+03   5.6622E+04  0.000E+00  0.000E+00  0.000E+00  3.92492E+01  1.242E-01  2.000E+01  2.000E+04 -5.033E-02
   1   11   25     2     6    5.6622E+04  3.1320E+03   5.3490E+04  0.000E+00  0.000E+00  0.000E+00  3.89978E+01  1.228E-01  2.000E+01  2.000E+04  1.566E-01
   1   12   24     2     7    5.3490E+04  3.9006E+03   4.9590E+04  0.000E+00  0.000E+00  0.000E+00  3.87430E+01  1.180E-01  2.000E+01  2.000E+04  1.950E-01
   1   13   23     2     8    4.9590E+04  9.4368E+02   4.8646E+04  0.000E+00  0.000E+00  0.000E+00  3.84896E+01  1.146E-01  2.000E+01  2.000E+04  4.718E-02
   1   14   22     2     9    4.8646E+04  3.0481E+03   4.5598E+04  0.000E+00  0.000E+00  0.000E+00  3.82368E+01  1.118E-01  2.000E+01  2.000E+04  1.524E-01
   1   14   22     3     1    1.8121E+05 -7.1073E+03   1.8832E+05  0.000E+00  0.000E+00  0.000E+00  3.77290E+01  1.735E-01  2.000E+01  2.000E+04 -3.554E-01
   1   15   23     3     2    1.8832E+05 -6.3495E+02   1.8896E+05  0.000E+00  0.000E+00  0.000E+00  3.68423E+01  1.757E-01  2.000E+01  2.000E+04 -3.175E-02
   1   15   24     3     3    1.8896E+05 -3.2154E+02   1.8928E+05  0.000E+00  0.000E+00  0.000E+00  3.59537E+01  1.759E-01  2.000E+01  2.000E+04 -1.608E-02
   1   15   25     3     4    1.8928E+05 -3.0156E+02   1.8958E+05  0.000E+00  0.000E+00  0.000E+00  3.50650E+01  1.761E-01  2.000E+01  2.000E+04 -1.508E-02
   1   15   26     3     5    1.8958E+05 -2.5438E+02   1.8983E+05  0.000E+00  0.000E+00  0.000E+00  3.41763E+01  1.763E-01  2.000E+01  2.000E+04 -1.272E-02
   1   16   27     3     6    1.8983E+05 -6.5895E+01   1.8990E+05  0.000E+00  0.000E+00  0.000E+00  3.32875E+01  1.763E-01  2.000E+01  2.000E+04 -3.295E-03
   1   17   28     3     7    1.8990E+05  5.3677E+03   1.8453E+05  0.000E+00  0.000E+00  0.000E+00  3.23971E+01  1.749E-01  2.000E+01  2.000E+04  2.684E-01
   1   18   29     3     8    1.8453E+05  7.3292E+03   1.7720E+05  0.000E+00  0.000E+00  0.000E+00  3.15046E+01  1.713E-01  2.000E+01  2.000E+04  3.665E-01
   1   18   30     3     9    1.7720E+05  1.7887E+03   1.7541E+05  0.000E+00  0.000E+00  0.000E+00  3.06131E+01  1.687E-01  2.000E+01  2.000E+04  8.944E-02



1
              HEAD IN LAYER   1 AT END OF TIME STEP   1 IN STRESS PERIOD    3
  ---------------------------------------------------------------------------

          1      2      3      4      5      6      7      8      9     10
         11     12     13     14     15     16     17     18     19     20
         21     22     23     24     25     26     27     28     29     30
 .........................................................................
   1  ****** ****** ****** ****** ****** ****** ****** ****** ****** ******
      ****** ****** ****** ****** ****** ****** ****** ****** ****** ******
      ****** ****** ****** ****** ****** ****** ****** ****** ****** ******
   2  ****** ****** ****** ****** ****** ****** ****** ****** ****** ******
      ****** ****** ****** ****** ****** ****** ****** ****** ****** ******
      ****** ****** ****** ****** ****** ****** ****** ****** ****** ******
   3  ****** ****** ****** ****** ****** ****** ****** ****** ****** ******
      ****** ****** ****** ****** ****** ****** ****** ****** ****** ******
      ****** ****** ****** ****** ****** ****** ****** ****** ****** ******
   4  ****** ****** ****** ****** ****** ****** ****** ****** ****** ******
      ****** ****** ****** ****** ****** ****** ****** ****** ****** ******
      ****** ****** ****** ****** ****** ****** ****** ****** ****** ******
   5  ****** ****** ****** ****** ****** ****** ****** ****** ****** ******
      ****** ****** ****** ****** ****** ****** ****** ****** ****** ******
      ****** ****** ****** ****** ****** ****** ****** ****** ****** ******
   6  ****** ****** ****** ****** ****** ****** ****** ****** ****** ******
      ****** ****** ****** ****** ****** ****** ****** ****** ****** ******
      ****** ****** ****** ****** ****** ****** ****** ****** ****** ******
   7  ****** ****** ****** ****** ****** ****** ****** ****** ****** ******
      ****** ****** ****** ****** ****** ****** ****** ****** ****** ******
      ****** ****** ****** ****** ****** ****** ****** ****** ****** ******
   8  ****** ****** ****** ****** ****** ****** ****** ****** ****** ******
      ****** ****** ****** ****** ****** ****** ****** ****** ****** ******
      ****** ****** ****** ****** ****** ****** ****** ****** ****** ******
   9  ****** ****** ****** ****** ****** ****** ****** ****** ****** ******
      ****** ****** ****** ****** ****** ****** ****** ****** ****** ******
      ****** ****** ****** ****** ****** ****** ****** ****** ****** ******
  10  ****** ****** ****** ****** ****** ****** ****** ****** ****** ******
      ****** ****** ****** ****** ****** ****** ****** ****** ****** ******
      ****** ****** ****** ****** ****** ****** ****** ****** ****** ******
  11  ****** ****** ****** ****** ****** ****** ****** ****** ****** ******
      ****** ****** ****** ****** ****** ****** ****** ****** ****** ******
      ****** ****** ****** ****** ****** ****** ****** ****** ****** ******
  12  ****** ****** ****** ****** ****** ****** ****** ****** ****** ******
      ****** ****** ****** ****** ****** ****** ****** ****** ****** ******
      ****** ****** ****** ****** ****** ****** ****** ****** ****** ******
  13  ****** ****** ****** ****** ****** ****** ****** ****** ****** ******
      ****** ****** ****** ****** ****** ****** ****** ****** ****** ******
      ****** ****** ****** ****** ****** ****** ****** ****** ****** ******
  14  ****** ****** ****** ****** ****** ****** ****** ****** ****** ******
      ****** ****** ****** ****** ****** ****** ****** ****** ****** ******
      ****** ****** ****** ****** ****** ****** ****** ****** ****** ******
  15  ****** ****** ****** ****** ****** ****** ****** ****** ****** ******
      ****** ****** ****** ****** ****** ****** ****** ****** ****** ******
      ****** ****** ****** ****** ****** ****** ****** ****** ****** ******
  16  ****** ****** ****** ****** ****** ****** ****** ****** ****** ******
      ****** ****** ****** ****** ****** ****** ****** ****** ****** ******
      ****** ****** ****** ****** ****** ****** ****** ****** ****** ******
  17  ****** ****** ****** ****** ****** ****** ****** ****** ****** ******
      ****** ****** ****** ****** ****** ****** ****** ****** ****** ******
      ****** ****** ****** ****** ****** ****** ****** ****** ****** ******
  18  ****** ****** ****** ****** ****** ****** ****** ****** ****** ******
      ****** ****** ****** ****** ****** ****** ****** ****** ****** ******
      ****** ****** ****** ****** ****** ****** ****** ****** ****** ******
  19  ****** ****** ****** ****** ****** ****** ****** ****** ****** ******
      ****** ****** ****** ****** ****** ****** ****** ****** ****** ******
      ****** ****** ****** ****** ****** ****** ****** ****** ****** ******
  20  ****** ****** ****** ****** ****** ****** ****** ****** ****** ******
      ****** ****** ****** ****** ****** ****** ****** ****** ****** ******
      ****** ****** ****** ****** ****** ****** ****** ****** ****** ******
  21  ****** ****** ****** ****** ****** ****** ****** ****** ****** ******
      ****** ****** ****** ****** ****** ****** ****** ****** ****** ******
      ****** ****** ****** ****** ****** ****** ****** ****** ****** ******
  22  ****** ****** ****** ****** ****** ****** ****** ****** ****** ******
      ****** ****** ****** ****** ****** ****** ****** ****** ****** ******
      ****** ****** ****** ****** ****** ****** ****** ****** ****** ******
  23  ****** ****** ****** ****** ****** ****** ****** ****** ****** ******
      ****** ****** ****** ****** ****** ****** ****** ****** ****** ******
      ****** ****** ****** ****** ****** ****** ****** ****** ****** ******
  24  ****** ****** ****** ****** ****** ****** ****** ****** ****** ******
      ****** ****** ****** ****** ****** ****** ****** ****** ****** ******
      ****** ****** ****** ****** ****** ****** ****** ****** ****** ******
  25  ****** ****** ****** ****** ****** ****** ****** ****** ****** ******
      ****** ****** ****** ****** ****** ****** ****** ****** ****** ******
      ****** ****** ****** ****** ****** ****** ****** ****** ****** ******

 HEAD WILL BE SAVED ON UNIT   51 AT END OF TIME STEP    1, STRESS PERIOD    3
1
  VOLUMETRIC BUDGET FOR ENTIRE MODEL AT END OF TIME STEP    1, STRESS PERIOD   3
  ------------------------------------------------------------------------------

     CUMULATIVE VOLUMES      L**3       RATES FOR THIS TIME STEP      L**3/T
     ------------------                 ------------------------

           IN:                                      IN:
           ---                                      ---
             STORAGE =    26609403.5437               STORAGE =       52904.2121
       CONSTANT HEAD =     4835530.5233         CONSTANT HEAD =       24559.6987
               WELLS =           0.0000                 WELLS =           0.0000
            RECHARGE =     6292800.0000              RECHARGE =           0.0000
      STREAM LEAKAGE =     5920670.6351        STREAM LEAKAGE =       32118.4094

            TOTAL IN =    43658404.7021              TOTAL IN =      109582.3202

          OUT:                                     OUT:
          ----                                     ----
             STORAGE =           0.0000               STORAGE =           0.0000
       CONSTANT HEAD =           0.0000         CONSTANT HEAD =           0.0000
               WELLS =    14261489.4696                 WELLS =       52049.2316
            RECHARGE =           0.0000              RECHARGE =           0.0000
      STREAM LEAKAGE =    29396917.0989        STREAM LEAKAGE =       57533.0959

           TOTAL OUT =    43658406.5686             TOTAL OUT =      109582.3275

            IN - OUT =          -1.8665              IN - OUT =      -7.2645E-03

 PERCENT DISCREPANCY =          -0.00     PERCENT DISCREPANCY =          -0.00






         TIME SUMMARY AT END OF TIME STEP    1 IN STRESS PERIOD    3
                    SECONDS     MINUTES      HOURS       DAYS        YEARS
                    -----------------------------------------------------------
   TIME STEP LENGTH 7.86240E+06 1.31040E+05  2184.0      91.000     0.24914    
 STRESS PERIOD TIME 7.86240E+06 1.31040E+05  2184.0      91.000     0.24914    
         TOTAL TIME 2.36736E+07 3.94560E+05  6576.0      274.00     0.75017    
1
1
                            STRESS PERIOD NO.    4, LENGTH =   91.00000    
                            -----------------------------------------------

                              NUMBER OF TIME STEPS =     1

                               MULTIPLIER FOR DELT =     1.500

                            INITIAL TIME STEP SIZE =   91.00000    

 WELL NO.  LAYER   ROW   COL   STRESS RATE         
 --------------------------------------------------
      1      1     19     29     -0.1190E+05
      2      1     13     22     -0.1207E+05
      3      1     11     24     -0.1308E+05
      4      1     17     29     -0.1500E+05

      4 WELLS

                 RECHARGE =  1.000000E-03

 REUSING STREAM SEGMENT DATA FROM LAST STRESS PERIOD
 
 SOLVING FOR HEAD 


     7 CALLS TO PCG ROUTINE FOR TIME STEP   1 IN STRESS PERIOD    4
    24 TOTAL ITERATIONS

 OUTPUT CONTROL FOR STRESS PERIOD    4   TIME STEP    1
    SAVE BUDGET
    SAVE HEAD FOR ALL LAYERS
    PRINT HEAD FOR ALL LAYERS
 UBDSV2 SAVING "STREAMFLOW OUT  " ON UNIT  50 AT TIME STEP  1, STRESS PERIOD   4



 STREAM LISTING     PERIOD      4   STEP        1

 LAYER ROW COL. STREAM  RCH.  FLOW INTO     FLOW TO   FLOW OUT OF   OVRLND.     DIRECT     STREAM       STREAM     STREAM     STREAM   STREAMBED  STREAMBED
                SEG.NO.  NO.  STRM. RCH.    AQUIFER    STRM. RCH.    RUNOFF     PRECIP       ET          HEAD       DEPTH      WIDTH   CONDCTNC.   GRADIENT

   1   13    1     1     1    1.0000E+05 -2.5539E+03   1.0255E+05  0.000E+00  0.000E+00  0.000E+00  4.84071E+01  1.458E-01  2.000E+01  2.000E+04 -1.277E-01
   1   13    2     1     2    1.0255E+05 -3.6270E+03   1.0618E+05  0.000E+00  0.000E+00  0.000E+00  4.79325E+01  1.484E-01  2.000E+01  2.000E+04 -1.813E-01
   1   14    3     1     3    1.0618E+05 -6.3099E+02   1.0681E+05  0.000E+00  0.000E+00  0.000E+00  4.74570E+01  1.502E-01  2.000E+01  2.000E+04 -3.155E-02
   1   15    4     1     4    1.0681E+05 -6.0460E+02   1.0742E+05  0.000E+00  0.000E+00  0.000E+00  4.69803E+01  1.507E-01  2.000E+01  2.000E+04 -3.023E-02
   1   16    5     1     5    1.0742E+05 -2.1739E+03   1.0959E+05  0.000E+00  0.000E+00  0.000E+00  4.65042E+01  1.519E-01  2.000E+01  2.000E+04 -1.087E-01
   1   16    6     1     6    1.0959E+05 -1.3681E+03   1.1096E+05  0.000E+00  0.000E+00  0.000E+00  4.60284E+01  1.534E-01  2.000E+01  2.000E+04 -6.840E-02
   1   16    7     1     7    1.1096E+05 -1.3446E+03   1.1230E+05  0.000E+00  0.000E+00  0.000E+00  4.55523E+01  1.545E-01  2.000E+01  2.000E+04 -6.723E-02
   1   16    8     1     8    1.1230E+05 -1.3396E+03   1.1364E+05  0.000E+00  0.000E+00  0.000E+00  4.50761E+01  1.556E-01  2.000E+01  2.000E+04 -6.698E-02
   1   16    9     1     9    1.1364E+05 -1.3285E+03   1.1497E+05  0.000E+00  0.000E+00  0.000E+00  4.45999E+01  1.567E-01  2.000E+01  2.000E+04 -6.643E-02
   1   16   10     1    10    1.1497E+05 -1.3107E+03   1.1628E+05  0.000E+00  0.000E+00  0.000E+00  4.41237E+01  1.578E-01  2.000E+01  2.000E+04 -6.553E-02
   1   16   11     1    11    1.1628E+05 -1.3147E+03   1.1760E+05  0.000E+00  0.000E+00  0.000E+00  4.36475E+01  1.589E-01  2.000E+01  2.000E+04 -6.574E-02
   1   16   12     1    12    1.1760E+05 -2.3017E+03   1.1990E+05  0.000E+00  0.000E+00  0.000E+00  4.31717E+01  1.604E-01  2.000E+01  2.000E+04 -1.151E-01
   1   15   13     1    13    1.1990E+05 -2.2798E+03   1.2218E+05  0.000E+00  0.000E+00  0.000E+00  4.26963E+01  1.622E-01  2.000E+01  2.000E+04 -1.140E-01
   1   14   14     1    14    1.2218E+05 -2.6140E+03   1.2479E+05  0.000E+00  0.000E+00  0.000E+00  4.22210E+01  1.642E-01  2.000E+01  2.000E+04 -1.307E-01
   1   13   15     1    15    1.2479E+05 -2.9515E+03   1.2774E+05  0.000E+00  0.000E+00  0.000E+00  4.17459E+01  1.664E-01  2.000E+01  2.000E+04 -1.476E-01
   1   12   16     1    16    1.2774E+05 -3.6417E+03   1.3139E+05  0.000E+00  0.000E+00  0.000E+00  4.12712E+01  1.690E-01  2.000E+01  2.000E+04 -1.821E-01
   1   12   17     1    17    1.3139E+05 -2.2979E+03   1.3368E+05  0.000E+00  0.000E+00  0.000E+00  4.07963E+01  1.713E-01  2.000E+01  2.000E+04 -1.149E-01
   1   12   18     1    18    1.3368E+05 -2.0736E+03   1.3576E+05  0.000E+00  0.000E+00  0.000E+00  4.03207E+01  1.730E-01  2.000E+01  2.000E+04 -1.037E-01
   1   12   19     1    19    1.3576E+05 -2.0041E+03   1.3776E+05  0.000E+00  0.000E+00  0.000E+00  3.98450E+01  1.745E-01  2.000E+01  2.000E+04 -1.002E-01
   1   13   20     1    20    1.3776E+05 -5.4494E+01   1.3782E+05  0.000E+00  0.000E+00  0.000E+00  3.93685E+01  1.753E-01  2.000E+01  2.000E+04 -2.725E-03
   1   14   21     1    21    1.3782E+05 -3.8552E+02   1.3820E+05  0.000E+00  0.000E+00  0.000E+00  3.88914E+01  1.755E-01  2.000E+01  2.000E+04 -1.928E-02
   1   14   22     1    22    1.3820E+05  6.6443E+03   1.3156E+05  0.000E+00  0.000E+00  0.000E+00  3.84117E+01  1.731E-01  2.000E+01  2.000E+04  3.322E-01
   1    9   30     2     1    5.0000E+04 -5.9391E+02   5.0594E+04  0.000E+00  0.000E+00  0.000E+00  4.02413E+01  1.163E-01  2.000E+01  2.000E+04 -2.970E-02
   1    9   29     2     2    5.0594E+04 -9.0598E+02   5.1500E+04  0.000E+00  0.000E+00  0.000E+00  3.99923E+01  1.173E-01  2.000E+01  2.000E+04 -4.530E-02
   1    9   28     2     3    5.1500E+04 -1.1816E+03   5.2682E+04  0.000E+00  0.000E+00  0.000E+00  3.97437E+01  1.187E-01  2.000E+01  2.000E+04 -5.908E-02
   1    9   27     2     4    5.2682E+04 -2.3748E+03   5.5056E+04  0.000E+00  0.000E+00  0.000E+00  3.94962E+01  1.212E-01  2.000E+01  2.000E+04 -1.187E-01
   1   10   26     2     5    5.5056E+04 -8.5404E+02   5.5910E+04  0.000E+00  0.000E+00  0.000E+00  3.92483E+01  1.233E-01  2.000E+01  2.000E+04 -4.270E-02
   1   11   25     2     6    5.5910E+04  3.2446E+03   5.2666E+04  0.000E+00  0.000E+00  0.000E+00  3.89967E+01  1.217E-01  2.000E+01  2.000E+04  1.622E-01
   1   12   24     2     7    5.2666E+04  3.9950E+03   4.8671E+04  0.000E+00  0.000E+00  0.000E+00  3.87418E+01  1.168E-01  2.000E+01  2.000E+04  1.997E-01
   1   13   23     2     8    4.8671E+04  9.1749E+02   4.7753E+04  0.000E+00  0.000E+00  0.000E+00  3.84884E+01  1.134E-01  2.000E+01  2.000E+04  4.587E-02
   1   14   22     2     9    4.7753E+04  3.1194E+03   4.4634E+04  0.000E+00  0.000E+00  0.000E+00  3.82355E+01  1.105E-01  2.000E+01  2.000E+04  1.560E-01
   1   14   22     3     1    1.7619E+05 -7.0666E+03   1.8326E+05  0.000E+00  0.000E+00  0.000E+00  3.77262E+01  1.706E-01  2.000E+01  2.000E+04 -3.533E-01
   1   15   23     3     2    1.8326E+05 -6.1114E+02   1.8387E+05  0.000E+00  0.000E+00  0.000E+00  3.68395E+01  1.728E-01  2.000E+01  2.000E+04 -3.056E-02
   1   15   24     3     3    1.8387E+05 -3.1939E+02   1.8419E+05  0.000E+00  0.000E+00  0.000E+00  3.59509E+01  1.731E-01  2.000E+01  2.000E+04 -1.597E-02
   1   15   25     3     4    1.8419E+05 -2.9853E+02   1.8449E+05  0.000E+00  0.000E+00  0.000E+00  3.50621E+01  1.732E-01  2.000E+01  2.000E+04 -1.493E-02
   1   15   26     3     5    1.8449E+05 -2.6011E+02   1.8475E+05  0.000E+00  0.000E+00  0.000E+00  3.41734E+01  1.734E-01  2.000E+01  2.000E+04 -1.301E-02
   1   16   27     3     6    1.8475E+05 -6.0993E+01   1.8481E+05  0.000E+00  0.000E+00  0.000E+00  3.32846E+01  1.735E-01  2.000E+01  2.000E+04 -3.050E-03
   1   17   28     3     7    1.8481E+05  5.4561E+03   1.7935E+05  0.000E+00  0.000E+00  0.000E+00  3.23942E+01  1.720E-01  2.000E+01  2.000E+04  2.728E-01
   1   18   29     3     8    1.7935E+05  7.5901E+03   1.7176E+05  0.000E+00  0.000E+00  0.000E+00  3.15016E+01  1.682E-01  2.000E+01  2.000E+04  3.795E-01
   1   18   30     3     9    1.7176E+05  1.9266E+03   1.6983E+05  0.000E+00  0.000E+00  0.000E+00  3.06099E+01  1.655E-01  2.000E+01  2.000E+04  9.633E-02



1
              HEAD IN LAYER   1 AT END OF TIME STEP   1 IN STRESS PERIOD    4
  ---------------------------------------------------------------------------

          1      2      3      4      5      6      7      8      9     10
         11     12     13     14     15     16     17     18     19     20
         21     22     23     24     25     26     27     28     29     30
 .........................................................................
   1  ****** ****** ****** ****** ****** ****** ****** ****** ****** ******
      ****** ****** ****** ****** ****** ****** ****** ****** ****** ******
      ****** ****** ****** ****** ****** ****** ****** ****** ****** ******
   2  ****** ****** ****** ****** ****** ****** ****** ****** ****** ******
      ****** ****** ****** ****** ****** ****** ****** ****** ****** ******
      ****** ****** ****** ****** ****** ****** ****** ****** ****** ******
   3  ****** ****** ****** ****** ****** ****** ****** ****** ****** ******
      ****** ****** ****** ****** ****** ****** ****** ****** ****** ******
      ****** ****** ****** ****** ****** ****** ****** ****** ****** ******
   4  ****** ****** ****** ****** ****** ****** ****** ****** ****** ******
      ****** ****** ****** ****** ****** ****** ****** ****** ****** ******
      ****** ****** ****** ****** ****** ****** ****** ****** ****** ******
   5  ****** ****** ****** ****** ****** ****** ****** ****** ****** ******
      ****** ****** ****** ****** ****** ****** ****** ****** ****** ******
      ****** ****** ****** ****** ****** ****** ****** ****** ****** ******
   6  ****** ****** ****** ****** ****** ****** ****** ****** ****** ******
      ****** ****** ****** ****** ****** ****** ****** ****** ****** ******
      ****** ****** ****** ****** ****** ****** ****** ****** ****** ******
   7  ****** ****** ****** ****** ****** ****** ****** ****** ****** ******
      ****** ****** ****** ****** ****** ****** ****** ****** ****** ******
      ****** ****** ****** ****** ****** ****** ****** ****** ****** ******
   8  ****** ****** ****** ****** ****** ****** ****** ****** ****** ******
      ****** ****** ****** ****** ****** ****** ****** ****** ****** ******
      ****** ****** ****** ****** ****** ****** ****** ****** ****** ******
   9  ****** ****** ****** ****** ****** ****** ****** ****** ****** ******
      ****** ****** ****** ****** ****** ****** ****** ****** ****** ******
      ****** ****** ****** ****** ****** ****** ****** ****** ****** ******
  10  ****** ****** ****** ****** ****** ****** ****** ****** ****** ******
      ****** ****** ****** ****** ****** ****** ****** ****** ****** ******
      ****** ****** ****** ****** ****** ****** ****** ****** ****** ******
  11  ****** ****** ****** ****** ****** ****** ****** ****** ****** ******
      ****** ****** ****** ****** ****** ****** ****** ****** ****** ******
      ****** ****** ****** ****** ****** ****** ****** ****** ****** ******
  12  ****** ****** ****** ****** ****** ****** ****** ****** ****** ******
      ****** ****** ****** ****** ****** ****** ****** ****** ****** ******
      ****** ****** ****** ****** ****** ****** ****** ****** ****** ******
  13  ****** ****** ****** ****** ****** ****** ****** ****** ****** ******
      ****** ****** ****** ****** ****** ****** ****** ****** ****** ******
      ****** ****** ****** ****** ****** ****** ****** ****** ****** ******
  14  ****** ****** ****** ****** ****** ****** ****** ****** ****** ******
      ****** ****** ****** ****** ****** ****** ****** ****** ****** ******
      ****** ****** ****** ****** ****** ****** ****** ****** ****** ******
  15  ****** ****** ****** ****** ****** ****** ****** ****** ****** ******
      ****** ****** ****** ****** ****** ****** ****** ****** ****** ******
      ****** ****** ****** ****** ****** ****** ****** ****** ****** ******
  16  ****** ****** ****** ****** ****** ****** ****** ****** ****** ******
      ****** ****** ****** ****** ****** ****** ****** ****** ****** ******
      ****** ****** ****** ****** ****** ****** ****** ****** ****** ******
  17  ****** ****** ****** ****** ****** ****** ****** ****** ****** ******
      ****** ****** ****** ****** ****** ****** ****** ****** ****** ******
      ****** ****** ****** ****** ****** ****** ****** ****** ****** ******
  18  ****** ****** ****** ****** ****** ****** ****** ****** ****** ******
      ****** ****** ****** ****** ****** ****** ****** ****** ****** ******
      ****** ****** ****** ****** ****** ****** ****** ****** ****** ******
  19  ****** ****** ****** ****** ****** ****** ****** ****** ****** ******
      ****** ****** ****** ****** ****** ****** ****** ****** ****** ******
      ****** ****** ****** ****** ****** ****** ****** ****** ****** ******
  20  ****** ****** ****** ****** ****** ****** ****** ****** ****** ******
      ****** ****** ****** ****** ****** ****** ****** ****** ****** ******
      ****** ****** ****** ****** ****** ****** ****** ****** ****** ******
  21  ****** ****** ****** ****** ****** ****** ****** ****** ****** ******
      ****** ****** ****** ****** ****** ****** ****** ****** ****** ******
      ****** ****** ****** ****** ****** ****** ****** ****** ****** ******
  22  ****** ****** ****** ****** ****** ****** ****** ****** ****** ******
      ****** ****** ****** ****** ****** ****** ****** ****** ****** ******
      ****** ****** ****** ****** ****** ****** ****** ****** ****** ******
  23  ****** ****** ****** ****** ****** ****** ****** ****** ****** ******
      ****** ****** ****** ****** ****** ****** ****** ****** ****** ******
      ****** ****** ****** ****** ****** ****** ****** ****** ****** ******
  24  ****** ****** ****** ****** ****** ****** ****** ****** ****** ******
      ****** ****** ****** ****** ****** ****** ****** ****** ****** ******
      ****** ****** ****** ****** ****** ****** ****** ****** ****** ******
  25  ****** ****** ****** ****** ****** ****** ****** ****** ****** ******
      ****** ****** ****** ****** ****** ****** ****** ****** ****** ******
      ****** ****** ****** ****** ****** ****** ****** ****** ****** ******

 HEAD WILL BE SAVED ON UNIT   51 AT END OF TIME STEP    1, STRESS PERIOD    4
1
  VOLUMETRIC BUDGET FOR ENTIRE MODEL AT END OF TIME STEP    1, STRESS PERIOD   4
  ------------------------------------------------------------------------------

     CUMULATIVE VOLUMES      L**3       RATES FOR THIS TIME STEP      L**3/T
     ------------------                 ------------------------

           IN:                                      IN:
           ---                                      ---
             STORAGE =    28184059.4709               STORAGE =       17303.9113
       CONSTANT HEAD =     7291533.1321         CONSTANT HEAD =       26989.0397
               WELLS =           0.0000                 WELLS =           0.0000
            RECHARGE =     8804400.0000              RECHARGE =       27600.0000
      STREAM LEAKAGE =     8913990.8057        STREAM LEAKAGE =       32893.6282

            TOTAL IN =    53193983.4087              TOTAL IN =      104786.5792

          OUT:                                     OUT:
          ----                                     ----
             STORAGE =         850.6858               STORAGE =           9.3482
       CONSTANT HEAD =           0.0000         CONSTANT HEAD =           0.0000
               WELLS =    18997969.5490                 WELLS =       52049.2316
            RECHARGE =           0.0000              RECHARGE =           0.0000
      STREAM LEAKAGE =    34195165.1428        STREAM LEAKAGE =       52728.0005

           TOTAL OUT =    53193985.3776             TOTAL OUT =      104786.5803

            IN - OUT =          -1.9689              IN - OUT =      -1.1251E-03

 PERCENT DISCREPANCY =          -0.00     PERCENT DISCREPANCY =          -0.00






         TIME SUMMARY AT END OF TIME STEP    1 IN STRESS PERIOD    4
                    SECONDS     MINUTES      HOURS       DAYS        YEARS
                    -----------------------------------------------------------
   TIME STEP LENGTH 7.86240E+06 1.31040E+05  2184.0      91.000     0.24914    
 STRESS PERIOD TIME 7.86240E+06 1.31040E+05  2184.0      91.000     0.24914    
         TOTAL TIME 3.15360E+07 5.25600E+05  8760.0      365.00     0.99932    
1
1
                            STRESS PERIOD NO.    5, LENGTH =   92.00000    
                            -----------------------------------------------

                              NUMBER OF TIME STEPS =     1

                               MULTIPLIER FOR DELT =     1.500

                            INITIAL TIME STEP SIZE =   92.00000    

 WELL NO.  LAYER   ROW   COL   STRESS RATE         
 --------------------------------------------------
      1      1     19     29     -0.1190E+05
      2      1     13     22     -0.1207E+05
      3      1     11     24     -0.1308E+05
      4      1     17     29     -0.1500E+05

      4 WELLS

                 RECHARGE =  5.000000E-04

 REUSING STREAM SEGMENT DATA FROM LAST STRESS PERIOD
 
 SOLVING FOR HEAD 


     7 CALLS TO PCG ROUTINE FOR TIME STEP   1 IN STRESS PERIOD    5
    26 TOTAL ITERATIONS

 OUTPUT CONTROL FOR STRESS PERIOD    5   TIME STEP    1
    SAVE BUDGET
    SAVE HEAD FOR ALL LAYERS
    PRINT HEAD FOR ALL LAYERS
 UBDSV2 SAVING "STREAMFLOW OUT  " ON UNIT  50 AT TIME STEP  1, STRESS PERIOD   5



 STREAM LISTING     PERIOD      5   STEP        1

 LAYER ROW COL. STREAM  RCH.  FLOW INTO     FLOW TO   FLOW OUT OF   OVRLND.     DIRECT     STREAM       STREAM     STREAM     STREAM   STREAMBED  STREAMBED
                SEG.NO.  NO.  STRM. RCH.    AQUIFER    STRM. RCH.    RUNOFF     PRECIP       ET          HEAD       DEPTH      WIDTH   CONDCTNC.   GRADIENT

   1   13    1     1     1    1.0000E+05 -2.1501E+03   1.0215E+05  0.000E+00  0.000E+00  0.000E+00  4.84069E+01  1.456E-01  2.000E+01  2.000E+04 -1.075E-01
   1   13    2     1     2    1.0215E+05 -3.1705E+03   1.0532E+05  0.000E+00  0.000E+00  0.000E+00  4.79320E+01  1.479E-01  2.000E+01  2.000E+04 -1.585E-01
   1   14    3     1     3    1.0532E+05 -5.1047E+02   1.0583E+05  0.000E+00  0.000E+00  0.000E+00  4.74563E+01  1.494E-01  2.000E+01  2.000E+04 -2.552E-02
   1   15    4     1     4    1.0583E+05 -4.7738E+02   1.0631E+05  0.000E+00  0.000E+00  0.000E+00  4.69794E+01  1.499E-01  2.000E+01  2.000E+04 -2.387E-02
   1   16    5     1     5    1.0631E+05 -1.7478E+03   1.0806E+05  0.000E+00  0.000E+00  0.000E+00  4.65031E+01  1.508E-01  2.000E+01  2.000E+04 -8.739E-02
   1   16    6     1     6    1.0806E+05 -1.1191E+03   1.0918E+05  0.000E+00  0.000E+00  0.000E+00  4.60270E+01  1.520E-01  2.000E+01  2.000E+04 -5.596E-02
   1   16    7     1     7    1.0918E+05 -1.1062E+03   1.1028E+05  0.000E+00  0.000E+00  0.000E+00  4.55507E+01  1.529E-01  2.000E+01  2.000E+04 -5.531E-02
   1   16    8     1     8    1.1028E+05 -1.1051E+03   1.1139E+05  0.000E+00  0.000E+00  0.000E+00  4.50743E+01  1.539E-01  2.000E+01  2.000E+04 -5.525E-02
   1   16    9     1     9    1.1139E+05 -1.0971E+03   1.1248E+05  0.000E+00  0.000E+00  0.000E+00  4.45980E+01  1.548E-01  2.000E+01  2.000E+04 -5.486E-02
   1   16   10     1    10    1.1248E+05 -1.0828E+03   1.1357E+05  0.000E+00  0.000E+00  0.000E+00  4.41216E+01  1.557E-01  2.000E+01  2.000E+04 -5.414E-02
   1   16   11     1    11    1.1357E+05 -1.0866E+03   1.1465E+05  0.000E+00  0.000E+00  0.000E+00  4.36452E+01  1.566E-01  2.000E+01  2.000E+04 -5.433E-02
   1   16   12     1    12    1.1465E+05 -1.8944E+03   1.1655E+05  0.000E+00  0.000E+00  0.000E+00  4.31692E+01  1.578E-01  2.000E+01  2.000E+04 -9.472E-02
   1   15   13     1    13    1.1655E+05 -1.8529E+03   1.1840E+05  0.000E+00  0.000E+00  0.000E+00  4.26934E+01  1.593E-01  2.000E+01  2.000E+04 -9.265E-02
   1   14   14     1    14    1.1840E+05 -2.1620E+03   1.2056E+05  0.000E+00  0.000E+00  0.000E+00  4.22178E+01  1.610E-01  2.000E+01  2.000E+04 -1.081E-01
   1   13   15     1    15    1.2056E+05 -2.4843E+03   1.2305E+05  0.000E+00  0.000E+00  0.000E+00  4.17424E+01  1.628E-01  2.000E+01  2.000E+04 -1.242E-01
   1   12   16     1    16    1.2305E+05 -3.1327E+03   1.2618E+05  0.000E+00  0.000E+00  0.000E+00  4.12673E+01  1.651E-01  2.000E+01  2.000E+04 -1.566E-01
   1   12   17     1    17    1.2618E+05 -1.9546E+03   1.2813E+05  0.000E+00  0.000E+00  0.000E+00  4.07921E+01  1.671E-01  2.000E+01  2.000E+04 -9.773E-02
   1   12   18     1    18    1.2813E+05 -1.7463E+03   1.2988E+05  0.000E+00  0.000E+00  0.000E+00  4.03163E+01  1.685E-01  2.000E+01  2.000E+04 -8.731E-02
   1   12   19     1    19    1.2988E+05 -1.6071E+03   1.3149E+05  0.000E+00  0.000E+00  0.000E+00  3.98403E+01  1.698E-01  2.000E+01  2.000E+04 -8.035E-02
   1   13   20     1    20    1.3149E+05  2.9453E+02   1.3119E+05  0.000E+00  0.000E+00  0.000E+00  3.93635E+01  1.704E-01  2.000E+01  2.000E+04  1.473E-02
   1   14   21     1    21    1.3119E+05 -9.9178E+00   1.3120E+05  0.000E+00  0.000E+00  0.000E+00  3.88862E+01  1.702E-01  2.000E+01  2.000E+04 -4.959E-04
   1   14   22     1    22    1.3120E+05  6.7264E+03   1.2448E+05  0.000E+00  0.000E+00  0.000E+00  3.84063E+01  1.676E-01  2.000E+01  2.000E+04  3.363E-01
   1    9   30     2     1    5.0000E+04 -3.6464E+02   5.0365E+04  0.000E+00  0.000E+00  0.000E+00  4.02411E+01  1.161E-01  2.000E+01  2.000E+04 -1.823E-02
   1    9   29     2     2    5.0365E+04 -6.7342E+02   5.1038E+04  0.000E+00  0.000E+00  0.000E+00  3.99918E+01  1.168E-01  2.000E+01  2.000E+04 -3.367E-02
   1    9   28     2     3    5.1038E+04 -9.3784E+02   5.1976E+04  0.000E+00  0.000E+00  0.000E+00  3.97429E+01  1.179E-01  2.000E+01  2.000E+04 -4.689E-02
   1    9   27     2     4    5.1976E+04 -1.9927E+03   5.3969E+04  0.000E+00  0.000E+00  0.000E+00  3.94950E+01  1.200E-01  2.000E+01  2.000E+04 -9.964E-02
   1   10   26     2     5    5.3969E+04 -5.1985E+02   5.4488E+04  0.000E+00  0.000E+00  0.000E+00  3.92466E+01  1.216E-01  2.000E+01  2.000E+04 -2.599E-02
   1   11   25     2     6    5.4488E+04  3.5513E+03   5.0937E+04  0.000E+00  0.000E+00  0.000E+00  3.89946E+01  1.196E-01  2.000E+01  2.000E+04  1.776E-01
   1   12   24     2     7    5.0937E+04  4.2746E+03   4.6663E+04  0.000E+00  0.000E+00  0.000E+00  3.87392E+01  1.142E-01  2.000E+01  2.000E+04  2.137E-01
   1   13   23     2     8    4.6663E+04  9.8519E+02   4.5677E+04  0.000E+00  0.000E+00  0.000E+00  3.84855E+01  1.105E-01  2.000E+01  2.000E+04  4.926E-02
   1   14   22     2     9    4.5677E+04  3.2491E+03   4.2428E+04  0.000E+00  0.000E+00  0.000E+00  3.82324E+01  1.074E-01  2.000E+01  2.000E+04  1.625E-01
   1   14   22     3     1    1.6690E+05 -6.9823E+03   1.7389E+05  0.000E+00  0.000E+00  0.000E+00  3.77208E+01  1.653E-01  2.000E+01  2.000E+04 -3.491E-01
   1   15   23     3     2    1.7389E+05 -5.1199E+02   1.7440E+05  0.000E+00  0.000E+00  0.000E+00  3.68341E+01  1.674E-01  2.000E+01  2.000E+04 -2.560E-02
   1   15   24     3     3    1.7440E+05 -2.4627E+02   1.7465E+05  0.000E+00  0.000E+00  0.000E+00  3.59454E+01  1.677E-01  2.000E+01  2.000E+04 -1.231E-02
   1   15   25     3     4    1.7465E+05 -2.2580E+02   1.7487E+05  0.000E+00  0.000E+00  0.000E+00  3.50567E+01  1.678E-01  2.000E+01  2.000E+04 -1.129E-02
   1   15   26     3     5    1.7487E+05 -1.8656E+02   1.7506E+05  0.000E+00  0.000E+00  0.000E+00  3.41679E+01  1.679E-01  2.000E+01  2.000E+04 -9.328E-03
   1   16   27     3     6    1.7506E+05  3.1940E+01   1.7503E+05  0.000E+00  0.000E+00  0.000E+00  3.32791E+01  1.680E-01  2.000E+01  2.000E+04  1.597E-03
   1   17   28     3     7    1.7503E+05  5.7341E+03   1.6929E+05  0.000E+00  0.000E+00  0.000E+00  3.23885E+01  1.663E-01  2.000E+01  2.000E+04  2.867E-01
   1   18   29     3     8    1.6929E+05  7.9839E+03   1.6131E+05  0.000E+00  0.000E+00  0.000E+00  3.14956E+01  1.623E-01  2.000E+01  2.000E+04  3.992E-01
   1   18   30     3     9    1.6131E+05  2.1969E+03   1.5911E+05  0.000E+00  0.000E+00  0.000E+00  3.06037E+01  1.593E-01  2.000E+01  2.000E+04  1.098E-01



1
              HEAD IN LAYER   1 AT END OF TIME STEP   1 IN STRESS PERIOD    5
  ---------------------------------------------------------------------------

          1      2      3      4      5      6      7      8      9     10
         11     12     13     14     15     16     17     18     19     20
         21     22     23     24     25     26     27     28     29     30
 .........................................................................
   1  ****** ****** ****** ****** ****** ****** ****** ****** ****** ******
      ****** ****** ****** ****** ****** ****** ****** ****** ****** ******
      ****** ****** ****** ****** ****** ****** ****** ****** ****** ******
   2  ****** ****** ****** ****** ****** ****** ****** ****** ****** ******
      ****** ****** ****** ****** ****** ****** ****** ****** ****** ******
      ****** ****** ****** ****** ****** ****** ****** ****** ****** ******
   3  ****** ****** ****** ****** ****** ****** ****** ****** ****** ******
      ****** ****** ****** ****** ****** ****** ****** ****** ****** ******
      ****** ****** ****** ****** ****** ****** ****** ****** ****** ******
   4  ****** ****** ****** ****** ****** ****** ****** ****** ****** ******
      ****** ****** ****** ****** ****** ****** ****** ****** ****** ******
      ****** ****** ****** ****** ****** ****** ****** ****** ****** ******
   5  ****** ****** ****** ****** ****** ****** ****** ****** ****** ******
      ****** ****** ****** ****** ****** ****** ****** ****** ****** ******
      ****** ****** ****** ****** ****** ****** ****** ****** ****** ******
   6  ****** ****** ****** ****** ****** ****** ****** ****** ****** ******
      ****** ****** ****** ****** ****** ****** ****** ****** ****** ******
      ****** ****** ****** ****** ****** ****** ****** ****** ****** ******
   7  ****** ****** ****** ****** ****** ****** ****** ****** ****** ******
      ****** ****** ****** ****** ****** ****** ****** ****** ****** ******
      ****** ****** ****** ****** ****** ****** ****** ****** ****** ******
   8  ****** ****** ****** ****** ****** ****** ****** ****** ****** ******
      ****** ****** ****** ****** ****** ****** ****** ****** ****** ******
      ****** ****** ****** ****** ****** ****** ****** ****** ****** ******
   9  ****** ****** ****** ****** ****** ****** ****** ****** ****** ******
      ****** ****** ****** ****** ****** ****** ****** ****** ****** ******
      ****** ****** ****** ****** ****** ****** ****** ****** ****** ******
  10  ****** ****** ****** ****** ****** ****** ****** ****** ****** ******
      ****** ****** ****** ****** ****** ****** ****** ****** ****** ******
      ****** ****** ****** ****** ****** ****** ****** ****** ****** ******
  11  ****** ****** ****** ****** ****** ****** ****** ****** ****** ******
      ****** ****** ****** ****** ****** ****** ****** ****** ****** ******
      ****** ****** ****** ****** ****** ****** ****** ****** ****** ******
  12  ****** ****** ****** ****** ****** ****** ****** ****** ****** ******
      ****** ****** ****** ****** ****** ****** ****** ****** ****** ******
      ****** ****** ****** ****** ****** ****** ****** ****** ****** ******
  13  ****** ****** ****** ****** ****** ****** ****** ****** ****** ******
      ****** ****** ****** ****** ****** ****** ****** ****** ****** ******
      ****** ****** ****** ****** ****** ****** ****** ****** ****** ******
  14  ****** ****** ****** ****** ****** ****** ****** ****** ****** ******
      ****** ****** ****** ****** ****** ****** ****** ****** ****** ******
      ****** ****** ****** ****** ****** ****** ****** ****** ****** ******
  15  ****** ****** ****** ****** ****** ****** ****** ****** ****** ******
      ****** ****** ****** ****** ****** ****** ****** ****** ****** ******
      ****** ****** ****** ****** ****** ****** ****** ****** ****** ******
  16  ****** ****** ****** ****** ****** ****** ****** ****** ****** ******
      ****** ****** ****** ****** ****** ****** ****** ****** ****** ******
      ****** ****** ****** ****** ****** ****** ****** ****** ****** ******
  17  ****** ****** ****** ****** ****** ****** ****** ****** ****** ******
      ****** ****** ****** ****** ****** ****** ****** ****** ****** ******
      ****** ****** ****** ****** ****** ****** ****** ****** ****** ******
  18  ****** ****** ****** ****** ****** ****** ****** ****** ****** ******
      ****** ****** ****** ****** ****** ****** ****** ****** ****** ******
      ****** ****** ****** ****** ****** ****** ****** ****** ****** ******
  19  ****** ****** ****** ****** ****** ****** ****** ****** ****** ******
      ****** ****** ****** ****** ****** ****** ****** ****** ****** ******
      ****** ****** ****** ****** ****** ****** ****** ****** ****** ******
  20  ****** ****** ****** ****** ****** ****** ****** ****** ****** ******
      ****** ****** ****** ****** ****** ****** ****** ****** ****** ******
      ****** ****** ****** ****** ****** ****** ****** ****** ****** ******
  21  ****** ****** ****** ****** ****** ****** ****** ****** ****** ******
      ****** ****** ****** ****** ****** ****** ****** ****** ****** ******
      ****** ****** ****** ****** ****** ****** ****** ****** ****** ******
  22  ****** ****** ****** ****** ****** ****** ****** ****** ****** ******
      ****** ****** ****** ****** ****** ****** ****** ****** ****** ******
      ****** ****** ****** ****** ****** ****** ****** ****** ****** ******
  23  ****** ****** ****** ****** ****** ****** ****** ****** ****** ******
      ****** ****** ****** ****** ****** ****** ****** ****** ****** ******
      ****** ****** ****** ****** ****** ****** ****** ****** ****** ******
  24  ****** ****** ****** ****** ****** ****** ****** ****** ****** ******
      ****** ****** ****** ****** ****** ****** ****** ****** ****** ******
      ****** ****** ****** ****** ****** ****** ****** ****** ****** ******
  25  ****** ****** ****** ****** ****** ****** ****** ****** ****** ******
      ****** ****** ****** ****** ****** ****** ****** ****** ****** ******
      ****** ****** ****** ****** ****** ****** ****** ****** ****** ******

 HEAD WILL BE SAVED ON UNIT   51 AT END OF TIME STEP    1, STRESS PERIOD    5
1
  VOLUMETRIC BUDGET FOR ENTIRE MODEL AT END OF TIME STEP    1, STRESS PERIOD   5
  ------------------------------------------------------------------------------

     CUMULATIVE VOLUMES      L**3       RATES FOR THIS TIME STEP      L**3/T
     ------------------                 ------------------------

           IN:                                      IN:
           ---                                      ---
             STORAGE =    29799186.8550               STORAGE =       17555.7324
       CONSTANT HEAD =    10033548.6270         CONSTANT HEAD =       29804.5162
               WELLS =           0.0000                 WELLS =           0.0000
            RECHARGE =    10074000.0000              RECHARGE =       13800.0000
      STREAM LEAKAGE =    12136550.1400        STREAM LEAKAGE =       35027.8189

            TOTAL IN =    62043285.6220              TOTAL IN =       96188.0675

          OUT:                                     OUT:
          ----                                     ----
             STORAGE =         850.6858               STORAGE =           0.0000
       CONSTANT HEAD =           0.0000         CONSTANT HEAD =           0.0000
               WELLS =    23786498.8599                 WELLS =       52049.2316
            RECHARGE =           0.0000              RECHARGE =           0.0000
      STREAM LEAKAGE =    38255938.3123        STREAM LEAKAGE =       44138.8388

           TOTAL OUT =    62043287.8580             TOTAL OUT =       96188.0704

            IN - OUT =          -2.2360              IN - OUT =      -2.9031E-03

 PERCENT DISCREPANCY =          -0.00     PERCENT DISCREPANCY =          -0.00






         TIME SUMMARY AT END OF TIME STEP    1 IN STRESS PERIOD    5
                    SECONDS     MINUTES      HOURS       DAYS        YEARS
                    -----------------------------------------------------------
   TIME STEP LENGTH 7.94880E+06 1.32480E+05  2208.0      92.000     0.25188    
 STRESS PERIOD TIME 7.94880E+06 1.32480E+05  2208.0      92.000     0.25188    
         TOTAL TIME 3.94848E+07 6.58080E+05  10968.      457.00      1.2512    
1
1
                            STRESS PERIOD NO.    6, LENGTH =   91.00000    
                            -----------------------------------------------

                              NUMBER OF TIME STEPS =     1

                               MULTIPLIER FOR DELT =     1.500

                            INITIAL TIME STEP SIZE =   91.00000    

 WELL NO.  LAYER   ROW   COL   STRESS RATE         
 --------------------------------------------------
      1      1     19     29     -0.1190E+05
      2      1     13     22     -0.1207E+05
      3      1     11     24     -0.1308E+05
      4      1     17     29     -0.1500E+05

      4 WELLS

                 RECHARGE =  2.000000E-03

 REUSING STREAM SEGMENT DATA FROM LAST STRESS PERIOD
 
 SOLVING FOR HEAD 


     7 CALLS TO PCG ROUTINE FOR TIME STEP   1 IN STRESS PERIOD    6
    26 TOTAL ITERATIONS

 OUTPUT CONTROL FOR STRESS PERIOD    6   TIME STEP    1
    SAVE BUDGET
    SAVE HEAD FOR ALL LAYERS
    PRINT HEAD FOR ALL LAYERS
 UBDSV2 SAVING "STREAMFLOW OUT  " ON UNIT  50 AT TIME STEP  1, STRESS PERIOD   6



 STREAM LISTING     PERIOD      6   STEP        1

 LAYER ROW COL. STREAM  RCH.  FLOW INTO     FLOW TO   FLOW OUT OF   OVRLND.     DIRECT     STREAM       STREAM     STREAM     STREAM   STREAMBED  STREAMBED
                SEG.NO.  NO.  STRM. RCH.    AQUIFER    STRM. RCH.    RUNOFF     PRECIP       ET          HEAD       DEPTH      WIDTH   CONDCTNC.   GRADIENT

   1   13    1     1     1    1.0000E+05 -2.4743E+03   1.0247E+05  0.000E+00  0.000E+00  0.000E+00  4.84071E+01  1.457E-01  2.000E+01  2.000E+04 -1.237E-01
   1   13    2     1     2    1.0247E+05 -3.5258E+03   1.0600E+05  0.000E+00  0.000E+00  0.000E+00  4.79324E+01  1.483E-01  2.000E+01  2.000E+04 -1.763E-01
   1   14    3     1     3    1.0600E+05 -6.6685E+02   1.0667E+05  0.000E+00  0.000E+00  0.000E+00  4.74569E+01  1.501E-01  2.000E+01  2.000E+04 -3.334E-02
   1   15    4     1     4    1.0667E+05 -6.4503E+02   1.0731E+05  0.000E+00  0.000E+00  0.000E+00  4.69802E+01  1.506E-01  2.000E+01  2.000E+04 -3.225E-02
   1   16    5     1     5    1.0731E+05 -2.2474E+03   1.0956E+05  0.000E+00  0.000E+00  0.000E+00  4.65041E+01  1.519E-01  2.000E+01  2.000E+04 -1.124E-01
   1   16    6     1     6    1.0956E+05 -1.4126E+03   1.1097E+05  0.000E+00  0.000E+00  0.000E+00  4.60284E+01  1.534E-01  2.000E+01  2.000E+04 -7.063E-02
   1   16    7     1     7    1.1097E+05 -1.3845E+03   1.1236E+05  0.000E+00  0.000E+00  0.000E+00  4.55523E+01  1.546E-01  2.000E+01  2.000E+04 -6.922E-02
   1   16    8     1     8    1.1236E+05 -1.3789E+03   1.1374E+05  0.000E+00  0.000E+00  0.000E+00  4.50762E+01  1.557E-01  2.000E+01  2.000E+04 -6.894E-02
   1   16    9     1     9    1.1374E+05 -1.3705E+03   1.1511E+05  0.000E+00  0.000E+00  0.000E+00  4.46000E+01  1.568E-01  2.000E+01  2.000E+04 -6.853E-02
   1   16   10     1    10    1.1511E+05 -1.3578E+03   1.1646E+05  0.000E+00  0.000E+00  0.000E+00  4.41239E+01  1.579E-01  2.000E+01  2.000E+04 -6.789E-02
   1   16   11     1    11    1.1646E+05 -1.3648E+03   1.1783E+05  0.000E+00  0.000E+00  0.000E+00  4.36477E+01  1.591E-01  2.000E+01  2.000E+04 -6.824E-02
   1   16   12     1    12    1.1783E+05 -2.3447E+03   1.2017E+05  0.000E+00  0.000E+00  0.000E+00  4.31719E+01  1.606E-01  2.000E+01  2.000E+04 -1.172E-01
   1   15   13     1    13    1.2017E+05 -2.3150E+03   1.2249E+05  0.000E+00  0.000E+00  0.000E+00  4.26965E+01  1.624E-01  2.000E+01  2.000E+04 -1.158E-01
   1   14   14     1    14    1.2249E+05 -2.6208E+03   1.2511E+05  0.000E+00  0.000E+00  0.000E+00  4.22212E+01  1.644E-01  2.000E+01  2.000E+04 -1.310E-01
   1   13   15     1    15    1.2511E+05 -2.9252E+03   1.2803E+05  0.000E+00  0.000E+00  0.000E+00  4.17462E+01  1.666E-01  2.000E+01  2.000E+04 -1.463E-01
   1   12   16     1    16    1.2803E+05 -3.5304E+03   1.3156E+05  0.000E+00  0.000E+00  0.000E+00  4.12714E+01  1.692E-01  2.000E+01  2.000E+04 -1.765E-01
   1   12   17     1    17    1.3156E+05 -2.2757E+03   1.3384E+05  0.000E+00  0.000E+00  0.000E+00  4.07964E+01  1.714E-01  2.000E+01  2.000E+04 -1.138E-01
   1   12   18     1    18    1.3384E+05 -2.0703E+03   1.3591E+05  0.000E+00  0.000E+00  0.000E+00  4.03208E+01  1.731E-01  2.000E+01  2.000E+04 -1.035E-01
   1   12   19     1    19    1.3591E+05 -2.0095E+03   1.3792E+05  0.000E+00  0.000E+00  0.000E+00  3.98451E+01  1.747E-01  2.000E+01  2.000E+04 -1.005E-01
   1   13   20     1    20    1.3792E+05 -1.3192E+02   1.3805E+05  0.000E+00  0.000E+00  0.000E+00  3.93687E+01  1.755E-01  2.000E+01  2.000E+04 -6.596E-03
   1   14   21     1    21    1.3805E+05 -4.2436E+02   1.3848E+05  0.000E+00  0.000E+00  0.000E+00  3.88916E+01  1.757E-01  2.000E+01  2.000E+04 -2.122E-02
   1   14   22     1    22    1.3848E+05  6.6148E+03   1.3186E+05  0.000E+00  0.000E+00  0.000E+00  3.84120E+01  1.733E-01  2.000E+01  2.000E+04  3.307E-01
   1    9   30     2     1    5.0000E+04 -7.3041E+02   5.0730E+04  0.000E+00  0.000E+00  0.000E+00  4.02414E+01  1.164E-01  2.000E+01  2.000E+04 -3.652E-02
   1    9   29     2     2    5.0730E+04 -1.0350E+03   5.1765E+04  0.000E+00  0.000E+00  0.000E+00  3.99926E+01  1.176E-01  2.000E+01  2.000E+04 -5.175E-02
   1    9   28     2     3    5.1765E+04 -1.2931E+03   5.3058E+04  0.000E+00  0.000E+00  0.000E+00  3.97442E+01  1.192E-01  2.000E+01  2.000E+04 -6.465E-02
   1    9   27     2     4    5.3058E+04 -2.4440E+03   5.5502E+04  0.000E+00  0.000E+00  0.000E+00  3.94967E+01  1.217E-01  2.000E+01  2.000E+04 -1.222E-01
   1   10   26     2     5    5.5502E+04 -9.9429E+02   5.6497E+04  0.000E+00  0.000E+00  0.000E+00  3.92490E+01  1.240E-01  2.000E+01  2.000E+04 -4.971E-02
   1   11   25     2     6    5.6497E+04  3.0919E+03   5.3405E+04  0.000E+00  0.000E+00  0.000E+00  3.89976E+01  1.226E-01  2.000E+01  2.000E+04  1.546E-01
   1   12   24     2     7    5.3405E+04  3.8602E+03   4.9545E+04  0.000E+00  0.000E+00  0.000E+00  3.87429E+01  1.179E-01  2.000E+01  2.000E+04  1.930E-01
   1   13   23     2     8    4.9545E+04  8.4670E+02   4.8698E+04  0.000E+00  0.000E+00  0.000E+00  3.84896E+01  1.146E-01  2.000E+01  2.000E+04  4.233E-02
   1   14   22     2     9    4.8698E+04  3.1125E+03   4.5585E+04  0.000E+00  0.000E+00  0.000E+00  3.82368E+01  1.118E-01  2.000E+01  2.000E+04  1.556E-01
   1   14   22     3     1    1.7745E+05 -7.0862E+03   1.8453E+05  0.000E+00  0.000E+00  0.000E+00  3.77269E+01  1.714E-01  2.000E+01  2.000E+04 -3.543E-01
   1   15   23     3     2    1.8453E+05 -6.4936E+02   1.8518E+05  0.000E+00  0.000E+00  0.000E+00  3.68402E+01  1.735E-01  2.000E+01  2.000E+04 -3.247E-02
   1   15   24     3     3    1.8518E+05 -3.6802E+02   1.8555E+05  0.000E+00  0.000E+00  0.000E+00  3.59516E+01  1.738E-01  2.000E+01  2.000E+04 -1.840E-02
   1   15   25     3     4    1.8555E+05 -3.5191E+02   1.8590E+05  0.000E+00  0.000E+00  0.000E+00  3.50629E+01  1.740E-01  2.000E+01  2.000E+04 -1.760E-02
   1   15   26     3     5    1.8590E+05 -3.3763E+02   1.8624E+05  0.000E+00  0.000E+00  0.000E+00  3.41742E+01  1.742E-01  2.000E+01  2.000E+04 -1.688E-02
   1   16   27     3     6    1.8624E+05 -1.3624E+02   1.8638E+05  0.000E+00  0.000E+00  0.000E+00  3.32855E+01  1.744E-01  2.000E+01  2.000E+04 -6.812E-03
   1   17   28     3     7    1.8638E+05  5.2734E+03   1.8110E+05  0.000E+00  0.000E+00  0.000E+00  3.23951E+01  1.729E-01  2.000E+01  2.000E+04  2.637E-01
   1   18   29     3     8    1.8110E+05  7.5485E+03   1.7355E+05  0.000E+00  0.000E+00  0.000E+00  3.15026E+01  1.693E-01  2.000E+01  2.000E+04  3.774E-01
   1   18   30     3     9    1.7355E+05  1.8435E+03   1.7171E+05  0.000E+00  0.000E+00  0.000E+00  3.06110E+01  1.666E-01  2.000E+01  2.000E+04  9.218E-02



1
              HEAD IN LAYER   1 AT END OF TIME STEP   1 IN STRESS PERIOD    6
  ---------------------------------------------------------------------------

          1      2      3      4      5      6      7      8      9     10
         11     12     13     14     15     16     17     18     19     20
         21     22     23     24     25     26     27     28     29     30
 .........................................................................
   1  ****** ****** ****** ****** ****** ****** ****** ****** ****** ******
      ****** ****** ****** ****** ****** ****** ****** ****** ****** ******
      ****** ****** ****** ****** ****** ****** ****** ****** ****** ******
   2  ****** ****** ****** ****** ****** ****** ****** ****** ****** ******
      ****** ****** ****** ****** ****** ****** ****** ****** ****** ******
      ****** ****** ****** ****** ****** ****** ****** ****** ****** ******
   3  ****** ****** ****** ****** ****** ****** ****** ****** ****** ******
      ****** ****** ****** ****** ****** ****** ****** ****** ****** ******
      ****** ****** ****** ****** ****** ****** ****** ****** ****** ******
   4  ****** ****** ****** ****** ****** ****** ****** ****** ****** ******
      ****** ****** ****** ****** ****** ****** ****** ****** ****** ******
      ****** ****** ****** ****** ****** ****** ****** ****** ****** ******
   5  ****** ****** ****** ****** ****** ****** ****** ****** ****** ******
      ****** ****** ****** ****** ****** ****** ****** ****** ****** ******
      ****** ****** ****** ****** ****** ****** ****** ****** ****** ******
   6  ****** ****** ****** ****** ****** ****** ****** ****** ****** ******
      ****** ****** ****** ****** ****** ****** ****** ****** ****** ******
      ****** ****** ****** ****** ****** ****** ****** ****** ****** ******
   7  ****** ****** ****** ****** ****** ****** ****** ****** ****** ******
      ****** ****** ****** ****** ****** ****** ****** ****** ****** ******
      ****** ****** ****** ****** ****** ****** ****** ****** ****** ******
   8  ****** ****** ****** ****** ****** ****** ****** ****** ****** ******
      ****** ****** ****** ****** ****** ****** ****** ****** ****** ******
      ****** ****** ****** ****** ****** ****** ****** ****** ****** ******
   9  ****** ****** ****** ****** ****** ****** ****** ****** ****** ******
      ****** ****** ****** ****** ****** ****** ****** ****** ****** ******
      ****** ****** ****** ****** ****** ****** ****** ****** ****** ******
  10  ****** ****** ****** ****** ****** ****** ****** ****** ****** ******
      ****** ****** ****** ****** ****** ****** ****** ****** ****** ******
      ****** ****** ****** ****** ****** ****** ****** ****** ****** ******
  11  ****** ****** ****** ****** ****** ****** ****** ****** ****** ******
      ****** ****** ****** ****** ****** ****** ****** ****** ****** ******
      ****** ****** ****** ****** ****** ****** ****** ****** ****** ******
  12  ****** ****** ****** ****** ****** ****** ****** ****** ****** ******
      ****** ****** ****** ****** ****** ****** ****** ****** ****** ******
      ****** ****** ****** ****** ****** ****** ****** ****** ****** ******
  13  ****** ****** ****** ****** ****** ****** ****** ****** ****** ******
      ****** ****** ****** ****** ****** ****** ****** ****** ****** ******
      ****** ****** ****** ****** ****** ****** ****** ****** ****** ******
  14  ****** ****** ****** ****** ****** ****** ****** ****** ****** ******
      ****** ****** ****** ****** ****** ****** ****** ****** ****** ******
      ****** ****** ****** ****** ****** ****** ****** ****** ****** ******
  15  ****** ****** ****** ****** ****** ****** ****** ****** ****** ******
      ****** ****** ****** ****** ****** ****** ****** ****** ****** ******
      ****** ****** ****** ****** ****** ****** ****** ****** ****** ******
  16  ****** ****** ****** ****** ****** ****** ****** ****** ****** ******
      ****** ****** ****** ****** ****** ****** ****** ****** ****** ******
      ****** ****** ****** ****** ****** ****** ****** ****** ****** ******
  17  ****** ****** ****** ****** ****** ****** ****** ****** ****** ******
      ****** ****** ****** ****** ****** ****** ****** ****** ****** ******
      ****** ****** ****** ****** ****** ****** ****** ****** ****** ******
  18  ****** ****** ****** ****** ****** ****** ****** ****** ****** ******
      ****** ****** ****** ****** ****** ****** ****** ****** ****** ******
      ****** ****** ****** ****** ****** ****** ****** ****** ****** ******
  19  ****** ****** ****** ****** ****** ****** ****** ****** ****** ******
      ****** ****** ****** ****** ****** ****** ****** ****** ****** ******
      ****** ****** ****** ****** ****** ****** ****** ****** ****** ******
  20  ****** ****** ****** ****** ****** ****** ****** ****** ****** ******
      ****** ****** ****** ****** ****** ****** ****** ****** ****** ******
      ****** ****** ****** ****** ****** ****** ****** ****** ****** ******
  21  ****** ****** ****** ****** ****** ****** ****** ****** ****** ******
      ****** ****** ****** ****** ****** ****** ****** ****** ****** ******
      ****** ****** ****** ****** ****** ****** ****** ****** ****** ******
  22  ****** ****** ****** ****** ****** ****** ****** ****** ****** ******
      ****** ****** ****** ****** ****** ****** ****** ****** ****** ******
      ****** ****** ****** ****** ****** ****** ****** ****** ****** ******
  23  ****** ****** ****** ****** ****** ****** ****** ****** ****** ******
      ****** ****** ****** ****** ****** ****** ****** ****** ****** ******
      ****** ****** ****** ****** ****** ****** ****** ****** ****** ******
  24  ****** ****** ****** ****** ****** ****** ****** ****** ****** ******
      ****** ****** ****** ****** ****** ****** ****** ****** ****** ******
      ****** ****** ****** ****** ****** ****** ****** ****** ****** ******
  25  ****** ****** ****** ****** ****** ****** ****** ****** ****** ******
      ****** ****** ****** ****** ****** ****** ****** ****** ****** ******
      ****** ****** ****** ****** ****** ****** ****** ****** ****** ******

 HEAD WILL BE SAVED ON UNIT   51 AT END OF TIME STEP    1, STRESS PERIOD    6
1
  VOLUMETRIC BUDGET FOR ENTIRE MODEL AT END OF TIME STEP    1, STRESS PERIOD   6
  ------------------------------------------------------------------------------

     CUMULATIVE VOLUMES      L**3       RATES FOR THIS TIME STEP      L**3/T
     ------------------                 ------------------------

           IN:                                      IN:
           ---                                      ---
             STORAGE =    29799186.8550               STORAGE =           0.0000
       CONSTANT HEAD =    12566147.0006         CONSTANT HEAD =       27830.7514
               WELLS =           0.0000                 WELLS =           0.0000
            RECHARGE =    15097200.0000              RECHARGE =       55200.0000
      STREAM LEAKAGE =    15065974.5871        STREAM LEAKAGE =       32191.4774

            TOTAL IN =    72528508.4428              TOTAL IN =      115222.2288

          OUT:                                     OUT:
          ----                                     ----
             STORAGE =      844465.0930               STORAGE =        9270.4880
       CONSTANT HEAD =           0.0000         CONSTANT HEAD =           0.0000
               WELLS =    28522978.9393                 WELLS =       52049.2316
            RECHARGE =           0.0000              RECHARGE =           0.0000
      STREAM LEAKAGE =    43161066.3887        STREAM LEAKAGE =       53902.5063

           TOTAL OUT =    72528510.4210             TOTAL OUT =      115222.2260

            IN - OUT =          -1.9782              IN - OUT =       2.8327E-03

 PERCENT DISCREPANCY =          -0.00     PERCENT DISCREPANCY =           0.00






         TIME SUMMARY AT END OF TIME STEP    1 IN STRESS PERIOD    6
                    SECONDS     MINUTES      HOURS       DAYS        YEARS
                    -----------------------------------------------------------
   TIME STEP LENGTH 7.86240E+06 1.31040E+05  2184.0      91.000     0.24914    
 STRESS PERIOD TIME 7.86240E+06 1.31040E+05  2184.0      91.000     0.24914    
         TOTAL TIME 4.73472E+07 7.89120E+05  13152.      548.00      1.5003    
1
1
                            STRESS PERIOD NO.    7, LENGTH =   91.00000    
                            -----------------------------------------------

                              NUMBER OF TIME STEPS =     1

                               MULTIPLIER FOR DELT =     1.500

                            INITIAL TIME STEP SIZE =   91.00000    

 WELL NO.  LAYER   ROW   COL   STRESS RATE         
 --------------------------------------------------
      1      1     19     29     -0.1190E+05
      2      1     13     22     -0.1207E+05
      3      1     11     24     -0.1308E+05
      4      1     17     29     -0.1500E+05

      4 WELLS

                 RECHARGE =   0.00000    

 REUSING STREAM SEGMENT DATA FROM LAST STRESS PERIOD
 
 SOLVING FOR HEAD 


     7 CALLS TO PCG ROUTINE FOR TIME STEP   1 IN STRESS PERIOD    7
    26 TOTAL ITERATIONS

 OUTPUT CONTROL FOR STRESS PERIOD    7   TIME STEP    1
    SAVE BUDGET
    SAVE HEAD FOR ALL LAYERS
    PRINT HEAD FOR ALL LAYERS
 UBDSV2 SAVING "STREAMFLOW OUT  " ON UNIT  50 AT TIME STEP  1, STRESS PERIOD   7



 STREAM LISTING     PERIOD      7   STEP        1

 LAYER ROW COL. STREAM  RCH.  FLOW INTO     FLOW TO   FLOW OUT OF   OVRLND.     DIRECT     STREAM       STREAM     STREAM     STREAM   STREAMBED  STREAMBED
                SEG.NO.  NO.  STRM. RCH.    AQUIFER    STRM. RCH.    RUNOFF     PRECIP       ET          HEAD       DEPTH      WIDTH   CONDCTNC.   GRADIENT

   1   13    1     1     1    1.0000E+05 -1.8159E+03   1.0182E+05  0.000E+00  0.000E+00  0.000E+00  4.84068E+01  1.454E-01  2.000E+01  2.000E+04 -9.080E-02
   1   13    2     1     2    1.0182E+05 -2.7894E+03   1.0461E+05  0.000E+00  0.000E+00  0.000E+00  4.79315E+01  1.474E-01  2.000E+01  2.000E+04 -1.395E-01
   1   14    3     1     3    1.0461E+05 -4.1617E+02   1.0502E+05  0.000E+00  0.000E+00  0.000E+00  4.74556E+01  1.488E-01  2.000E+01  2.000E+04 -2.081E-02
   1   15    4     1     4    1.0502E+05 -3.8340E+02   1.0540E+05  0.000E+00  0.000E+00  0.000E+00  4.69787E+01  1.491E-01  2.000E+01  2.000E+04 -1.917E-02
   1   16    5     1     5    1.0540E+05 -1.4961E+03   1.0690E+05  0.000E+00  0.000E+00  0.000E+00  4.65022E+01  1.499E-01  2.000E+01  2.000E+04 -7.481E-02
   1   16    6     1     6    1.0690E+05 -9.5973E+02   1.0786E+05  0.000E+00  0.000E+00  0.000E+00  4.60260E+01  1.510E-01  2.000E+01  2.000E+04 -4.799E-02
   1   16    7     1     7    1.0786E+05 -9.5007E+02   1.0881E+05  0.000E+00  0.000E+00  0.000E+00  4.55495E+01  1.518E-01  2.000E+01  2.000E+04 -4.750E-02
   1   16    8     1     8    1.0881E+05 -9.5043E+02   1.0976E+05  0.000E+00  0.000E+00  0.000E+00  4.50730E+01  1.526E-01  2.000E+01  2.000E+04 -4.752E-02
   1   16    9     1     9    1.0976E+05 -9.4511E+02   1.1071E+05  0.000E+00  0.000E+00  0.000E+00  4.45965E+01  1.534E-01  2.000E+01  2.000E+04 -4.726E-02
   1   16   10     1    10    1.1071E+05 -9.3475E+02   1.1164E+05  0.000E+00  0.000E+00  0.000E+00  4.41201E+01  1.541E-01  2.000E+01  2.000E+04 -4.674E-02
   1   16   11     1    11    1.1164E+05 -9.4036E+02   1.1258E+05  0.000E+00  0.000E+00  0.000E+00  4.36436E+01  1.549E-01  2.000E+01  2.000E+04 -4.702E-02
   1   16   12     1    12    1.1258E+05 -1.6318E+03   1.1421E+05  0.000E+00  0.000E+00  0.000E+00  4.31673E+01  1.560E-01  2.000E+01  2.000E+04 -8.159E-02
   1   15   13     1    13    1.1421E+05 -1.5518E+03   1.1577E+05  0.000E+00  0.000E+00  0.000E+00  4.26914E+01  1.573E-01  2.000E+01  2.000E+04 -7.759E-02
   1   14   14     1    14    1.1577E+05 -1.8312E+03   1.1760E+05  0.000E+00  0.000E+00  0.000E+00  4.22155E+01  1.587E-01  2.000E+01  2.000E+04 -9.156E-02
   1   13   15     1    15    1.1760E+05 -2.1347E+03   1.1973E+05  0.000E+00  0.000E+00  0.000E+00  4.17398E+01  1.603E-01  2.000E+01  2.000E+04 -1.067E-01
   1   12   16     1    16    1.1973E+05 -2.7485E+03   1.2248E+05  0.000E+00  0.000E+00  0.000E+00  4.12645E+01  1.623E-01  2.000E+01  2.000E+04 -1.374E-01
   1   12   17     1    17    1.2248E+05 -1.7052E+03   1.2418E+05  0.000E+00  0.000E+00  0.000E+00  4.07890E+01  1.640E-01  2.000E+01  2.000E+04 -8.526E-02
   1   12   18     1    18    1.2418E+05 -1.5130E+03   1.2570E+05  0.000E+00  0.000E+00  0.000E+00  4.03131E+01  1.653E-01  2.000E+01  2.000E+04 -7.565E-02
   1   12   19     1    19    1.2570E+05 -1.3285E+03   1.2703E+05  0.000E+00  0.000E+00  0.000E+00  3.98369E+01  1.665E-01  2.000E+01  2.000E+04 -6.642E-02
   1   13   20     1    20    1.2703E+05  5.3425E+02   1.2649E+05  0.000E+00  0.000E+00  0.000E+00  3.93599E+01  1.668E-01  2.000E+01  2.000E+04  2.671E-02
   1   14   21     1    21    1.2649E+05  2.3459E+02   1.2626E+05  0.000E+00  0.000E+00  0.000E+00  3.88824E+01  1.665E-01  2.000E+01  2.000E+04  1.173E-02
   1   14   22     1    22    1.2626E+05  6.7789E+03   1.1948E+05  0.000E+00  0.000E+00  0.000E+00  3.84023E+01  1.637E-01  2.000E+01  2.000E+04  3.389E-01
   1    9   30     2     1    5.0000E+04 -2.1826E+02   5.0218E+04  0.000E+00  0.000E+00  0.000E+00  4.02410E+01  1.160E-01  2.000E+01  2.000E+04 -1.091E-02
   1    9   29     2     2    5.0218E+04 -5.2472E+02   5.0743E+04  0.000E+00  0.000E+00  0.000E+00  3.99915E+01  1.165E-01  2.000E+01  2.000E+04 -2.624E-02
   1    9   28     2     3    5.0743E+04 -7.8175E+02   5.1525E+04  0.000E+00  0.000E+00  0.000E+00  3.97424E+01  1.174E-01  2.000E+01  2.000E+04 -3.909E-02
   1    9   27     2     4    5.1525E+04 -1.7506E+03   5.3275E+04  0.000E+00  0.000E+00  0.000E+00  3.94942E+01  1.192E-01  2.000E+01  2.000E+04 -8.753E-02
   1   10   26     2     5    5.3275E+04 -2.9828E+02   5.3574E+04  0.000E+00  0.000E+00  0.000E+00  3.92456E+01  1.206E-01  2.000E+01  2.000E+04 -1.491E-02
   1   11   25     2     6    5.3574E+04  3.7594E+03   4.9814E+04  0.000E+00  0.000E+00  0.000E+00  3.89932E+01  1.182E-01  2.000E+01  2.000E+04  1.880E-01
   1   12   24     2     7    4.9814E+04  4.4684E+03   4.5346E+04  0.000E+00  0.000E+00  0.000E+00  3.87375E+01  1.125E-01  2.000E+01  2.000E+04  2.234E-01
   1   13   23     2     8    4.5346E+04  1.0380E+03   4.4308E+04  0.000E+00  0.000E+00  0.000E+00  3.84835E+01  1.085E-01  2.000E+01  2.000E+04  5.190E-02
   1   14   22     2     9    4.4308E+04  3.3388E+03   4.0969E+04  0.000E+00  0.000E+00  0.000E+00  3.82303E+01  1.053E-01  2.000E+01  2.000E+04  1.669E-01
   1   14   22     3     1    1.6045E+05 -6.9270E+03   1.6737E+05  0.000E+00  0.000E+00  0.000E+00  3.77170E+01  1.615E-01  2.000E+01  2.000E+04 -3.464E-01
   1   15   23     3     2    1.6737E+05 -4.4343E+02   1.6782E+05  0.000E+00  0.000E+00  0.000E+00  3.68303E+01  1.636E-01  2.000E+01  2.000E+04 -2.217E-02
   1   15   24     3     3    1.6782E+05 -1.9458E+02   1.6801E+05  0.000E+00  0.000E+00  0.000E+00  3.59416E+01  1.638E-01  2.000E+01  2.000E+04 -9.729E-03
   1   15   25     3     4    1.6801E+05 -1.7534E+02   1.6819E+05  0.000E+00  0.000E+00  0.000E+00  3.50528E+01  1.639E-01  2.000E+01  2.000E+04 -8.767E-03
   1   15   26     3     5    1.6819E+05 -1.3649E+02   1.6832E+05  0.000E+00  0.000E+00  0.000E+00  3.41640E+01  1.640E-01  2.000E+01  2.000E+04 -6.825E-03
   1   16   27     3     6    1.6832E+05  9.5993E+01   1.6823E+05  0.000E+00  0.000E+00  0.000E+00  3.32751E+01  1.640E-01  2.000E+01  2.000E+04  4.800E-03
   1   17   28     3     7    1.6823E+05  5.9147E+03   1.6231E+05  0.000E+00  0.000E+00  0.000E+00  3.23845E+01  1.623E-01  2.000E+01  2.000E+04  2.957E-01
   1   18   29     3     8    1.6231E+05  8.2340E+03   1.5408E+05  0.000E+00  0.000E+00  0.000E+00  3.14914E+01  1.581E-01  2.000E+01  2.000E+04  4.117E-01
   1   18   30     3     9    1.5408E+05  2.3715E+03   1.5171E+05  0.000E+00  0.000E+00  0.000E+00  3.05993E+01  1.549E-01  2.000E+01  2.000E+04  1.186E-01



1
              HEAD IN LAYER   1 AT END OF TIME STEP   1 IN STRESS PERIOD    7
  ---------------------------------------------------------------------------

          1      2      3      4      5      6      7      8      9     10
         11     12     13     14     15     16     17     18     19     20
         21     22     23     24     25     26     27     28     29     30
 .........................................................................
   1  ****** ****** ****** ****** ****** ****** ****** ****** ****** ******
      ****** ****** ****** ****** ****** ****** ****** ****** ****** ******
      ****** ****** ****** ****** ****** ****** ****** ****** ****** ******
   2  ****** ****** ****** ****** ****** ****** ****** ****** ****** ******
      ****** ****** ****** ****** ****** ****** ****** ****** ****** ******
      ****** ****** ****** ****** ****** ****** ****** ****** ****** ******
   3  ****** ****** ****** ****** ****** ****** ****** ****** ****** ******
      ****** ****** ****** ****** ****** ****** ****** ****** ****** ******
      ****** ****** ****** ****** ****** ****** ****** ****** ****** ******
   4  ****** ****** ****** ****** ****** ****** ****** ****** ****** ******
      ****** ****** ****** ****** ****** ****** ****** ****** ****** ******
      ****** ****** ****** ****** ****** ****** ****** ****** ****** ******
   5  ****** ****** ****** ****** ****** ****** ****** ****** ****** ******
      ****** ****** ****** ****** ****** ****** ****** ****** ****** ******
      ****** ****** ****** ****** ****** ****** ****** ****** ****** ******
   6  ****** ****** ****** ****** ****** ****** ****** ****** ****** ******
      ****** ****** ****** ****** ****** ****** ****** ****** ****** ******
      ****** ****** ****** ****** ****** ****** ****** ****** ****** ******
   7  ****** ****** ****** ****** ****** ****** ****** ****** ****** ******
      ****** ****** ****** ****** ****** ****** ****** ****** ****** ******
      ****** ****** ****** ****** ****** ****** ****** ****** ****** ******
   8  ****** ****** ****** ****** ****** ****** ****** ****** ****** ******
      ****** ****** ****** ****** ****** ****** ****** ****** ****** ******
      ****** ****** ****** ****** ****** ****** ****** ****** ****** ******
   9  ****** ****** ****** ****** ****** ****** ****** ****** ****** ******
      ****** ****** ****** ****** ****** ****** ****** ****** ****** ******
      ****** ****** ****** ****** ****** ****** ****** ****** ****** ******
  10  ****** ****** ****** ****** ****** ****** ****** ****** ****** ******
      ****** ****** ****** ****** ****** ****** ****** ****** ****** ******
      ****** ****** ****** ****** ****** ****** ****** ****** ****** ******
  11  ****** ****** ****** ****** ****** ****** ****** ****** ****** ******
      ****** ****** ****** ****** ****** ****** ****** ****** ****** ******
      ****** ****** ****** ****** ****** ****** ****** ****** ****** ******
  12  ****** ****** ****** ****** ****** ****** ****** ****** ****** ******
      ****** ****** ****** ****** ****** ****** ****** ****** ****** ******
      ****** ****** ****** ****** ****** ****** ****** ****** ****** ******
  13  ****** ****** ****** ****** ****** ****** ****** ****** ****** ******
      ****** ****** ****** ****** ****** ****** ****** ****** ****** ******
      ****** ****** ****** ****** ****** ****** ****** ****** ****** ******
  14  ****** ****** ****** ****** ****** ****** ****** ****** ****** ******
      ****** ****** ****** ****** ****** ****** ****** ****** ****** ******
      ****** ****** ****** ****** ****** ****** ****** ****** ****** ******
  15  ****** ****** ****** ****** ****** ****** ****** ****** ****** ******
      ****** ****** ****** ****** ****** ****** ****** ****** ****** ******
      ****** ****** ****** ****** ****** ****** ****** ****** ****** ******
  16  ****** ****** ****** ****** ****** ****** ****** ****** ****** ******
      ****** ****** ****** ****** ****** ****** ****** ****** ****** ******
      ****** ****** ****** ****** ****** ****** ****** ****** ****** ******
  17  ****** ****** ****** ****** ****** ****** ****** ****** ****** ******
      ****** ****** ****** ****** ****** ****** ****** ****** ****** ******
      ****** ****** ****** ****** ****** ****** ****** ****** ****** ******
  18  ****** ****** ****** ****** ****** ****** ****** ****** ****** ******
      ****** ****** ****** ****** ****** ****** ****** ****** ****** ******
      ****** ****** ****** ****** ****** ****** ****** ****** ****** ******
  19  ****** ****** ****** ****** ****** ****** ****** ****** ****** ******
      ****** ****** ****** ****** ****** ****** ****** ****** ****** ******
      ****** ****** ****** ****** ****** ****** ****** ****** ****** ******
  20  ****** ****** ****** ****** ****** ****** ****** ****** ****** ******
      ****** ****** ****** ****** ****** ****** ****** ****** ****** ******
      ****** ****** ****** ****** ****** ****** ****** ****** ****** ******
  21  ****** ****** ****** ****** ****** ****** ****** ****** ****** ******
      ****** ****** ****** ****** ****** ****** ****** ****** ****** ******
      ****** ****** ****** ****** ****** ****** ****** ****** ****** ******
  22  ****** ****** ****** ****** ****** ****** ****** ****** ****** ******
      ****** ****** ****** ****** ****** ****** ****** ****** ****** ******
      ****** ****** ****** ****** ****** ****** ****** ****** ****** ******
  23  ****** ****** ****** ****** ****** ****** ****** ****** ****** ******
      ****** ****** ****** ****** ****** ****** ****** ****** ****** ******
      ****** ****** ****** ****** ****** ****** ****** ****** ****** ******
  24  ****** ****** ****** ****** ****** ****** ****** ****** ****** ******
      ****** ****** ****** ****** ****** ****** ****** ****** ****** ******
      ****** ****** ****** ****** ****** ****** ****** ****** ****** ******
  25  ****** ****** ****** ****** ****** ****** ****** ****** ****** ******
      ****** ****** ****** ****** ****** ****** ****** ****** ****** ******
      ****** ****** ****** ****** ****** ****** ****** ****** ****** ******

 HEAD WILL BE SAVED ON UNIT   51 AT END OF TIME STEP    1, STRESS PERIOD    7
1
  VOLUMETRIC BUDGET FOR ENTIRE MODEL AT END OF TIME STEP    1, STRESS PERIOD   7
  ------------------------------------------------------------------------------

     CUMULATIVE VOLUMES      L**3       RATES FOR THIS TIME STEP      L**3/T
     ------------------                 ------------------------

           IN:                                      IN:
           ---                                      ---
             STORAGE =    31805144.0127               STORAGE =       22043.4852
       CONSTANT HEAD =    15452116.1361         CONSTANT HEAD =       31713.9465
               WELLS =           0.0000                 WELLS =           0.0000
            RECHARGE =    15097200.0000              RECHARGE =           0.0000
      STREAM LEAKAGE =    18411901.4813        STREAM LEAKAGE =       36768.4274

            TOTAL IN =    80766361.6301              TOTAL IN =       90525.8592

          OUT:                                     OUT:
          ----                                     ----
             STORAGE =      844465.0930               STORAGE =           0.0000
       CONSTANT HEAD =           0.0000         CONSTANT HEAD =           0.0000
               WELLS =    33259459.0186                 WELLS =       52049.2316
            RECHARGE =           0.0000              RECHARGE =           0.0000
      STREAM LEAKAGE =    46662439.9749        STREAM LEAKAGE =       38476.6328

           TOTAL OUT =    80766364.0865             TOTAL OUT =       90525.8645

            IN - OUT =          -2.4563              IN - OUT =      -5.2543E-03

 PERCENT DISCREPANCY =          -0.00     PERCENT DISCREPANCY =          -0.00






         TIME SUMMARY AT END OF TIME STEP    1 IN STRESS PERIOD    7
                    SECONDS     MINUTES      HOURS       DAYS        YEARS
                    -----------------------------------------------------------
   TIME STEP LENGTH 7.86240E+06 1.31040E+05  2184.0      91.000     0.24914    
 STRESS PERIOD TIME 7.86240E+06 1.31040E+05  2184.0      91.000     0.24914    
         TOTAL TIME 5.52096E+07 9.20160E+05  15336.      639.00      1.7495    
1
1
                            STRESS PERIOD NO.    8, LENGTH =   91.00000    
                            -----------------------------------------------

                              NUMBER OF TIME STEPS =     1

                               MULTIPLIER FOR DELT =     1.500

                            INITIAL TIME STEP SIZE =   91.00000    

 WELL NO.  LAYER   ROW   COL   STRESS RATE         
 --------------------------------------------------
      1      1     19     29     -0.1190E+05
      2      1     13     22     -0.1207E+05
      3      1     11     24     -0.1308E+05
      4      1     17     29     -0.1500E+05

      4 WELLS

                 RECHARGE =  1.000000E-03

 REUSING STREAM SEGMENT DATA FROM LAST STRESS PERIOD
 
 SOLVING FOR HEAD 


     6 CALLS TO PCG ROUTINE FOR TIME STEP   1 IN STRESS PERIOD    8
    22 TOTAL ITERATIONS

 OUTPUT CONTROL FOR STRESS PERIOD    8   TIME STEP    1
    SAVE BUDGET
    SAVE HEAD FOR ALL LAYERS
    PRINT HEAD FOR ALL LAYERS
 UBDSV2 SAVING "STREAMFLOW OUT  " ON UNIT  50 AT TIME STEP  1, STRESS PERIOD   8



 STREAM LISTING     PERIOD      8   STEP        1

 LAYER ROW COL. STREAM  RCH.  FLOW INTO     FLOW TO   FLOW OUT OF   OVRLND.     DIRECT     STREAM       STREAM     STREAM     STREAM   STREAMBED  STREAMBED
                SEG.NO.  NO.  STRM. RCH.    AQUIFER    STRM. RCH.    RUNOFF     PRECIP       ET          HEAD       DEPTH      WIDTH   CONDCTNC.   GRADIENT

   1   13    1     1     1    1.0000E+05 -1.8953E+03   1.0190E+05  0.000E+00  0.000E+00  0.000E+00  4.84068E+01  1.455E-01  2.000E+01  2.000E+04 -9.477E-02
   1   13    2     1     2    1.0190E+05 -2.8692E+03   1.0476E+05  0.000E+00  0.000E+00  0.000E+00  4.79316E+01  1.475E-01  2.000E+01  2.000E+04 -1.435E-01
   1   14    3     1     3    1.0476E+05 -4.8120E+02   1.0525E+05  0.000E+00  0.000E+00  0.000E+00  4.74558E+01  1.490E-01  2.000E+01  2.000E+04 -2.406E-02
   1   15    4     1     4    1.0525E+05 -4.5290E+02   1.0570E+05  0.000E+00  0.000E+00  0.000E+00  4.69789E+01  1.494E-01  2.000E+01  2.000E+04 -2.264E-02
   1   16    5     1     5    1.0570E+05 -1.6713E+03   1.0737E+05  0.000E+00  0.000E+00  0.000E+00  4.65025E+01  1.503E-01  2.000E+01  2.000E+04 -8.356E-02
   1   16    6     1     6    1.0737E+05 -1.0677E+03   1.0844E+05  0.000E+00  0.000E+00  0.000E+00  4.60264E+01  1.514E-01  2.000E+01  2.000E+04 -5.339E-02
   1   16    7     1     7    1.0844E+05 -1.0531E+03   1.0949E+05  0.000E+00  0.000E+00  0.000E+00  4.55500E+01  1.523E-01  2.000E+01  2.000E+04 -5.266E-02
   1   16    8     1     8    1.0949E+05 -1.0526E+03   1.1054E+05  0.000E+00  0.000E+00  0.000E+00  4.50736E+01  1.532E-01  2.000E+01  2.000E+04 -5.263E-02
   1   16    9     1     9    1.1054E+05 -1.0484E+03   1.1159E+05  0.000E+00  0.000E+00  0.000E+00  4.45972E+01  1.541E-01  2.000E+01  2.000E+04 -5.242E-02
   1   16   10     1    10    1.1159E+05 -1.0405E+03   1.1263E+05  0.000E+00  0.000E+00  0.000E+00  4.41208E+01  1.549E-01  2.000E+01  2.000E+04 -5.202E-02
   1   16   11     1    11    1.1263E+05 -1.0491E+03   1.1368E+05  0.000E+00  0.000E+00  0.000E+00  4.36444E+01  1.558E-01  2.000E+01  2.000E+04 -5.245E-02
   1   16   12     1    12    1.1368E+05 -1.7949E+03   1.1548E+05  0.000E+00  0.000E+00  0.000E+00  4.31683E+01  1.570E-01  2.000E+01  2.000E+04 -8.975E-02
   1   15   13     1    13    1.1548E+05 -1.7227E+03   1.1720E+05  0.000E+00  0.000E+00  0.000E+00  4.26925E+01  1.584E-01  2.000E+01  2.000E+04 -8.614E-02
   1   14   14     1    14    1.1720E+05 -1.9958E+03   1.1919E+05  0.000E+00  0.000E+00  0.000E+00  4.22167E+01  1.599E-01  2.000E+01  2.000E+04 -9.979E-02
   1   13   15     1    15    1.1919E+05 -2.2870E+03   1.2148E+05  0.000E+00  0.000E+00  0.000E+00  4.17412E+01  1.616E-01  2.000E+01  2.000E+04 -1.144E-01
   1   12   16     1    16    1.2148E+05 -2.8637E+03   1.2435E+05  0.000E+00  0.000E+00  0.000E+00  4.12660E+01  1.637E-01  2.000E+01  2.000E+04 -1.432E-01
   1   12   17     1    17    1.2435E+05 -1.8187E+03   1.2616E+05  0.000E+00  0.000E+00  0.000E+00  4.07906E+01  1.656E-01  2.000E+01  2.000E+04 -9.093E-02
   1   12   18     1    18    1.2616E+05 -1.6329E+03   1.2780E+05  0.000E+00  0.000E+00  0.000E+00  4.03147E+01  1.669E-01  2.000E+01  2.000E+04 -8.165E-02
   1   12   19     1    19    1.2780E+05 -1.4796E+03   1.2928E+05  0.000E+00  0.000E+00  0.000E+00  3.98386E+01  1.682E-01  2.000E+01  2.000E+04 -7.398E-02
   1   13   20     1    20    1.2928E+05  3.5487E+02   1.2892E+05  0.000E+00  0.000E+00  0.000E+00  3.93618E+01  1.686E-01  2.000E+01  2.000E+04  1.774E-02
   1   14   21     1    21    1.2892E+05  7.5068E+01   1.2885E+05  0.000E+00  0.000E+00  0.000E+00  3.88843E+01  1.684E-01  2.000E+01  2.000E+04  3.753E-03
   1   14   22     1    22    1.2885E+05  6.7292E+03   1.2212E+05  0.000E+00  0.000E+00  0.000E+00  3.84044E+01  1.658E-01  2.000E+01  2.000E+04  3.365E-01
   1    9   30     2     1    5.0000E+04 -3.8196E+02   5.0382E+04  0.000E+00  0.000E+00  0.000E+00  4.02411E+01  1.161E-01  2.000E+01  2.000E+04 -1.910E-02
   1    9   29     2     2    5.0382E+04 -6.8566E+02   5.1068E+04  0.000E+00  0.000E+00  0.000E+00  3.99919E+01  1.169E-01  2.000E+01  2.000E+04 -3.428E-02
   1    9   28     2     3    5.1068E+04 -9.3722E+02   5.2005E+04  0.000E+00  0.000E+00  0.000E+00  3.97430E+01  1.180E-01  2.000E+01  2.000E+04 -4.686E-02
   1    9   27     2     4    5.2005E+04 -1.9299E+03   5.3935E+04  0.000E+00  0.000E+00  0.000E+00  3.94949E+01  1.199E-01  2.000E+01  2.000E+04 -9.650E-02
   1   10   26     2     5    5.3935E+04 -5.0450E+02   5.4439E+04  0.000E+00  0.000E+00  0.000E+00  3.92466E+01  1.216E-01  2.000E+01  2.000E+04 -2.523E-02
   1   11   25     2     6    5.4439E+04  3.5548E+03   5.0884E+04  0.000E+00  0.000E+00  0.000E+00  3.89945E+01  1.195E-01  2.000E+01  2.000E+04  1.777E-01
   1   12   24     2     7    5.0884E+04  4.2827E+03   4.6602E+04  0.000E+00  0.000E+00  0.000E+00  3.87391E+01  1.141E-01  2.000E+01  2.000E+04  2.141E-01
   1   13   23     2     8    4.6602E+04  9.6361E+02   4.5638E+04  0.000E+00  0.000E+00  0.000E+00  3.84854E+01  1.104E-01  2.000E+01  2.000E+04  4.818E-02
   1   14   22     2     9    4.5638E+04  3.2874E+03   4.2351E+04  0.000E+00  0.000E+00  0.000E+00  3.82323E+01  1.073E-01  2.000E+01  2.000E+04  1.644E-01
   1   14   22     3     1    1.6447E+05 -6.9708E+03   1.7144E+05  0.000E+00  0.000E+00  0.000E+00  3.77194E+01  1.638E-01  2.000E+01  2.000E+04 -3.485E-01
   1   15   23     3     2    1.7144E+05 -5.0774E+02   1.7195E+05  0.000E+00  0.000E+00  0.000E+00  3.68327E+01  1.660E-01  2.000E+01  2.000E+04 -2.539E-02
   1   15   24     3     3    1.7195E+05 -2.5511E+02   1.7220E+05  0.000E+00  0.000E+00  0.000E+00  3.59440E+01  1.662E-01  2.000E+01  2.000E+04 -1.276E-02
   1   15   25     3     4    1.7220E+05 -2.3757E+02   1.7244E+05  0.000E+00  0.000E+00  0.000E+00  3.50553E+01  1.664E-01  2.000E+01  2.000E+04 -1.188E-02
   1   15   26     3     5    1.7244E+05 -2.1114E+02   1.7265E+05  0.000E+00  0.000E+00  0.000E+00  3.41665E+01  1.665E-01  2.000E+01  2.000E+04 -1.056E-02
   1   16   27     3     6    1.7265E+05  1.4194E+01   1.7264E+05  0.000E+00  0.000E+00  0.000E+00  3.32777E+01  1.666E-01  2.000E+01  2.000E+04  7.097E-04
   1   17   28     3     7    1.7264E+05  5.7110E+03   1.6693E+05  0.000E+00  0.000E+00  0.000E+00  3.23871E+01  1.649E-01  2.000E+01  2.000E+04  2.856E-01
   1   18   29     3     8    1.6693E+05  8.0688E+03   1.5886E+05  0.000E+00  0.000E+00  0.000E+00  3.14942E+01  1.609E-01  2.000E+01  2.000E+04  4.034E-01
   1   18   30     3     9    1.5886E+05  2.2250E+03   1.5663E+05  0.000E+00  0.000E+00  0.000E+00  3.06022E+01  1.578E-01  2.000E+01  2.000E+04  1.113E-01



1
              HEAD IN LAYER   1 AT END OF TIME STEP   1 IN STRESS PERIOD    8
  ---------------------------------------------------------------------------

          1      2      3      4      5      6      7      8      9     10
         11     12     13     14     15     16     17     18     19     20
         21     22     23     24     25     26     27     28     29     30
 .........................................................................
   1  ****** ****** ****** ****** ****** ****** ****** ****** ****** ******
      ****** ****** ****** ****** ****** ****** ****** ****** ****** ******
      ****** ****** ****** ****** ****** ****** ****** ****** ****** ******
   2  ****** ****** ****** ****** ****** ****** ****** ****** ****** ******
      ****** ****** ****** ****** ****** ****** ****** ****** ****** ******
      ****** ****** ****** ****** ****** ****** ****** ****** ****** ******
   3  ****** ****** ****** ****** ****** ****** ****** ****** ****** ******
      ****** ****** ****** ****** ****** ****** ****** ****** ****** ******
      ****** ****** ****** ****** ****** ****** ****** ****** ****** ******
   4  ****** ****** ****** ****** ****** ****** ****** ****** ****** ******
      ****** ****** ****** ****** ****** ****** ****** ****** ****** ******
      ****** ****** ****** ****** ****** ****** ****** ****** ****** ******
   5  ****** ****** ****** ****** ****** ****** ****** ****** ****** ******
      ****** ****** ****** ****** ****** ****** ****** ****** ****** ******
      ****** ****** ****** ****** ****** ****** ****** ****** ****** ******
   6  ****** ****** ****** ****** ****** ****** ****** ****** ****** ******
      ****** ****** ****** ****** ****** ****** ****** ****** ****** ******
      ****** ****** ****** ****** ****** ****** ****** ****** ****** ******
   7  ****** ****** ****** ****** ****** ****** ****** ****** ****** ******
      ****** ****** ****** ****** ****** ****** ****** ****** ****** ******
      ****** ****** ****** ****** ****** ****** ****** ****** ****** ******
   8  ****** ****** ****** ****** ****** ****** ****** ****** ****** ******
      ****** ****** ****** ****** ****** ****** ****** ****** ****** ******
      ****** ****** ****** ****** ****** ****** ****** ****** ****** ******
   9  ****** ****** ****** ****** ****** ****** ****** ****** ****** ******
      ****** ****** ****** ****** ****** ****** ****** ****** ****** ******
      ****** ****** ****** ****** ****** ****** ****** ****** ****** ******
  10  ****** ****** ****** ****** ****** ****** ****** ****** ****** ******
      ****** ****** ****** ****** ****** ****** ****** ****** ****** ******
      ****** ****** ****** ****** ****** ****** ****** ****** ****** ******
  11  ****** ****** ****** ****** ****** ****** ****** ****** ****** ******
      ****** ****** ****** ****** ****** ****** ****** ****** ****** ******
      ****** ****** ****** ****** ****** ****** ****** ****** ****** ******
  12  ****** ****** ****** ****** ****** ****** ****** ****** ****** ******
      ****** ****** ****** ****** ****** ****** ****** ****** ****** ******
      ****** ****** ****** ****** ****** ****** ****** ****** ****** ******
  13  ****** ****** ****** ****** ****** ****** ****** ****** ****** ******
      ****** ****** ****** ****** ****** ****** ****** ****** ****** ******
      ****** ****** ****** ****** ****** ****** ****** ****** ****** ******
  14  ****** ****** ****** ****** ****** ****** ****** ****** ****** ******
      ****** ****** ****** ****** ****** ****** ****** ****** ****** ******
      ****** ****** ****** ****** ****** ****** ****** ****** ****** ******
  15  ****** ****** ****** ****** ****** ****** ****** ****** ****** ******
      ****** ****** ****** ****** ****** ****** ****** ****** ****** ******
      ****** ****** ****** ****** ****** ****** ****** ****** ****** ******
  16  ****** ****** ****** ****** ****** ****** ****** ****** ****** ******
      ****** ****** ****** ****** ****** ****** ****** ****** ****** ******
      ****** ****** ****** ****** ****** ****** ****** ****** ****** ******
  17  ****** ****** ****** ****** ****** ****** ****** ****** ****** ******
      ****** ****** ****** ****** ****** ****** ****** ****** ****** ******
      ****** ****** ****** ****** ****** ****** ****** ****** ****** ******
  18  ****** ****** ****** ****** ****** ****** ****** ****** ****** ******
      ****** ****** ****** ****** ****** ****** ****** ****** ****** ******
      ****** ****** ****** ****** ****** ****** ****** ****** ****** ******
  19  ****** ****** ****** ****** ****** ****** ****** ****** ****** ******
      ****** ****** ****** ****** ****** ****** ****** ****** ****** ******
      ****** ****** ****** ****** ****** ****** ****** ****** ****** ******
  20  ****** ****** ****** ****** ****** ****** ****** ****** ****** ******
      ****** ****** ****** ****** ****** ****** ****** ****** ****** ******
      ****** ****** ****** ****** ****** ****** ****** ****** ****** ******
  21  ****** ****** ****** ****** ****** ****** ****** ****** ****** ******
      ****** ****** ****** ****** ****** ****** ****** ****** ****** ******
      ****** ****** ****** ****** ****** ****** ****** ****** ****** ******
  22  ****** ****** ****** ****** ****** ****** ****** ****** ****** ******
      ****** ****** ****** ****** ****** ****** ****** ****** ****** ******
      ****** ****** ****** ****** ****** ****** ****** ****** ****** ******
  23  ****** ****** ****** ****** ****** ****** ****** ****** ****** ******
      ****** ****** ****** ****** ****** ****** ****** ****** ****** ******
      ****** ****** ****** ****** ****** ****** ****** ****** ****** ******
  24  ****** ****** ****** ****** ****** ****** ****** ****** ****** ******
      ****** ****** ****** ****** ****** ****** ****** ****** ****** ******
      ****** ****** ****** ****** ****** ****** ****** ****** ****** ******
  25  ****** ****** ****** ****** ****** ****** ****** ****** ****** ******
      ****** ****** ****** ****** ****** ****** ****** ****** ****** ******
      ****** ****** ****** ****** ****** ****** ****** ****** ****** ******

 HEAD WILL BE SAVED ON UNIT   51 AT END OF TIME STEP    1, STRESS PERIOD    8
1
  VOLUMETRIC BUDGET FOR ENTIRE MODEL AT END OF TIME STEP    1, STRESS PERIOD   8
  ------------------------------------------------------------------------------

     CUMULATIVE VOLUMES      L**3       RATES FOR THIS TIME STEP      L**3/T
     ------------------                 ------------------------

           IN:                                      IN:
           ---                                      ---
             STORAGE =    31923988.0255               STORAGE =        1305.9782
       CONSTANT HEAD =    18308657.6847         CONSTANT HEAD =       31390.5665
               WELLS =           0.0000                 WELLS =           0.0000
            RECHARGE =    17608800.0000              RECHARGE =       27600.0000
      STREAM LEAKAGE =    21621167.4710        STREAM LEAKAGE =       35266.6592

            TOTAL IN =    89462613.1812              TOTAL IN =       95563.2039

          OUT:                                     OUT:
          ----                                     ----
             STORAGE =      991494.6888               STORAGE =        1615.7098
       CONSTANT HEAD =           0.0000         CONSTANT HEAD =           0.0000
               WELLS =    37995939.0979                 WELLS =       52049.2316
            RECHARGE =           0.0000              RECHARGE =           0.0000
      STREAM LEAKAGE =    50475181.0892        STREAM LEAKAGE =       41898.2540

           TOTAL OUT =    89462614.8760             TOTAL OUT =       95563.1955

            IN - OUT =          -1.6948              IN - OUT =       8.3681E-03

 PERCENT DISCREPANCY =          -0.00     PERCENT DISCREPANCY =           0.00






         TIME SUMMARY AT END OF TIME STEP    1 IN STRESS PERIOD    8
                    SECONDS     MINUTES      HOURS       DAYS        YEARS
                    -----------------------------------------------------------
   TIME STEP LENGTH 7.86240E+06 1.31040E+05  2184.0      91.000     0.24914    
 STRESS PERIOD TIME 7.86240E+06 1.31040E+05  2184.0      91.000     0.24914    
         TOTAL TIME 6.30720E+07 1.05120E+06  17520.      730.00      1.9986    
1
1
                            STRESS PERIOD NO.    9, LENGTH =   92.00000    
                            -----------------------------------------------

                              NUMBER OF TIME STEPS =     1

                               MULTIPLIER FOR DELT =     1.500

                            INITIAL TIME STEP SIZE =   92.00000    

 WELL NO.  LAYER   ROW   COL   STRESS RATE         
 --------------------------------------------------
      1      1     19     29     -0.1190E+05
      2      1     13     22     -0.1207E+05
      3      1     11     24     -0.1308E+05
      4      1     17     29     -0.1500E+05

      4 WELLS

                 RECHARGE =  5.000000E-04

 REUSING STREAM SEGMENT DATA FROM LAST STRESS PERIOD
 
 SOLVING FOR HEAD 


     6 CALLS TO PCG ROUTINE FOR TIME STEP   1 IN STRESS PERIOD    9
    23 TOTAL ITERATIONS

 OUTPUT CONTROL FOR STRESS PERIOD    9   TIME STEP    1
    SAVE BUDGET
    SAVE HEAD FOR ALL LAYERS
    PRINT HEAD FOR ALL LAYERS
 UBDSV2 SAVING "STREAMFLOW OUT  " ON UNIT  50 AT TIME STEP  1, STRESS PERIOD   9



 STREAM LISTING     PERIOD      9   STEP        1

 LAYER ROW COL. STREAM  RCH.  FLOW INTO     FLOW TO   FLOW OUT OF   OVRLND.     DIRECT     STREAM       STREAM     STREAM     STREAM   STREAMBED  STREAMBED
                SEG.NO.  NO.  STRM. RCH.    AQUIFER    STRM. RCH.    RUNOFF     PRECIP       ET          HEAD       DEPTH      WIDTH   CONDCTNC.   GRADIENT

   1   13    1     1     1    1.0000E+05 -1.6853E+03   1.0169E+05  0.000E+00  0.000E+00  0.000E+00  4.84067E+01  1.454E-01  2.000E+01  2.000E+04 -8.427E-02
   1   13    2     1     2    1.0169E+05 -2.6316E+03   1.0432E+05  0.000E+00  0.000E+00  0.000E+00  4.79313E+01  1.472E-01  2.000E+01  2.000E+04 -1.316E-01
   1   14    3     1     3    1.0432E+05 -4.1114E+02   1.0473E+05  0.000E+00  0.000E+00  0.000E+00  4.74554E+01  1.485E-01  2.000E+01  2.000E+04 -2.056E-02
   1   15    4     1     4    1.0473E+05 -3.8170E+02   1.0511E+05  0.000E+00  0.000E+00  0.000E+00  4.69784E+01  1.489E-01  2.000E+01  2.000E+04 -1.908E-02
   1   16    5     1     5    1.0511E+05 -1.4798E+03   1.0659E+05  0.000E+00  0.000E+00  0.000E+00  4.65019E+01  1.497E-01  2.000E+01  2.000E+04 -7.399E-02
   1   16    6     1     6    1.0659E+05 -9.4854E+02   1.0754E+05  0.000E+00  0.000E+00  0.000E+00  4.60257E+01  1.507E-01  2.000E+01  2.000E+04 -4.743E-02
   1   16    7     1     7    1.0754E+05 -9.3768E+02   1.0848E+05  0.000E+00  0.000E+00  0.000E+00  4.55492E+01  1.515E-01  2.000E+01  2.000E+04 -4.688E-02
   1   16    8     1     8    1.0848E+05 -9.3874E+02   1.0941E+05  0.000E+00  0.000E+00  0.000E+00  4.50727E+01  1.523E-01  2.000E+01  2.000E+04 -4.694E-02
   1   16    9     1     9    1.0941E+05 -9.3610E+02   1.1035E+05  0.000E+00  0.000E+00  0.000E+00  4.45962E+01  1.531E-01  2.000E+01  2.000E+04 -4.680E-02
   1   16   10     1    10    1.1035E+05 -9.3008E+02   1.1128E+05  0.000E+00  0.000E+00  0.000E+00  4.41198E+01  1.538E-01  2.000E+01  2.000E+04 -4.650E-02
   1   16   11     1    11    1.1128E+05 -9.3955E+02   1.1222E+05  0.000E+00  0.000E+00  0.000E+00  4.36433E+01  1.546E-01  2.000E+01  2.000E+04 -4.698E-02
   1   16   12     1    12    1.1222E+05 -1.6078E+03   1.1383E+05  0.000E+00  0.000E+00  0.000E+00  4.31670E+01  1.557E-01  2.000E+01  2.000E+04 -8.039E-02
   1   15   13     1    13    1.1383E+05 -1.5152E+03   1.1534E+05  0.000E+00  0.000E+00  0.000E+00  4.26911E+01  1.570E-01  2.000E+01  2.000E+04 -7.576E-02
   1   14   14     1    14    1.1534E+05 -1.7754E+03   1.1712E+05  0.000E+00  0.000E+00  0.000E+00  4.22151E+01  1.583E-01  2.000E+01  2.000E+04 -8.877E-02
   1   13   15     1    15    1.1712E+05 -2.0613E+03   1.1918E+05  0.000E+00  0.000E+00  0.000E+00  4.17394E+01  1.599E-01  2.000E+01  2.000E+04 -1.031E-01
   1   12   16     1    16    1.1918E+05 -2.6308E+03   1.2181E+05  0.000E+00  0.000E+00  0.000E+00  4.12640E+01  1.618E-01  2.000E+01  2.000E+04 -1.315E-01
   1   12   17     1    17    1.2181E+05 -1.6581E+03   1.2347E+05  0.000E+00  0.000E+00  0.000E+00  4.07885E+01  1.635E-01  2.000E+01  2.000E+04 -8.290E-02
   1   12   18     1    18    1.2347E+05 -1.4795E+03   1.2495E+05  0.000E+00  0.000E+00  0.000E+00  4.03125E+01  1.647E-01  2.000E+01  2.000E+04 -7.397E-02
   1   12   19     1    19    1.2495E+05 -1.2948E+03   1.2624E+05  0.000E+00  0.000E+00  0.000E+00  3.98363E+01  1.658E-01  2.000E+01  2.000E+04 -6.474E-02
   1   13   20     1    20    1.2624E+05  5.2726E+02   1.2572E+05  0.000E+00  0.000E+00  0.000E+00  3.93593E+01  1.662E-01  2.000E+01  2.000E+04  2.636E-02
   1   14   21     1    21    1.2572E+05  2.4591E+02   1.2547E+05  0.000E+00  0.000E+00  0.000E+00  3.88818E+01  1.658E-01  2.000E+01  2.000E+04  1.230E-02
   1   14   22     1    22    1.2547E+05  6.7692E+03   1.1870E+05  0.000E+00  0.000E+00  0.000E+00  3.84017E+01  1.631E-01  2.000E+01  2.000E+04  3.385E-01
   1    9   30     2     1    5.0000E+04 -2.5913E+02   5.0259E+04  0.000E+00  0.000E+00  0.000E+00  4.02410E+01  1.160E-01  2.000E+01  2.000E+04 -1.296E-02
   1    9   29     2     2    5.0259E+04 -5.6265E+02   5.0822E+04  0.000E+00  0.000E+00  0.000E+00  3.99916E+01  1.166E-01  2.000E+01  2.000E+04 -2.813E-02
   1    9   28     2     3    5.0822E+04 -8.1241E+02   5.1634E+04  0.000E+00  0.000E+00  0.000E+00  3.97426E+01  1.176E-01  2.000E+01  2.000E+04 -4.062E-02
   1    9   27     2     4    5.1634E+04 -1.7547E+03   5.3389E+04  0.000E+00  0.000E+00  0.000E+00  3.94943E+01  1.193E-01  2.000E+01  2.000E+04 -8.773E-02
   1   10   26     2     5    5.3389E+04 -3.3195E+02   5.3721E+04  0.000E+00  0.000E+00  0.000E+00  3.92457E+01  1.207E-01  2.000E+01  2.000E+04 -1.660E-02
   1   11   25     2     6    5.3721E+04  3.7199E+03   5.0001E+04  0.000E+00  0.000E+00  0.000E+00  3.89934E+01  1.184E-01  2.000E+01  2.000E+04  1.860E-01
   1   12   24     2     7    5.0001E+04  4.4344E+03   4.5567E+04  0.000E+00  0.000E+00  0.000E+00  3.87378E+01  1.128E-01  2.000E+01  2.000E+04  2.217E-01
   1   13   23     2     8    4.5567E+04  1.0105E+03   4.4556E+04  0.000E+00  0.000E+00  0.000E+00  3.84839E+01  1.089E-01  2.000E+01  2.000E+04  5.053E-02
   1   14   22     2     9    4.4556E+04  3.3488E+03   4.1207E+04  0.000E+00  0.000E+00  0.000E+00  3.82307E+01  1.057E-01  2.000E+01  2.000E+04  1.674E-01
   1   14   22     3     1    1.5991E+05 -6.9306E+03   1.6684E+05  0.000E+00  0.000E+00  0.000E+00  3.77167E+01  1.611E-01  2.000E+01  2.000E+04 -3.465E-01
   1   15   23     3     2    1.6684E+05 -4.5532E+02   1.6729E+05  0.000E+00  0.000E+00  0.000E+00  3.68300E+01  1.633E-01  2.000E+01  2.000E+04 -2.277E-02
   1   15   24     3     3    1.6729E+05 -2.1217E+02   1.6751E+05  0.000E+00  0.000E+00  0.000E+00  3.59413E+01  1.635E-01  2.000E+01  2.000E+04 -1.061E-02
   1   15   25     3     4    1.6751E+05 -1.9436E+02   1.6770E+05  0.000E+00  0.000E+00  0.000E+00  3.50525E+01  1.636E-01  2.000E+01  2.000E+04 -9.718E-03
   1   15   26     3     5    1.6770E+05 -1.6358E+02   1.6786E+05  0.000E+00  0.000E+00  0.000E+00  3.41637E+01  1.637E-01  2.000E+01  2.000E+04 -8.179E-03
   1   16   27     3     6    1.6786E+05  7.0133E+01   1.6779E+05  0.000E+00  0.000E+00  0.000E+00  3.32749E+01  1.638E-01  2.000E+01  2.000E+04  3.507E-03
   1   17   28     3     7    1.6779E+05  5.8643E+03   1.6193E+05  0.000E+00  0.000E+00  0.000E+00  3.23842E+01  1.620E-01  2.000E+01  2.000E+04  2.932E-01
   1   18   29     3     8    1.6193E+05  8.2443E+03   1.5369E+05  0.000E+00  0.000E+00  0.000E+00  3.14912E+01  1.578E-01  2.000E+01  2.000E+04  4.122E-01
   1   18   30     3     9    1.5369E+05  2.3569E+03   1.5133E+05  0.000E+00  0.000E+00  0.000E+00  3.05991E+01  1.546E-01  2.000E+01  2.000E+04  1.178E-01



1
              HEAD IN LAYER   1 AT END OF TIME STEP   1 IN STRESS PERIOD    9
  ---------------------------------------------------------------------------

          1      2      3      4      5      6      7      8      9     10
         11     12     13     14     15     16     17     18     19     20
         21     22     23     24     25     26     27     28     29     30
 .........................................................................
   1  ****** ****** ****** ****** ****** ****** ****** ****** ****** ******
      ****** ****** ****** ****** ****** ****** ****** ****** ****** ******
      ****** ****** ****** ****** ****** ****** ****** ****** ****** ******
   2  ****** ****** ****** ****** ****** ****** ****** ****** ****** ******
      ****** ****** ****** ****** ****** ****** ****** ****** ****** ******
      ****** ****** ****** ****** ****** ****** ****** ****** ****** ******
   3  ****** ****** ****** ****** ****** ****** ****** ****** ****** ******
      ****** ****** ****** ****** ****** ****** ****** ****** ****** ******
      ****** ****** ****** ****** ****** ****** ****** ****** ****** ******
   4  ****** ****** ****** ****** ****** ****** ****** ****** ****** ******
      ****** ****** ****** ****** ****** ****** ****** ****** ****** ******
      ****** ****** ****** ****** ****** ****** ****** ****** ****** ******
   5  ****** ****** ****** ****** ****** ****** ****** ****** ****** ******
      ****** ****** ****** ****** ****** ****** ****** ****** ****** ******
      ****** ****** ****** ****** ****** ****** ****** ****** ****** ******
   6  ****** ****** ****** ****** ****** ****** ****** ****** ****** ******
      ****** ****** ****** ****** ****** ****** ****** ****** ****** ******
      ****** ****** ****** ****** ****** ****** ****** ****** ****** ******
   7  ****** ****** ****** ****** ****** ****** ****** ****** ****** ******
      ****** ****** ****** ****** ****** ****** ****** ****** ****** ******
      ****** ****** ****** ****** ****** ****** ****** ****** ****** ******
   8  ****** ****** ****** ****** ****** ****** ****** ****** ****** ******
      ****** ****** ****** ****** ****** ****** ****** ****** ****** ******
      ****** ****** ****** ****** ****** ****** ****** ****** ****** ******
   9  ****** ****** ****** ****** ****** ****** ****** ****** ****** ******
      ****** ****** ****** ****** ****** ****** ****** ****** ****** ******
      ****** ****** ****** ****** ****** ****** ****** ****** ****** ******
  10  ****** ****** ****** ****** ****** ****** ****** ****** ****** ******
      ****** ****** ****** ****** ****** ****** ****** ****** ****** ******
      ****** ****** ****** ****** ****** ****** ****** ****** ****** ******
  11  ****** ****** ****** ****** ****** ****** ****** ****** ****** ******
      ****** ****** ****** ****** ****** ****** ****** ****** ****** ******
      ****** ****** ****** ****** ****** ****** ****** ****** ****** ******
  12  ****** ****** ****** ****** ****** ****** ****** ****** ****** ******
      ****** ****** ****** ****** ****** ****** ****** ****** ****** ******
      ****** ****** ****** ****** ****** ****** ****** ****** ****** ******
  13  ****** ****** ****** ****** ****** ****** ****** ****** ****** ******
      ****** ****** ****** ****** ****** ****** ****** ****** ****** ******
      ****** ****** ****** ****** ****** ****** ****** ****** ****** ******
  14  ****** ****** ****** ****** ****** ****** ****** ****** ****** ******
      ****** ****** ****** ****** ****** ****** ****** ****** ****** ******
      ****** ****** ****** ****** ****** ****** ****** ****** ****** ******
  15  ****** ****** ****** ****** ****** ****** ****** ****** ****** ******
      ****** ****** ****** ****** ****** ****** ****** ****** ****** ******
      ****** ****** ****** ****** ****** ****** ****** ****** ****** ******
  16  ****** ****** ****** ****** ****** ****** ****** ****** ****** ******
      ****** ****** ****** ****** ****** ****** ****** ****** ****** ******
      ****** ****** ****** ****** ****** ****** ****** ****** ****** ******
  17  ****** ****** ****** ****** ****** ****** ****** ****** ****** ******
      ****** ****** ****** ****** ****** ****** ****** ****** ****** ******
      ****** ****** ****** ****** ****** ****** ****** ****** ****** ******
  18  ****** ****** ****** ****** ****** ****** ****** ****** ****** ******
      ****** ****** ****** ****** ****** ****** ****** ****** ****** ******
      ****** ****** ****** ****** ****** ****** ****** ****** ****** ******
  19  ****** ****** ****** ****** ****** ****** ****** ****** ****** ******
      ****** ****** ****** ****** ****** ****** ****** ****** ****** ******
      ****** ****** ****** ****** ****** ****** ****** ****** ****** ******
  20  ****** ****** ****** ****** ****** ****** ****** ****** ****** ******
      ****** ****** ****** ****** ****** ****** ****** ****** ****** ******
      ****** ****** ****** ****** ****** ****** ****** ****** ****** ******
  21  ****** ****** ****** ****** ****** ****** ****** ****** ****** ******
      ****** ****** ****** ****** ****** ****** ****** ****** ****** ******
      ****** ****** ****** ****** ****** ****** ****** ****** ****** ******
  22  ****** ****** ****** ****** ****** ****** ****** ****** ****** ******
      ****** ****** ****** ****** ****** ****** ****** ****** ****** ******
      ****** ****** ****** ****** ****** ****** ****** ****** ****** ******
  23  ****** ****** ****** ****** ****** ****** ****** ****** ****** ******
      ****** ****** ****** ****** ****** ****** ****** ****** ****** ******
      ****** ****** ****** ****** ****** ****** ****** ****** ****** ******
  24  ****** ****** ****** ****** ****** ****** ****** ****** ****** ******
      ****** ****** ****** ****** ****** ****** ****** ****** ****** ******
      ****** ****** ****** ****** ****** ****** ****** ****** ****** ******
  25  ****** ****** ****** ****** ****** ****** ****** ****** ****** ******
      ****** ****** ****** ****** ****** ****** ****** ****** ****** ******
      ****** ****** ****** ****** ****** ****** ****** ****** ****** ******

 HEAD WILL BE SAVED ON UNIT   51 AT END OF TIME STEP    1, STRESS PERIOD    9
1
  VOLUMETRIC BUDGET FOR ENTIRE MODEL AT END OF TIME STEP    1, STRESS PERIOD   9
  ------------------------------------------------------------------------------

     CUMULATIVE VOLUMES      L**3       RATES FOR THIS TIME STEP      L**3/T
     ------------------                 ------------------------

           IN:                                      IN:
           ---                                      ---
             STORAGE =    32571723.0576               STORAGE =        7040.5982
       CONSTANT HEAD =    21302054.6024         CONSTANT HEAD =       32536.9230
               WELLS =           0.0000                 WELLS =           0.0000
            RECHARGE =    18878400.0000              RECHARGE =       13800.0000
      STREAM LEAKAGE =    24987602.4853        STREAM LEAKAGE =       36591.6849

            TOTAL IN =    97739780.1453              TOTAL IN =       89969.2061

          OUT:                                     OUT:
          ----                                     ----
             STORAGE =      991494.6888               STORAGE =           0.0000
       CONSTANT HEAD =           0.0000         CONSTANT HEAD =           0.0000
               WELLS =    42784468.4089                 WELLS =       52049.2316
            RECHARGE =           0.0000              RECHARGE =           0.0000
      STREAM LEAKAGE =    53963818.8084        STREAM LEAKAGE =       37919.9752

           TOTAL OUT =    97739781.9061             TOTAL OUT =       89969.2068

            IN - OUT =          -1.7608              IN - OUT =      -7.1744E-04

 PERCENT DISCREPANCY =          -0.00     PERCENT DISCREPANCY =          -0.00






         TIME SUMMARY AT END OF TIME STEP    1 IN STRESS PERIOD    9
                    SECONDS     MINUTES      HOURS       DAYS        YEARS
                    -----------------------------------------------------------
   TIME STEP LENGTH 7.94880E+06 1.32480E+05  2208.0      92.000     0.25188    
 STRESS PERIOD TIME 7.94880E+06 1.32480E+05  2208.0      92.000     0.25188    
         TOTAL TIME 7.10208E+07 1.18368E+06  19728.      822.00      2.2505    
1
1
                            STRESS PERIOD NO.   10, LENGTH =   91.00000    
                            -----------------------------------------------

                              NUMBER OF TIME STEPS =     1

                               MULTIPLIER FOR DELT =     1.500

                            INITIAL TIME STEP SIZE =   91.00000    

 WELL NO.  LAYER   ROW   COL   STRESS RATE         
 --------------------------------------------------
      1      1     19     29     -0.1190E+05
      2      1     13     22     -0.1207E+05
      3      1     11     24     -0.1308E+05
      4      1     17     29     -0.1500E+05

      4 WELLS

                 RECHARGE =  2.000000E-03

 REUSING STREAM SEGMENT DATA FROM LAST STRESS PERIOD
 
 SOLVING FOR HEAD 


     7 CALLS TO PCG ROUTINE FOR TIME STEP   1 IN STRESS PERIOD   10
    26 TOTAL ITERATIONS

 OUTPUT CONTROL FOR STRESS PERIOD   10   TIME STEP    1
    SAVE BUDGET
    SAVE HEAD FOR ALL LAYERS
    PRINT HEAD FOR ALL LAYERS
 UBDSV2 SAVING "STREAMFLOW OUT  " ON UNIT  50 AT TIME STEP  1, STRESS PERIOD  10



 STREAM LISTING     PERIOD     10   STEP        1

 LAYER ROW COL. STREAM  RCH.  FLOW INTO     FLOW TO   FLOW OUT OF   OVRLND.     DIRECT     STREAM       STREAM     STREAM     STREAM   STREAMBED  STREAMBED
                SEG.NO.  NO.  STRM. RCH.    AQUIFER    STRM. RCH.    RUNOFF     PRECIP       ET          HEAD       DEPTH      WIDTH   CONDCTNC.   GRADIENT

   1   13    1     1     1    1.0000E+05 -2.1410E+03   1.0214E+05  0.000E+00  0.000E+00  0.000E+00  4.84069E+01  1.456E-01  2.000E+01  2.000E+04 -1.071E-01
   1   13    2     1     2    1.0214E+05 -3.1368E+03   1.0528E+05  0.000E+00  0.000E+00  0.000E+00  4.79319E+01  1.478E-01  2.000E+01  2.000E+04 -1.568E-01
   1   14    3     1     3    1.0528E+05 -5.9824E+02   1.0588E+05  0.000E+00  0.000E+00  0.000E+00  4.74563E+01  1.494E-01  2.000E+01  2.000E+04 -2.991E-02
   1   15    4     1     4    1.0588E+05 -5.8160E+02   1.0646E+05  0.000E+00  0.000E+00  0.000E+00  4.69795E+01  1.499E-01  2.000E+01  2.000E+04 -2.908E-02
   1   16    5     1     5    1.0646E+05 -2.0994E+03   1.0856E+05  0.000E+00  0.000E+00  0.000E+00  4.65033E+01  1.511E-01  2.000E+01  2.000E+04 -1.050E-01
   1   16    6     1     6    1.0856E+05 -1.3113E+03   1.0987E+05  0.000E+00  0.000E+00  0.000E+00  4.60275E+01  1.525E-01  2.000E+01  2.000E+04 -6.557E-02
   1   16    7     1     7    1.0987E+05 -1.2827E+03   1.1115E+05  0.000E+00  0.000E+00  0.000E+00  4.55513E+01  1.536E-01  2.000E+01  2.000E+04 -6.413E-02
   1   16    8     1     8    1.1115E+05 -1.2783E+03   1.1243E+05  0.000E+00  0.000E+00  0.000E+00  4.50751E+01  1.547E-01  2.000E+01  2.000E+04 -6.391E-02
   1   16    9     1     9    1.1243E+05 -1.2741E+03   1.1370E+05  0.000E+00  0.000E+00  0.000E+00  4.45989E+01  1.557E-01  2.000E+01  2.000E+04 -6.370E-02
   1   16   10     1    10    1.1370E+05 -1.2682E+03   1.1497E+05  0.000E+00  0.000E+00  0.000E+00  4.41227E+01  1.568E-01  2.000E+01  2.000E+04 -6.341E-02
   1   16   11     1    11    1.1497E+05 -1.2810E+03   1.1625E+05  0.000E+00  0.000E+00  0.000E+00  4.36464E+01  1.578E-01  2.000E+01  2.000E+04 -6.405E-02
   1   16   12     1    12    1.1625E+05 -2.1780E+03   1.1843E+05  0.000E+00  0.000E+00  0.000E+00  4.31706E+01  1.592E-01  2.000E+01  2.000E+04 -1.089E-01
   1   15   13     1    13    1.1843E+05 -2.1030E+03   1.2053E+05  0.000E+00  0.000E+00  0.000E+00  4.26950E+01  1.610E-01  2.000E+01  2.000E+04 -1.052E-01
   1   14   14     1    14    1.2053E+05 -2.3710E+03   1.2290E+05  0.000E+00  0.000E+00  0.000E+00  4.22196E+01  1.628E-01  2.000E+01  2.000E+04 -1.186E-01
   1   13   15     1    15    1.2290E+05 -2.6473E+03   1.2555E+05  0.000E+00  0.000E+00  0.000E+00  4.17443E+01  1.648E-01  2.000E+01  2.000E+04 -1.324E-01
   1   12   16     1    16    1.2555E+05 -3.1961E+03   1.2875E+05  0.000E+00  0.000E+00  0.000E+00  4.12693E+01  1.671E-01  2.000E+01  2.000E+04 -1.598E-01
   1   12   17     1    17    1.2875E+05 -2.0854E+03   1.3083E+05  0.000E+00  0.000E+00  0.000E+00  4.07941E+01  1.691E-01  2.000E+01  2.000E+04 -1.043E-01
   1   12   18     1    18    1.3083E+05 -1.9024E+03   1.3274E+05  0.000E+00  0.000E+00  0.000E+00  4.03184E+01  1.707E-01  2.000E+01  2.000E+04 -9.512E-02
   1   12   19     1    19    1.3274E+05 -1.8151E+03   1.3455E+05  0.000E+00  0.000E+00  0.000E+00  3.98426E+01  1.721E-01  2.000E+01  2.000E+04 -9.076E-02
   1   13   20     1    20    1.3455E+05  5.0159E+00   1.3455E+05  0.000E+00  0.000E+00  0.000E+00  3.93660E+01  1.728E-01  2.000E+01  2.000E+04  2.508E-04
   1   14   21     1    21    1.3455E+05 -2.7989E+02   1.3483E+05  0.000E+00  0.000E+00  0.000E+00  3.88889E+01  1.729E-01  2.000E+01  2.000E+04 -1.399E-02
   1   14   22     1    22    1.3483E+05  6.6370E+03   1.2819E+05  0.000E+00  0.000E+00  0.000E+00  3.84091E+01  1.705E-01  2.000E+01  2.000E+04  3.318E-01
   1    9   30     2     1    5.0000E+04 -6.7373E+02   5.0674E+04  0.000E+00  0.000E+00  0.000E+00  4.02413E+01  1.163E-01  2.000E+01  2.000E+04 -3.369E-02
   1    9   29     2     2    5.0674E+04 -9.7499E+02   5.1649E+04  0.000E+00  0.000E+00  0.000E+00  3.99925E+01  1.175E-01  2.000E+01  2.000E+04 -4.875E-02
   1    9   28     2     3    5.1649E+04 -1.2240E+03   5.2873E+04  0.000E+00  0.000E+00  0.000E+00  3.97440E+01  1.190E-01  2.000E+01  2.000E+04 -6.120E-02
   1    9   27     2     4    5.2873E+04 -2.3086E+03   5.5181E+04  0.000E+00  0.000E+00  0.000E+00  3.94964E+01  1.214E-01  2.000E+01  2.000E+04 -1.154E-01
   1   10   26     2     5    5.5181E+04 -8.8577E+02   5.6067E+04  0.000E+00  0.000E+00  0.000E+00  3.92485E+01  1.235E-01  2.000E+01  2.000E+04 -4.429E-02
   1   11   25     2     6    5.6067E+04  3.1907E+03   5.2876E+04  0.000E+00  0.000E+00  0.000E+00  3.89970E+01  1.220E-01  2.000E+01  2.000E+04  1.595E-01
   1   12   24     2     7    5.2876E+04  3.9555E+03   4.8921E+04  0.000E+00  0.000E+00  0.000E+00  3.87421E+01  1.171E-01  2.000E+01  2.000E+04  1.978E-01
   1   13   23     2     8    4.8921E+04  8.6178E+02   4.8059E+04  0.000E+00  0.000E+00  0.000E+00  3.84888E+01  1.138E-01  2.000E+01  2.000E+04  4.309E-02
   1   14   22     2     9    4.8059E+04  3.1723E+03   4.4887E+04  0.000E+00  0.000E+00  0.000E+00  3.82359E+01  1.109E-01  2.000E+01  2.000E+04  1.586E-01
   1   14   22     3     1    1.7308E+05 -7.0574E+03   1.8013E+05  0.000E+00  0.000E+00  0.000E+00  3.77244E+01  1.689E-01  2.000E+01  2.000E+04 -3.529E-01
   1   15   23     3     2    1.8013E+05 -6.1792E+02   1.8075E+05  0.000E+00  0.000E+00  0.000E+00  3.68377E+01  1.710E-01  2.000E+01  2.000E+04 -3.090E-02
   1   15   24     3     3    1.8075E+05 -3.4938E+02   1.8110E+05  0.000E+00  0.000E+00  0.000E+00  3.59491E+01  1.713E-01  2.000E+01  2.000E+04 -1.747E-02
   1   15   25     3     4    1.8110E+05 -3.3497E+02   1.8144E+05  0.000E+00  0.000E+00  0.000E+00  3.50604E+01  1.715E-01  2.000E+01  2.000E+04 -1.675E-02
   1   15   26     3     5    1.8144E+05 -3.2584E+02   1.8176E+05  0.000E+00  0.000E+00  0.000E+00  3.41717E+01  1.717E-01  2.000E+01  2.000E+04 -1.629E-02
   1   16   27     3     6    1.8176E+05 -1.1577E+02   1.8188E+05  0.000E+00  0.000E+00  0.000E+00  3.32829E+01  1.718E-01  2.000E+01  2.000E+04 -5.788E-03
   1   17   28     3     7    1.8188E+05  5.3435E+03   1.7653E+05  0.000E+00  0.000E+00  0.000E+00  3.23926E+01  1.703E-01  2.000E+01  2.000E+04  2.672E-01
   1   18   29     3     8    1.7653E+05  7.6927E+03   1.6884E+05  0.000E+00  0.000E+00  0.000E+00  3.14999E+01  1.666E-01  2.000E+01  2.000E+04  3.846E-01
   1   18   30     3     9    1.6884E+05  1.9316E+03   1.6691E+05  0.000E+00  0.000E+00  0.000E+00  3.06082E+01  1.638E-01  2.000E+01  2.000E+04  9.658E-02



1
              HEAD IN LAYER   1 AT END OF TIME STEP   1 IN STRESS PERIOD   10
  ---------------------------------------------------------------------------

          1      2      3      4      5      6      7      8      9     10
         11     12     13     14     15     16     17     18     19     20
         21     22     23     24     25     26     27     28     29     30
 .........................................................................
   1  ****** ****** ****** ****** ****** ****** ****** ****** ****** ******
      ****** ****** ****** ****** ****** ****** ****** ****** ****** ******
      ****** ****** ****** ****** ****** ****** ****** ****** ****** ******
   2  ****** ****** ****** ****** ****** ****** ****** ****** ****** ******
      ****** ****** ****** ****** ****** ****** ****** ****** ****** ******
      ****** ****** ****** ****** ****** ****** ****** ****** ****** ******
   3  ****** ****** ****** ****** ****** ****** ****** ****** ****** ******
      ****** ****** ****** ****** ****** ****** ****** ****** ****** ******
      ****** ****** ****** ****** ****** ****** ****** ****** ****** ******
   4  ****** ****** ****** ****** ****** ****** ****** ****** ****** ******
      ****** ****** ****** ****** ****** ****** ****** ****** ****** ******
      ****** ****** ****** ****** ****** ****** ****** ****** ****** ******
   5  ****** ****** ****** ****** ****** ****** ****** ****** ****** ******
      ****** ****** ****** ****** ****** ****** ****** ****** ****** ******
      ****** ****** ****** ****** ****** ****** ****** ****** ****** ******
   6  ****** ****** ****** ****** ****** ****** ****** ****** ****** ******
      ****** ****** ****** ****** ****** ****** ****** ****** ****** ******
      ****** ****** ****** ****** ****** ****** ****** ****** ****** ******
   7  ****** ****** ****** ****** ****** ****** ****** ****** ****** ******
      ****** ****** ****** ****** ****** ****** ****** ****** ****** ******
      ****** ****** ****** ****** ****** ****** ****** ****** ****** ******
   8  ****** ****** ****** ****** ****** ****** ****** ****** ****** ******
      ****** ****** ****** ****** ****** ****** ****** ****** ****** ******
      ****** ****** ****** ****** ****** ****** ****** ****** ****** ******
   9  ****** ****** ****** ****** ****** ****** ****** ****** ****** ******
      ****** ****** ****** ****** ****** ****** ****** ****** ****** ******
      ****** ****** ****** ****** ****** ****** ****** ****** ****** ******
  10  ****** ****** ****** ****** ****** ****** ****** ****** ****** ******
      ****** ****** ****** ****** ****** ****** ****** ****** ****** ******
      ****** ****** ****** ****** ****** ****** ****** ****** ****** ******
  11  ****** ****** ****** ****** ****** ****** ****** ****** ****** ******
      ****** ****** ****** ****** ****** ****** ****** ****** ****** ******
      ****** ****** ****** ****** ****** ****** ****** ****** ****** ******
  12  ****** ****** ****** ****** ****** ****** ****** ****** ****** ******
      ****** ****** ****** ****** ****** ****** ****** ****** ****** ******
      ****** ****** ****** ****** ****** ****** ****** ****** ****** ******
  13  ****** ****** ****** ****** ****** ****** ****** ****** ****** ******
      ****** ****** ****** ****** ****** ****** ****** ****** ****** ******
      ****** ****** ****** ****** ****** ****** ****** ****** ****** ******
  14  ****** ****** ****** ****** ****** ****** ****** ****** ****** ******
      ****** ****** ****** ****** ****** ****** ****** ****** ****** ******
      ****** ****** ****** ****** ****** ****** ****** ****** ****** ******
  15  ****** ****** ****** ****** ****** ****** ****** ****** ****** ******
      ****** ****** ****** ****** ****** ****** ****** ****** ****** ******
      ****** ****** ****** ****** ****** ****** ****** ****** ****** ******
  16  ****** ****** ****** ****** ****** ****** ****** ****** ****** ******
      ****** ****** ****** ****** ****** ****** ****** ****** ****** ******
      ****** ****** ****** ****** ****** ****** ****** ****** ****** ******
  17  ****** ****** ****** ****** ****** ****** ****** ****** ****** ******
      ****** ****** ****** ****** ****** ****** ****** ****** ****** ******
      ****** ****** ****** ****** ****** ****** ****** ****** ****** ******
  18  ****** ****** ****** ****** ****** ****** ****** ****** ****** ******
      ****** ****** ****** ****** ****** ****** ****** ****** ****** ******
      ****** ****** ****** ****** ****** ****** ****** ****** ****** ******
  19  ****** ****** ****** ****** ****** ****** ****** ****** ****** ******
      ****** ****** ****** ****** ****** ****** ****** ****** ****** ******
      ****** ****** ****** ****** ****** ****** ****** ****** ****** ******
  20  ****** ****** ****** ****** ****** ****** ****** ****** ****** ******
      ****** ****** ****** ****** ****** ****** ****** ****** ****** ******
      ****** ****** ****** ****** ****** ****** ****** ****** ****** ******
  21  ****** ****** ****** ****** ****** ****** ****** ****** ****** ******
      ****** ****** ****** ****** ****** ****** ****** ****** ****** ******
      ****** ****** ****** ****** ****** ****** ****** ****** ****** ******
  22  ****** ****** ****** ****** ****** ****** ****** ****** ****** ******
      ****** ****** ****** ****** ****** ****** ****** ****** ****** ******
      ****** ****** ****** ****** ****** ****** ****** ****** ****** ******
  23  ****** ****** ****** ****** ****** ****** ****** ****** ****** ******
      ****** ****** ****** ****** ****** ****** ****** ****** ****** ******
      ****** ****** ****** ****** ****** ****** ****** ****** ****** ******
  24  ****** ****** ****** ****** ****** ****** ****** ****** ****** ******
      ****** ****** ****** ****** ****** ****** ****** ****** ****** ******
      ****** ****** ****** ****** ****** ****** ****** ****** ****** ******
  25  ****** ****** ****** ****** ****** ****** ****** ****** ****** ******
      ****** ****** ****** ****** ****** ****** ****** ****** ****** ******
      ****** ****** ****** ****** ****** ****** ****** ****** ****** ******

 HEAD WILL BE SAVED ON UNIT   51 AT END OF TIME STEP    1, STRESS PERIOD   10
1
  VOLUMETRIC BUDGET FOR ENTIRE MODEL AT END OF TIME STEP    1, STRESS PERIOD  10
  ------------------------------------------------------------------------------

     CUMULATIVE VOLUMES      L**3       RATES FOR THIS TIME STEP      L**3/T
     ------------------                 ------------------------

           IN:                                      IN:
           ---                                      ---
             STORAGE =    32571723.0576               STORAGE =           0.0000
       CONSTANT HEAD =    23992885.1896         CONSTANT HEAD =       29569.5669
               WELLS =           0.0000                 WELLS =           0.0000
            RECHARGE =    23901600.0000              RECHARGE =       55200.0000
      STREAM LEAKAGE =    27971495.8779        STREAM LEAKAGE =       32790.0373

            TOTAL IN =   108437704.1250              TOTAL IN =      117559.6042

          OUT:                                     OUT:
          ----                                     ----
             STORAGE =     2430302.3884               STORAGE =       15811.0736
       CONSTANT HEAD =           0.0000         CONSTANT HEAD =           0.0000
               WELLS =    47520948.4882                 WELLS =       52049.2316
            RECHARGE =           0.0000              RECHARGE =           0.0000
      STREAM LEAKAGE =    58486454.7154        STREAM LEAKAGE =       49699.2957

           TOTAL OUT =   108437705.5920             TOTAL OUT =      117559.6009

            IN - OUT =          -1.4670              IN - OUT =       3.2292E-03

 PERCENT DISCREPANCY =          -0.00     PERCENT DISCREPANCY =           0.00






         TIME SUMMARY AT END OF TIME STEP    1 IN STRESS PERIOD   10
                    SECONDS     MINUTES      HOURS       DAYS        YEARS
                    -----------------------------------------------------------
   TIME STEP LENGTH 7.86240E+06 1.31040E+05  2184.0      91.000     0.24914    
 STRESS PERIOD TIME 7.86240E+06 1.31040E+05  2184.0      91.000     0.24914    
         TOTAL TIME 7.88832E+07 1.31472E+06  21912.      913.00      2.4997    
1
1
                            STRESS PERIOD NO.   11, LENGTH =   91.00000    
                            -----------------------------------------------

                              NUMBER OF TIME STEPS =     1

                               MULTIPLIER FOR DELT =     1.500

                            INITIAL TIME STEP SIZE =   91.00000    

 WELL NO.  LAYER   ROW   COL   STRESS RATE         
 --------------------------------------------------
      1      1     19     29     -0.1190E+05
      2      1     13     22     -0.1207E+05
      3      1     11     24     -0.1308E+05
      4      1     17     29     -0.1500E+05

      4 WELLS

                 RECHARGE =   0.00000    

 REUSING STREAM SEGMENT DATA FROM LAST STRESS PERIOD
 
 SOLVING FOR HEAD 


     7 CALLS TO PCG ROUTINE FOR TIME STEP   1 IN STRESS PERIOD   11
    26 TOTAL ITERATIONS

 OUTPUT CONTROL FOR STRESS PERIOD   11   TIME STEP    1
    SAVE BUDGET
    SAVE HEAD FOR ALL LAYERS
    PRINT HEAD FOR ALL LAYERS
 UBDSV2 SAVING "STREAMFLOW OUT  " ON UNIT  50 AT TIME STEP  1, STRESS PERIOD  11



 STREAM LISTING     PERIOD     11   STEP        1

 LAYER ROW COL. STREAM  RCH.  FLOW INTO     FLOW TO   FLOW OUT OF   OVRLND.     DIRECT     STREAM       STREAM     STREAM     STREAM   STREAMBED  STREAMBED
                SEG.NO.  NO.  STRM. RCH.    AQUIFER    STRM. RCH.    RUNOFF     PRECIP       ET          HEAD       DEPTH      WIDTH   CONDCTNC.   GRADIENT

   1   13    1     1     1    1.0000E+05 -1.5757E+03   1.0158E+05  0.000E+00  0.000E+00  0.000E+00  4.84067E+01  1.453E-01  2.000E+01  2.000E+04 -7.878E-02
   1   13    2     1     2    1.0158E+05 -2.5074E+03   1.0408E+05  0.000E+00  0.000E+00  0.000E+00  4.79312E+01  1.471E-01  2.000E+01  2.000E+04 -1.254E-01
   1   14    3     1     3    1.0408E+05 -3.6778E+02   1.0445E+05  0.000E+00  0.000E+00  0.000E+00  4.74551E+01  1.483E-01  2.000E+01  2.000E+04 -1.839E-02
   1   15    4     1     4    1.0445E+05 -3.4006E+02   1.0479E+05  0.000E+00  0.000E+00  0.000E+00  4.69782E+01  1.486E-01  2.000E+01  2.000E+04 -1.700E-02
   1   16    5     1     5    1.0479E+05 -1.4120E+03   1.0620E+05  0.000E+00  0.000E+00  0.000E+00  4.65016E+01  1.494E-01  2.000E+01  2.000E+04 -7.060E-02
   1   16    6     1     6    1.0620E+05 -8.9743E+02   1.0710E+05  0.000E+00  0.000E+00  0.000E+00  4.60254E+01  1.504E-01  2.000E+01  2.000E+04 -4.487E-02
   1   16    7     1     7    1.0710E+05 -8.8643E+02   1.0799E+05  0.000E+00  0.000E+00  0.000E+00  4.55488E+01  1.511E-01  2.000E+01  2.000E+04 -4.432E-02
   1   16    8     1     8    1.0799E+05 -8.8754E+02   1.0887E+05  0.000E+00  0.000E+00  0.000E+00  4.50723E+01  1.519E-01  2.000E+01  2.000E+04 -4.438E-02
   1   16    9     1     9    1.0887E+05 -8.8552E+02   1.0976E+05  0.000E+00  0.000E+00  0.000E+00  4.45958E+01  1.526E-01  2.000E+01  2.000E+04 -4.428E-02
   1   16   10     1    10    1.0976E+05 -8.8062E+02   1.1064E+05  0.000E+00  0.000E+00  0.000E+00  4.41192E+01  1.533E-01  2.000E+01  2.000E+04 -4.403E-02
   1   16   11     1    11    1.1064E+05 -8.9157E+02   1.1153E+05  0.000E+00  0.000E+00  0.000E+00  4.36427E+01  1.541E-01  2.000E+01  2.000E+04 -4.458E-02
   1   16   12     1    12    1.1153E+05 -1.5328E+03   1.1306E+05  0.000E+00  0.000E+00  0.000E+00  4.31664E+01  1.551E-01  2.000E+01  2.000E+04 -7.664E-02
   1   15   13     1    13    1.1306E+05 -1.4155E+03   1.1448E+05  0.000E+00  0.000E+00  0.000E+00  4.26904E+01  1.563E-01  2.000E+01  2.000E+04 -7.078E-02
   1   14   14     1    14    1.1448E+05 -1.6661E+03   1.1615E+05  0.000E+00  0.000E+00  0.000E+00  4.22144E+01  1.576E-01  2.000E+01  2.000E+04 -8.331E-02
   1   13   15     1    15    1.1615E+05 -1.9483E+03   1.1809E+05  0.000E+00  0.000E+00  0.000E+00  4.17386E+01  1.590E-01  2.000E+01  2.000E+04 -9.741E-02
   1   12   16     1    16    1.1809E+05 -2.5210E+03   1.2062E+05  0.000E+00  0.000E+00  0.000E+00  4.12631E+01  1.609E-01  2.000E+01  2.000E+04 -1.261E-01
   1   12   17     1    17    1.2062E+05 -1.5798E+03   1.2220E+05  0.000E+00  0.000E+00  0.000E+00  4.07875E+01  1.625E-01  2.000E+01  2.000E+04 -7.899E-02
   1   12   18     1    18    1.2220E+05 -1.4042E+03   1.2360E+05  0.000E+00  0.000E+00  0.000E+00  4.03114E+01  1.637E-01  2.000E+01  2.000E+04 -7.021E-02
   1   12   19     1    19    1.2360E+05 -1.2035E+03   1.2480E+05  0.000E+00  0.000E+00  0.000E+00  3.98352E+01  1.647E-01  2.000E+01  2.000E+04 -6.018E-02
   1   13   20     1    20    1.2480E+05  6.1688E+02   1.2419E+05  0.000E+00  0.000E+00  0.000E+00  3.93582E+01  1.650E-01  2.000E+01  2.000E+04  3.084E-02
   1   14   21     1    21    1.2419E+05  3.1691E+02   1.2387E+05  0.000E+00  0.000E+00  0.000E+00  3.88805E+01  1.646E-01  2.000E+01  2.000E+04  1.585E-02
   1   14   22     1    22    1.2387E+05  6.7898E+03   1.1708E+05  0.000E+00  0.000E+00  0.000E+00  3.84004E+01  1.618E-01  2.000E+01  2.000E+04  3.395E-01
   1    9   30     2     1    5.0000E+04 -1.8595E+02   5.0186E+04  0.000E+00  0.000E+00  0.000E+00  4.02410E+01  1.160E-01  2.000E+01  2.000E+04 -9.297E-03
   1    9   29     2     2    5.0186E+04 -4.9028E+02   5.0676E+04  0.000E+00  0.000E+00  0.000E+00  3.99915E+01  1.165E-01  2.000E+01  2.000E+04 -2.451E-02
   1    9   28     2     3    5.0676E+04 -7.4155E+02   5.1418E+04  0.000E+00  0.000E+00  0.000E+00  3.97423E+01  1.173E-01  2.000E+01  2.000E+04 -3.708E-02
   1    9   27     2     4    5.1418E+04 -1.6696E+03   5.3087E+04  0.000E+00  0.000E+00  0.000E+00  3.94940E+01  1.190E-01  2.000E+01  2.000E+04 -8.348E-02
   1   10   26     2     5    5.3087E+04 -2.3219E+02   5.3320E+04  0.000E+00  0.000E+00  0.000E+00  3.92453E+01  1.203E-01  2.000E+01  2.000E+04 -1.161E-02
   1   11   25     2     6    5.3320E+04  3.8205E+03   4.9499E+04  0.000E+00  0.000E+00  0.000E+00  3.89928E+01  1.178E-01  2.000E+01  2.000E+04  1.910E-01
   1   12   24     2     7    4.9499E+04  4.5280E+03   4.4971E+04  0.000E+00  0.000E+00  0.000E+00  3.87370E+01  1.120E-01  2.000E+01  2.000E+04  2.264E-01
   1   13   23     2     8    4.4971E+04  1.0475E+03   4.3924E+04  0.000E+00  0.000E+00  0.000E+00  3.84830E+01  1.080E-01  2.000E+01  2.000E+04  5.237E-02
   1   14   22     2     9    4.3924E+04  3.3761E+03   4.0548E+04  0.000E+00  0.000E+00  0.000E+00  3.82297E+01  1.047E-01  2.000E+01  2.000E+04  1.688E-01
   1   14   22     3     1    1.5763E+05 -6.9113E+03   1.6454E+05  0.000E+00  0.000E+00  0.000E+00  3.77153E+01  1.598E-01  2.000E+01  2.000E+04 -3.456E-01
   1   15   23     3     2    1.6454E+05 -4.2595E+02   1.6496E+05  0.000E+00  0.000E+00  0.000E+00  3.68286E+01  1.620E-01  2.000E+01  2.000E+04 -2.130E-02
   1   15   24     3     3    1.6496E+05 -1.8429E+02   1.6515E+05  0.000E+00  0.000E+00  0.000E+00  3.59399E+01  1.621E-01  2.000E+01  2.000E+04 -9.215E-03
   1   15   25     3     4    1.6515E+05 -1.6605E+02   1.6531E+05  0.000E+00  0.000E+00  0.000E+00  3.50511E+01  1.622E-01  2.000E+01  2.000E+04 -8.303E-03
   1   15   26     3     5    1.6531E+05 -1.3018E+02   1.6545E+05  0.000E+00  0.000E+00  0.000E+00  3.41623E+01  1.623E-01  2.000E+01  2.000E+04 -6.509E-03
   1   16   27     3     6    1.6545E+05  1.0720E+02   1.6534E+05  0.000E+00  0.000E+00  0.000E+00  3.32734E+01  1.623E-01  2.000E+01  2.000E+04  5.360E-03
   1   17   28     3     7    1.6534E+05  5.9531E+03   1.5938E+05  0.000E+00  0.000E+00  0.000E+00  3.23828E+01  1.605E-01  2.000E+01  2.000E+04  2.977E-01
   1   18   29     3     8    1.5938E+05  8.3142E+03   1.5107E+05  0.000E+00  0.000E+00  0.000E+00  3.14896E+01  1.563E-01  2.000E+01  2.000E+04  4.157E-01
   1   18   30     3     9    1.5107E+05  2.4203E+03   1.4865E+05  0.000E+00  0.000E+00  0.000E+00  3.05975E+01  1.530E-01  2.000E+01  2.000E+04  1.210E-01



1
              HEAD IN LAYER   1 AT END OF TIME STEP   1 IN STRESS PERIOD   11
  ---------------------------------------------------------------------------

          1      2      3      4      5      6      7      8      9     10
         11     12     13     14     15     16     17     18     19     20
         21     22     23     24     25     26     27     28     29     30
 .........................................................................
   1  ****** ****** ****** ****** ****** ****** ****** ****** ****** ******
      ****** ****** ****** ****** ****** ****** ****** ****** ****** ******
      ****** ****** ****** ****** ****** ****** ****** ****** ****** ******
   2  ****** ****** ****** ****** ****** ****** ****** ****** ****** ******
      ****** ****** ****** ****** ****** ****** ****** ****** ****** ******
      ****** ****** ****** ****** ****** ****** ****** ****** ****** ******
   3  ****** ****** ****** ****** ****** ****** ****** ****** ****** ******
      ****** ****** ****** ****** ****** ****** ****** ****** ****** ******
      ****** ****** ****** ****** ****** ****** ****** ****** ****** ******
   4  ****** ****** ****** ****** ****** ****** ****** ****** ****** ******
      ****** ****** ****** ****** ****** ****** ****** ****** ****** ******
      ****** ****** ****** ****** ****** ****** ****** ****** ****** ******
   5  ****** ****** ****** ****** ****** ****** ****** ****** ****** ******
      ****** ****** ****** ****** ****** ****** ****** ****** ****** ******
      ****** ****** ****** ****** ****** ****** ****** ****** ****** ******
   6  ****** ****** ****** ****** ****** ****** ****** ****** ****** ******
      ****** ****** ****** ****** ****** ****** ****** ****** ****** ******
      ****** ****** ****** ****** ****** ****** ****** ****** ****** ******
   7  ****** ****** ****** ****** ****** ****** ****** ****** ****** ******
      ****** ****** ****** ****** ****** ****** ****** ****** ****** ******
      ****** ****** ****** ****** ****** ****** ****** ****** ****** ******
   8  ****** ****** ****** ****** ****** ****** ****** ****** ****** ******
      ****** ****** ****** ****** ****** ****** ****** ****** ****** ******
      ****** ****** ****** ****** ****** ****** ****** ****** ****** ******
   9  ****** ****** ****** ****** ****** ****** ****** ****** ****** ******
      ****** ****** ****** ****** ****** ****** ****** ****** ****** ******
      ****** ****** ****** ****** ****** ****** ****** ****** ****** ******
  10  ****** ****** ****** ****** ****** ****** ****** ****** ****** ******
      ****** ****** ****** ****** ****** ****** ****** ****** ****** ******
      ****** ****** ****** ****** ****** ****** ****** ****** ****** ******
  11  ****** ****** ****** ****** ****** ****** ****** ****** ****** ******
      ****** ****** ****** ****** ****** ****** ****** ****** ****** ******
      ****** ****** ****** ****** ****** ****** ****** ****** ****** ******
  12  ****** ****** ****** ****** ****** ****** ****** ****** ****** ******
      ****** ****** ****** ****** ****** ****** ****** ****** ****** ******
      ****** ****** ****** ****** ****** ****** ****** ****** ****** ******
  13  ****** ****** ****** ****** ****** ****** ****** ****** ****** ******
      ****** ****** ****** ****** ****** ****** ****** ****** ****** ******
      ****** ****** ****** ****** ****** ****** ****** ****** ****** ******
  14  ****** ****** ****** ****** ****** ****** ****** ****** ****** ******
      ****** ****** ****** ****** ****** ****** ****** ****** ****** ******
      ****** ****** ****** ****** ****** ****** ****** ****** ****** ******
  15  ****** ****** ****** ****** ****** ****** ****** ****** ****** ******
      ****** ****** ****** ****** ****** ****** ****** ****** ****** ******
      ****** ****** ****** ****** ****** ****** ****** ****** ****** ******
  16  ****** ****** ****** ****** ****** ****** ****** ****** ****** ******
      ****** ****** ****** ****** ****** ****** ****** ****** ****** ******
      ****** ****** ****** ****** ****** ****** ****** ****** ****** ******
  17  ****** ****** ****** ****** ****** ****** ****** ****** ****** ******
      ****** ****** ****** ****** ****** ****** ****** ****** ****** ******
      ****** ****** ****** ****** ****** ****** ****** ****** ****** ******
  18  ****** ****** ****** ****** ****** ****** ****** ****** ****** ******
      ****** ****** ****** ****** ****** ****** ****** ****** ****** ******
      ****** ****** ****** ****** ****** ****** ****** ****** ****** ******
  19  ****** ****** ****** ****** ****** ****** ****** ****** ****** ******
      ****** ****** ****** ****** ****** ****** ****** ****** ****** ******
      ****** ****** ****** ****** ****** ****** ****** ****** ****** ******
  20  ****** ****** ****** ****** ****** ****** ****** ****** ****** ******
      ****** ****** ****** ****** ****** ****** ****** ****** ****** ******
      ****** ****** ****** ****** ****** ****** ****** ****** ****** ******
  21  ****** ****** ****** ****** ****** ****** ****** ****** ****** ******
      ****** ****** ****** ****** ****** ****** ****** ****** ****** ******
      ****** ****** ****** ****** ****** ****** ****** ****** ****** ******
  22  ****** ****** ****** ****** ****** ****** ****** ****** ****** ******
      ****** ****** ****** ****** ****** ****** ****** ****** ****** ******
      ****** ****** ****** ****** ****** ****** ****** ****** ****** ******
  23  ****** ****** ****** ****** ****** ****** ****** ****** ****** ******
      ****** ****** ****** ****** ****** ****** ****** ****** ****** ******
      ****** ****** ****** ****** ****** ****** ****** ****** ****** ******
  24  ****** ****** ****** ****** ****** ****** ****** ****** ****** ******
      ****** ****** ****** ****** ****** ****** ****** ****** ****** ******
      ****** ****** ****** ****** ****** ****** ****** ****** ****** ******
  25  ****** ****** ****** ****** ****** ****** ****** ****** ****** ******
      ****** ****** ****** ****** ****** ****** ****** ****** ****** ******
      ****** ****** ****** ****** ****** ****** ****** ****** ****** ******

 HEAD WILL BE SAVED ON UNIT   51 AT END OF TIME STEP    1, STRESS PERIOD   11
1
  VOLUMETRIC BUDGET FOR ENTIRE MODEL AT END OF TIME STEP    1, STRESS PERIOD  11
  ------------------------------------------------------------------------------

     CUMULATIVE VOLUMES      L**3       RATES FOR THIS TIME STEP      L**3/T
     ------------------                 ------------------------

           IN:                                      IN:
           ---                                      ---
             STORAGE =    34196448.6193               STORAGE =       17854.1271
       CONSTANT HEAD =    26981810.2594         CONSTANT HEAD =       32845.3304
               WELLS =           0.0000                 WELLS =           0.0000
            RECHARGE =    23901600.0000              RECHARGE =           0.0000
      STREAM LEAKAGE =    31364935.5312        STREAM LEAKAGE =       37290.5456

            TOTAL IN =   116444794.4099              TOTAL IN =       87990.0031

          OUT:                                     OUT:
          ----                                     ----
             STORAGE =     2430302.3884               STORAGE =           0.0000
       CONSTANT HEAD =           0.0000         CONSTANT HEAD =           0.0000
               WELLS =    52257428.5676                 WELLS =       52049.2316
            RECHARGE =           0.0000              RECHARGE =           0.0000
      STREAM LEAKAGE =    61757065.3425        STREAM LEAKAGE =       35940.7761

           TOTAL OUT =   116444796.2984             TOTAL OUT =       87990.0078

            IN - OUT =          -1.8885              IN - OUT =      -4.6322E-03

 PERCENT DISCREPANCY =          -0.00     PERCENT DISCREPANCY =          -0.00






         TIME SUMMARY AT END OF TIME STEP    1 IN STRESS PERIOD   11
                    SECONDS     MINUTES      HOURS       DAYS        YEARS
                    -----------------------------------------------------------
   TIME STEP LENGTH 7.86240E+06 1.31040E+05  2184.0      91.000     0.24914    
 STRESS PERIOD TIME 7.86240E+06 1.31040E+05  2184.0      91.000     0.24914    
         TOTAL TIME 8.67456E+07 1.44576E+06  24096.      1004.0      2.7488    
1
1
                            STRESS PERIOD NO.   12, LENGTH =   91.00000    
                            -----------------------------------------------

                              NUMBER OF TIME STEPS =     1

                               MULTIPLIER FOR DELT =     1.500

                            INITIAL TIME STEP SIZE =   91.00000    

 WELL NO.  LAYER   ROW   COL   STRESS RATE         
 --------------------------------------------------
      1      1     19     29     -0.1190E+05
      2      1     13     22     -0.1207E+05
      3      1     11     24     -0.1308E+05
      4      1     17     29     -0.1500E+05

      4 WELLS

                 RECHARGE =  1.000000E-03

 REUSING STREAM SEGMENT DATA FROM LAST STRESS PERIOD
 
 SOLVING FOR HEAD 


     7 CALLS TO PCG ROUTINE FOR TIME STEP   1 IN STRESS PERIOD   12
    24 TOTAL ITERATIONS

 OUTPUT CONTROL FOR STRESS PERIOD   12   TIME STEP    1
    SAVE BUDGET
    SAVE HEAD FOR ALL LAYERS
    PRINT HEAD FOR ALL LAYERS
 UBDSV2 SAVING "STREAMFLOW OUT  " ON UNIT  50 AT TIME STEP  1, STRESS PERIOD  12



 STREAM LISTING     PERIOD     12   STEP        1

 LAYER ROW COL. STREAM  RCH.  FLOW INTO     FLOW TO   FLOW OUT OF   OVRLND.     DIRECT     STREAM       STREAM     STREAM     STREAM   STREAMBED  STREAMBED
                SEG.NO.  NO.  STRM. RCH.    AQUIFER    STRM. RCH.    RUNOFF     PRECIP       ET          HEAD       DEPTH      WIDTH   CONDCTNC.   GRADIENT

   1   13    1     1     1    1.0000E+05 -1.7217E+03   1.0172E+05  0.000E+00  0.000E+00  0.000E+00  4.84068E+01  1.454E-01  2.000E+01  2.000E+04 -8.608E-02
   1   13    2     1     2    1.0172E+05 -2.6646E+03   1.0439E+05  0.000E+00  0.000E+00  0.000E+00  4.79314E+01  1.473E-01  2.000E+01  2.000E+04 -1.332E-01
   1   14    3     1     3    1.0439E+05 -4.4665E+02   1.0483E+05  0.000E+00  0.000E+00  0.000E+00  4.74554E+01  1.486E-01  2.000E+01  2.000E+04 -2.233E-02
   1   15    4     1     4    1.0483E+05 -4.2269E+02   1.0526E+05  0.000E+00  0.000E+00  0.000E+00  4.69785E+01  1.490E-01  2.000E+01  2.000E+04 -2.113E-02
   1   16    5     1     5    1.0526E+05 -1.6220E+03   1.0688E+05  0.000E+00  0.000E+00  0.000E+00  4.65021E+01  1.499E-01  2.000E+01  2.000E+04 -8.110E-02
   1   16    6     1     6    1.0688E+05 -1.0282E+03   1.0791E+05  0.000E+00  0.000E+00  0.000E+00  4.60260E+01  1.510E-01  2.000E+01  2.000E+04 -5.141E-02
   1   16    7     1     7    1.0791E+05 -1.0121E+03   1.0892E+05  0.000E+00  0.000E+00  0.000E+00  4.55496E+01  1.518E-01  2.000E+01  2.000E+04 -5.061E-02
   1   16    8     1     8    1.0892E+05 -1.0122E+03   1.0993E+05  0.000E+00  0.000E+00  0.000E+00  4.50731E+01  1.527E-01  2.000E+01  2.000E+04 -5.061E-02
   1   16    9     1     9    1.0993E+05 -1.0105E+03   1.1094E+05  0.000E+00  0.000E+00  0.000E+00  4.45967E+01  1.535E-01  2.000E+01  2.000E+04 -5.053E-02
   1   16   10     1    10    1.1094E+05 -1.0069E+03   1.1195E+05  0.000E+00  0.000E+00  0.000E+00  4.41203E+01  1.544E-01  2.000E+01  2.000E+04 -5.035E-02
   1   16   11     1    11    1.1195E+05 -1.0200E+03   1.1297E+05  0.000E+00  0.000E+00  0.000E+00  4.36438E+01  1.552E-01  2.000E+01  2.000E+04 -5.100E-02
   1   16   12     1    12    1.1297E+05 -1.7349E+03   1.1470E+05  0.000E+00  0.000E+00  0.000E+00  4.31677E+01  1.563E-01  2.000E+01  2.000E+04 -8.674E-02
   1   15   13     1    13    1.1470E+05 -1.6332E+03   1.1634E+05  0.000E+00  0.000E+00  0.000E+00  4.26918E+01  1.577E-01  2.000E+01  2.000E+04 -8.166E-02
   1   14   14     1    14    1.1634E+05 -1.8847E+03   1.1822E+05  0.000E+00  0.000E+00  0.000E+00  4.22160E+01  1.592E-01  2.000E+01  2.000E+04 -9.423E-02
   1   13   15     1    15    1.1822E+05 -2.1598E+03   1.2038E+05  0.000E+00  0.000E+00  0.000E+00  4.17404E+01  1.608E-01  2.000E+01  2.000E+04 -1.080E-01
   1   12   16     1    16    1.2038E+05 -2.7065E+03   1.2309E+05  0.000E+00  0.000E+00  0.000E+00  4.12650E+01  1.628E-01  2.000E+01  2.000E+04 -1.353E-01
   1   12   17     1    17    1.2309E+05 -1.7342E+03   1.2482E+05  0.000E+00  0.000E+00  0.000E+00  4.07895E+01  1.645E-01  2.000E+01  2.000E+04 -8.671E-02
   1   12   18     1    18    1.2482E+05 -1.5607E+03   1.2638E+05  0.000E+00  0.000E+00  0.000E+00  4.03136E+01  1.659E-01  2.000E+01  2.000E+04 -7.804E-02
   1   12   19     1    19    1.2638E+05 -1.3970E+03   1.2778E+05  0.000E+00  0.000E+00  0.000E+00  3.98375E+01  1.670E-01  2.000E+01  2.000E+04 -6.985E-02
   1   13   20     1    20    1.2778E+05  4.0599E+02   1.2737E+05  0.000E+00  0.000E+00  0.000E+00  3.93606E+01  1.674E-01  2.000E+01  2.000E+04  2.030E-02
   1   14   21     1    21    1.2737E+05  1.2248E+02   1.2725E+05  0.000E+00  0.000E+00  0.000E+00  3.88831E+01  1.672E-01  2.000E+01  2.000E+04  6.124E-03
   1   14   22     1    22    1.2725E+05  6.7346E+03   1.2052E+05  0.000E+00  0.000E+00  0.000E+00  3.84031E+01  1.645E-01  2.000E+01  2.000E+04  3.367E-01
   1    9   30     2     1    5.0000E+04 -3.6255E+02   5.0363E+04  0.000E+00  0.000E+00  0.000E+00  4.02411E+01  1.161E-01  2.000E+01  2.000E+04 -1.813E-02
   1    9   29     2     2    5.0363E+04 -6.6486E+02   5.1027E+04  0.000E+00  0.000E+00  0.000E+00  3.99918E+01  1.168E-01  2.000E+01  2.000E+04 -3.324E-02
   1    9   28     2     3    5.1027E+04 -9.1265E+02   5.1940E+04  0.000E+00  0.000E+00  0.000E+00  3.97429E+01  1.179E-01  2.000E+01  2.000E+04 -4.563E-02
   1    9   27     2     4    5.1940E+04 -1.8793E+03   5.3819E+04  0.000E+00  0.000E+00  0.000E+00  3.94948E+01  1.198E-01  2.000E+01  2.000E+04 -9.397E-02
   1   10   26     2     5    5.3819E+04 -4.6248E+02   5.4282E+04  0.000E+00  0.000E+00  0.000E+00  3.92464E+01  1.214E-01  2.000E+01  2.000E+04 -2.312E-02
   1   11   25     2     6    5.4282E+04  3.5941E+03   5.0688E+04  0.000E+00  0.000E+00  0.000E+00  3.89943E+01  1.193E-01  2.000E+01  2.000E+04  1.797E-01
   1   12   24     2     7    5.0688E+04  4.3215E+03   4.6366E+04  0.000E+00  0.000E+00  0.000E+00  3.87388E+01  1.138E-01  2.000E+01  2.000E+04  2.161E-01
   1   13   23     2     8    4.6366E+04  9.6979E+02   4.5396E+04  0.000E+00  0.000E+00  0.000E+00  3.84850E+01  1.100E-01  2.000E+01  2.000E+04  4.849E-02
   1   14   22     2     9    4.5396E+04  3.3108E+03   4.2086E+04  0.000E+00  0.000E+00  0.000E+00  3.82319E+01  1.069E-01  2.000E+01  2.000E+04  1.655E-01
   1   14   22     3     1    1.6260E+05 -6.9620E+03   1.6956E+05  0.000E+00  0.000E+00  0.000E+00  3.77183E+01  1.627E-01  2.000E+01  2.000E+04 -3.481E-01
   1   15   23     3     2    1.6956E+05 -4.9801E+02   1.7006E+05  0.000E+00  0.000E+00  0.000E+00  3.68316E+01  1.649E-01  2.000E+01  2.000E+04 -2.490E-02
   1   15   24     3     3    1.7006E+05 -2.4939E+02   1.7031E+05  0.000E+00  0.000E+00  0.000E+00  3.59429E+01  1.651E-01  2.000E+01  2.000E+04 -1.247E-02
   1   15   25     3     4    1.7031E+05 -2.3242E+02   1.7054E+05  0.000E+00  0.000E+00  0.000E+00  3.50542E+01  1.653E-01  2.000E+01  2.000E+04 -1.162E-02
   1   15   26     3     5    1.7054E+05 -2.0767E+02   1.7075E+05  0.000E+00  0.000E+00  0.000E+00  3.41654E+01  1.654E-01  2.000E+01  2.000E+04 -1.038E-02
   1   16   27     3     6    1.7075E+05  2.0403E+01   1.7073E+05  0.000E+00  0.000E+00  0.000E+00  3.32766E+01  1.655E-01  2.000E+01  2.000E+04  1.020E-03
   1   17   28     3     7    1.7073E+05  5.7323E+03   1.6500E+05  0.000E+00  0.000E+00  0.000E+00  3.23860E+01  1.638E-01  2.000E+01  2.000E+04  2.866E-01
   1   18   29     3     8    1.6500E+05  8.1135E+03   1.5688E+05  0.000E+00  0.000E+00  0.000E+00  3.14930E+01  1.597E-01  2.000E+01  2.000E+04  4.057E-01
   1   18   30     3     9    1.5688E+05  2.2522E+03   1.5463E+05  0.000E+00  0.000E+00  0.000E+00  3.06010E+01  1.566E-01  2.000E+01  2.000E+04  1.126E-01



1
              HEAD IN LAYER   1 AT END OF TIME STEP   1 IN STRESS PERIOD   12
  ---------------------------------------------------------------------------

          1      2      3      4      5      6      7      8      9     10
         11     12     13     14     15     16     17     18     19     20
         21     22     23     24     25     26     27     28     29     30
 .........................................................................
   1  ****** ****** ****** ****** ****** ****** ****** ****** ****** ******
      ****** ****** ****** ****** ****** ****** ****** ****** ****** ******
      ****** ****** ****** ****** ****** ****** ****** ****** ****** ******
   2  ****** ****** ****** ****** ****** ****** ****** ****** ****** ******
      ****** ****** ****** ****** ****** ****** ****** ****** ****** ******
      ****** ****** ****** ****** ****** ****** ****** ****** ****** ******
   3  ****** ****** ****** ****** ****** ****** ****** ****** ****** ******
      ****** ****** ****** ****** ****** ****** ****** ****** ****** ******
      ****** ****** ****** ****** ****** ****** ****** ****** ****** ******
   4  ****** ****** ****** ****** ****** ****** ****** ****** ****** ******
      ****** ****** ****** ****** ****** ****** ****** ****** ****** ******
      ****** ****** ****** ****** ****** ****** ****** ****** ****** ******
   5  ****** ****** ****** ****** ****** ****** ****** ****** ****** ******
      ****** ****** ****** ****** ****** ****** ****** ****** ****** ******
      ****** ****** ****** ****** ****** ****** ****** ****** ****** ******
   6  ****** ****** ****** ****** ****** ****** ****** ****** ****** ******
      ****** ****** ****** ****** ****** ****** ****** ****** ****** ******
      ****** ****** ****** ****** ****** ****** ****** ****** ****** ******
   7  ****** ****** ****** ****** ****** ****** ****** ****** ****** ******
      ****** ****** ****** ****** ****** ****** ****** ****** ****** ******
      ****** ****** ****** ****** ****** ****** ****** ****** ****** ******
   8  ****** ****** ****** ****** ****** ****** ****** ****** ****** ******
      ****** ****** ****** ****** ****** ****** ****** ****** ****** ******
      ****** ****** ****** ****** ****** ****** ****** ****** ****** ******
   9  ****** ****** ****** ****** ****** ****** ****** ****** ****** ******
      ****** ****** ****** ****** ****** ****** ****** ****** ****** ******
      ****** ****** ****** ****** ****** ****** ****** ****** ****** ******
  10  ****** ****** ****** ****** ****** ****** ****** ****** ****** ******
      ****** ****** ****** ****** ****** ****** ****** ****** ****** ******
      ****** ****** ****** ****** ****** ****** ****** ****** ****** ******
  11  ****** ****** ****** ****** ****** ****** ****** ****** ****** ******
      ****** ****** ****** ****** ****** ****** ****** ****** ****** ******
      ****** ****** ****** ****** ****** ****** ****** ****** ****** ******
  12  ****** ****** ****** ****** ****** ****** ****** ****** ****** ******
      ****** ****** ****** ****** ****** ****** ****** ****** ****** ******
      ****** ****** ****** ****** ****** ****** ****** ****** ****** ******
  13  ****** ****** ****** ****** ****** ****** ****** ****** ****** ******
      ****** ****** ****** ****** ****** ****** ****** ****** ****** ******
      ****** ****** ****** ****** ****** ****** ****** ****** ****** ******
  14  ****** ****** ****** ****** ****** ****** ****** ****** ****** ******
      ****** ****** ****** ****** ****** ****** ****** ****** ****** ******
      ****** ****** ****** ****** ****** ****** ****** ****** ****** ******
  15  ****** ****** ****** ****** ****** ****** ****** ****** ****** ******
      ****** ****** ****** ****** ****** ****** ****** ****** ****** ******
      ****** ****** ****** ****** ****** ****** ****** ****** ****** ******
  16  ****** ****** ****** ****** ****** ****** ****** ****** ****** ******
      ****** ****** ****** ****** ****** ****** ****** ****** ****** ******
      ****** ****** ****** ****** ****** ****** ****** ****** ****** ******
  17  ****** ****** ****** ****** ****** ****** ****** ****** ****** ******
      ****** ****** ****** ****** ****** ****** ****** ****** ****** ******
      ****** ****** ****** ****** ****** ****** ****** ****** ****** ******
  18  ****** ****** ****** ****** ****** ****** ****** ****** ****** ******
      ****** ****** ****** ****** ****** ****** ****** ****** ****** ******
      ****** ****** ****** ****** ****** ****** ****** ****** ****** ******
  19  ****** ****** ****** ****** ****** ****** ****** ****** ****** ******
      ****** ****** ****** ****** ****** ****** ****** ****** ****** ******
      ****** ****** ****** ****** ****** ****** ****** ****** ****** ******
  20  ****** ****** ****** ****** ****** ****** ****** ****** ****** ******
      ****** ****** ****** ****** ****** ****** ****** ****** ****** ******
      ****** ****** ****** ****** ****** ****** ****** ****** ****** ******
  21  ****** ****** ****** ****** ****** ****** ****** ****** ****** ******
      ****** ****** ****** ****** ****** ****** ****** ****** ****** ******
      ****** ****** ****** ****** ****** ****** ****** ****** ****** ******
  22  ****** ****** ****** ****** ****** ****** ****** ****** ****** ******
      ****** ****** ****** ****** ****** ****** ****** ****** ****** ******
      ****** ****** ****** ****** ****** ****** ****** ****** ****** ******
  23  ****** ****** ****** ****** ****** ****** ****** ****** ****** ******
      ****** ****** ****** ****** ****** ****** ****** ****** ****** ******
      ****** ****** ****** ****** ****** ****** ****** ****** ****** ******
  24  ****** ****** ****** ****** ****** ****** ****** ****** ****** ******
      ****** ****** ****** ****** ****** ****** ****** ****** ****** ******
      ****** ****** ****** ****** ****** ****** ****** ****** ****** ******
  25  ****** ****** ****** ****** ****** ****** ****** ****** ****** ******
      ****** ****** ****** ****** ****** ****** ****** ****** ****** ******
      ****** ****** ****** ****** ****** ****** ****** ****** ****** ******

 HEAD WILL BE SAVED ON UNIT   51 AT END OF TIME STEP    1, STRESS PERIOD   12
1
  VOLUMETRIC BUDGET FOR ENTIRE MODEL AT END OF TIME STEP    1, STRESS PERIOD  12
  ------------------------------------------------------------------------------

     CUMULATIVE VOLUMES      L**3       RATES FOR THIS TIME STEP      L**3/T
     ------------------                 ------------------------

           IN:                                      IN:
           ---                                      ---
             STORAGE =    34196966.4453               STORAGE =           5.6904
       CONSTANT HEAD =    29906753.3359         CONSTANT HEAD =       32142.2316
               WELLS =           0.0000                 WELLS =           0.0000
            RECHARGE =    26413200.0000              RECHARGE =       27600.0000
      STREAM LEAKAGE =    34602504.4656        STREAM LEAKAGE =       35577.6806

            TOTAL IN =   125119424.2468              TOTAL IN =       95325.6026

          OUT:                                     OUT:
          ----                                     ----
             STORAGE =     2709363.4574               STORAGE =        3066.6052
       CONSTANT HEAD =           0.0000         CONSTANT HEAD =           0.0000
               WELLS =    56993908.6469                 WELLS =       52049.2316
            RECHARGE =           0.0000              RECHARGE =           0.0000
      STREAM LEAKAGE =    65416153.9494        STREAM LEAKAGE =       40209.7649

           TOTAL OUT =   125119426.0538             TOTAL OUT =       95325.6017

            IN - OUT =          -1.8070              IN - OUT =       8.9575E-04

 PERCENT DISCREPANCY =          -0.00     PERCENT DISCREPANCY =           0.00






         TIME SUMMARY AT END OF TIME STEP    1 IN STRESS PERIOD   12
                    SECONDS     MINUTES      HOURS       DAYS        YEARS
                    -----------------------------------------------------------
   TIME STEP LENGTH 7.86240E+06 1.31040E+05  2184.0      91.000     0.24914    
 STRESS PERIOD TIME 7.86240E+06 1.31040E+05  2184.0      91.000     0.24914    
         TOTAL TIME 9.46080E+07 1.57680E+06  26280.      1095.0      2.9979    
1

 Run end date and time (yyyy/mm/dd hh:mm:ss): 2019/03/29  1:03:13
 Elapsed run time:  0.106 Seconds

