                                  MODFLOW-2005     
      U.S. GEOLOGICAL SURVEY MODULAR FINITE-DIFFERENCE GROUND-WATER FLOW MODEL
                            VERSION 1.11.00 8/8/2013

 LIST FILE: supply2.lst
                         UNIT   10

 OPENING ..\data\supply.dis
 FILE TYPE:DIS   UNIT   11   STATUS:OLD    
 FORMAT:FORMATTED              ACCESS:SEQUENTIAL          

 OPENING ..\data\supply.ba6
 FILE TYPE:BAS6   UNIT   12   STATUS:OLD    
 FORMAT:FORMATTED              ACCESS:SEQUENTIAL          

 OPENING ..\data\supply_het.bc6
 FILE TYPE:BCF6   UNIT   13   STATUS:OLD    
 FORMAT:FORMATTED              ACCESS:SEQUENTIAL          

 OPENING ..\data\supply.rch
 FILE TYPE:RCH   UNIT   15   STATUS:OLD    
 FORMAT:FORMATTED              ACCESS:SEQUENTIAL          

 OPENING ..\data\supply2.sfr
 FILE TYPE:SFR   UNIT   16   STATUS:OLD    
 FORMAT:FORMATTED              ACCESS:SEQUENTIAL          

 OPENING ..\data\supply.oc
 FILE TYPE:OC   UNIT   17   STATUS:OLD    
 FORMAT:FORMATTED              ACCESS:SEQUENTIAL          

 OPENING ..\data\supply.pcg
 FILE TYPE:PCG   UNIT   18   STATUS:OLD    
 FORMAT:FORMATTED              ACCESS:SEQUENTIAL          

 OPENING supply2.wel
 FILE TYPE:WEL   UNIT   19   STATUS:OLD    
 FORMAT:FORMATTED              ACCESS:SEQUENTIAL          

 OPENING supply2sf.cbc
 FILE TYPE:DATA(BINARY)   UNIT   50   STATUS:UNKNOWN
 FORMAT:BINARY                 ACCESS:SEQUENTIAL          

 OPENING supply2hd.bhd
 FILE TYPE:DATA(BINARY)   UNIT   51   STATUS:UNKNOWN
 FORMAT:BINARY                 ACCESS:SEQUENTIAL          

 BAS -- BASIC PACKAGE, VERSION 7, 5/2/2005 INPUT READ FROM UNIT   12
 
 MODFLOW was compiled using uniform precision
 Precision of REAL and DOUBLE PRECISION variables:          15

 DISCRETIZATION INPUT DATA READ FROM UNIT   11
    1 LAYERS        25 ROWS        30 COLUMNS
   12 STRESS PERIOD(S) IN SIMULATION
 MODEL TIME UNIT IS DAYS
 MODEL LENGTH UNIT IS UNDEFINED
  Confining bed flag for each layer:
   0

                     DELR =   200.000    

                     DELC =   200.000    

 TOP ELEVATION OF LAYER 1 =  100.0000    

   MODEL LAYER BOTTOM EL. =   0.00000     FOR LAYER   1


 STRESS PERIOD     LENGTH       TIME STEPS     MULTIPLIER FOR DELT    SS FLAG
 ----------------------------------------------------------------------------
        1         92.00000          1                    1.500         TR
        2         91.00000          1                    1.500         TR
        3         91.00000          1                    1.500         TR
        4         91.00000          1                    1.500         TR
        5         92.00000          1                    1.500         TR
        6         91.00000          1                    1.500         TR
        7         91.00000          1                    1.500         TR
        8         91.00000          1                    1.500         TR
        9         92.00000          1                    1.500         TR
       10         91.00000          1                    1.500         TR
       11         91.00000          1                    1.500         TR
       12         91.00000          1                    1.500         TR

 TRANSIENT SIMULATION



 
 #MODOFC transient water supply sample problem                                   
 #                                                                               
 THE FREE FORMAT OPTION HAS BEEN SELECTED



                     BOUNDARY ARRAY FOR LAYER   1
 READING ON UNIT   12 WITH FORMAT: (20I4)              

 AQUIFER HEAD WILL BE SET TO   0.0000     AT ALL NO-FLOW NODES (IBOUND=0).



                       INITIAL HEAD FOR LAYER   1
 READING ON UNIT   12 WITH FORMAT: (10F13.0)           

 OUTPUT CONTROL IS SPECIFIED ONLY AT TIME STEPS FOR WHICH OUTPUT IS DESIRED
 COMPACT CELL-BY-CELL BUDGET FILES WILL BE WRITTEN
 HEAD PRINT FORMAT CODE IS  18    DRAWDOWN PRINT FORMAT CODE IS   0
 HEADS WILL BE SAVED ON UNIT   51    DRAWDOWNS WILL BE SAVED ON UNIT    0

 BCF -- BLOCK-CENTERED FLOW PACKAGE, VERSION 7, 5/2/2005
         INPUT READ FROM UNIT 13
 TRANSIENT SIMULATION
 HEAD AT CELLS THAT CONVERT TO DRY=   0.0000    
 WETTING CAPABILITY IS NOT ACTIVE
      LAYER  LAYER-TYPE CODE     INTERBLOCK T
      --------------------------------------------
         1            0          0 -- HARMONIC    

 COLUMN TO ROW ANISOTROPY =  1.000000    

     PRIMARY STORAGE COEF =  5.000000E-02 FOR LAYER   1



               TRANSMIS. ALONG ROWS FOR LAYER   1
 READING ON UNIT   13 WITH FORMAT: (FREE)              

 WEL -- WELL PACKAGE, VERSION 7, 5/2/2005 INPUT READ FROM UNIT   19
 # Well package input file written by MMProc
 No named parameters
 MAXIMUM OF      8 ACTIVE WELLS AT ONE TIME


     0 Well parameters

 RCH -- RECHARGE PACKAGE, VERSION 7, 5/2/2005 INPUT READ FROM UNIT   15
 No named parameters
 OPTION 1 -- RECHARGE TO TOP LAYER


     0 Recharge parameters

 SFR7 -- STREAMFLOW ROUTING PACKAGE, VERSION 1.0.7, 2013-01-15
         INPUT READ FROM UNIT  16
 #  Supply2 test problem for GWM-VI
 #  The eighth entry in the first data line is ISTCB2 -
 #    Setting this to a negative number indicates that
 #    streamflows out of the reach will be saved to a
 #    binary file.  The absolute value of ISTCB2 is the
 #    unit to which unformatted flows will be written.
 #
 No named parameters
 Segment information will not be 
 read by reach
 No named parameters
 No specifed inflow files


 NUMBER OF STREAM REACHES IS   40

 NUMBER OF STREAM SEGMENTS IS    3

 NUMBER OF STREAM PARAMETERS IS    0

 NUMBER OF STREAM SEGMENTS DEFINED USING PARAMETERS IS              0

 MAXIMUM ERROR FOR STREAM LEAKAGE RATES IS  1.00E-04

 CONSTANT FOR MANNINGS EQUATION IS  1.2839E+05





   STREAM NETWORK DESCRIPTION: 

   LAYER    ROW    COL   SEGMENT   REACH     LENGTH
                          NUMBER   NUMBER    IN CELL        
   --------------------------------------------------
      1     13      1       1        1    2.0000E+02
      1     13      2       1        2    2.0000E+02
      1     14      3       1        3    2.0000E+02
      1     15      4       1        4    2.0000E+02
      1     16      5       1        5    2.0000E+02
      1     16      6       1        6    2.0000E+02
      1     16      7       1        7    2.0000E+02
      1     16      8       1        8    2.0000E+02
      1     16      9       1        9    2.0000E+02
      1     16     10       1       10    2.0000E+02
      1     16     11       1       11    2.0000E+02
      1     16     12       1       12    2.0000E+02
      1     15     13       1       13    2.0000E+02
      1     14     14       1       14    2.0000E+02
      1     13     15       1       15    2.0000E+02
      1     12     16       1       16    2.0000E+02
      1     12     17       1       17    2.0000E+02
      1     12     18       1       18    2.0000E+02
      1     12     19       1       19    2.0000E+02
      1     13     20       1       20    2.0000E+02
      1     14     21       1       21    2.0000E+02
      1     14     22       1       22    2.0000E+02
      1      9     30       2        1    2.0000E+02
      1      9     29       2        2    2.0000E+02
      1      9     28       2        3    2.0000E+02
      1      9     27       2        4    2.0000E+02
      1     10     26       2        5    2.0000E+02
      1     11     25       2        6    2.0000E+02
      1     12     24       2        7    2.0000E+02
      1     13     23       2        8    2.0000E+02
      1     14     22       2        9    2.0000E+02
      1     14     22       3        1    2.0000E+02
      1     15     23       3        2    2.0000E+02
      1     15     24       3        3    2.0000E+02
      1     15     25       3        4    2.0000E+02
      1     15     26       3        5    2.0000E+02
      1     16     27       3        6    2.0000E+02
      1     17     28       3        7    2.0000E+02
      1     18     29       3        8    2.0000E+02
      1     18     30       3        9    2.0000E+02




 PCG -- CONJUGATE-GRADIENT SOLUTION PACKAGE, VERSION 7, 5/2/2005
 MAXIMUM OF    500 CALLS OF SOLUTION ROUTINE
 MAXIMUM OF      5 INTERNAL ITERATIONS PER CALL TO SOLUTION ROUTINE
 MATRIX PRECONDITIONING TYPE :    1



                                    SOLUTION BY THE CONJUGATE-GRADIENT METHOD
                                   -------------------------------------------
                    MAXIMUM NUMBER OF CALLS TO PCG ROUTINE =      500
                        MAXIMUM ITERATIONS PER CALL TO PCG =        5
                               MATRIX PRECONDITIONING TYPE =        1
        RELAXATION FACTOR (ONLY USED WITH PRECOND. TYPE 1) =    0.10000E+01
 PARAMETER OF POLYNOMIAL PRECOND. = 2 (2) OR IS CALCULATED :        0
                         HEAD CHANGE CRITERION FOR CLOSURE =    0.10000E-05
                     RESIDUAL CHANGE CRITERION FOR CLOSURE =    0.10000E+01
            PCG HEAD AND RESIDUAL CHANGE PRINTOUT INTERVAL =        1
     PRINTING FROM SOLVER IS LIMITED(1) OR SUPPRESSED (>1) =        1
                            STEADY-STATE DAMPING PARAMETER =    0.10000E+01
                               TRANSIENT DAMPING PARAMETER =    0.10000E+01
1
                            STRESS PERIOD NO.    1, LENGTH =   92.00000    
                            -----------------------------------------------

                              NUMBER OF TIME STEPS =     1

                               MULTIPLIER FOR DELT =     1.500

                            INITIAL TIME STEP SIZE =   92.00000    

 WELL NO.  LAYER   ROW   COL   STRESS RATE         
 --------------------------------------------------
      1      1     14      6       0.000    
      2      1      3      9       0.000    
      3      1     20     10       0.000    
      4      1     14     20       0.000    
      5      1      4     17      -6818.    
      6      1     12     28      -9652.    
      7      1      7      8      -7590.    
      8      1     12      7      -1463.    

      8 WELLS

                 RECHARGE =  5.000000E-04



 CLASSIFICATION & COUNT OF STREAM SEGMENTS BASED ON SOURCE OF INFLOW:

                HEADWATER     DIVERSION     RECEIVES TRIBUTARY FLOW
                ---------     ---------     -----------------------
                     2              0               1



                    INPUT DATA FOR EACH STREAM SEGMENT
 ---------------------------------------------------------------------------------------------

 SEGMENT    SEG.     INFLOW   OVERLAND   STREAM    STREAM   ICALC  OUTFLOW  DIVERSION PRIORITY
    NO.    LENGTH     RATE     RUNOFF      ET       PPT.    METH.  TO SEG.  FROM SEG.    NO.

      1  4.400E+03 1.000E+05 0.000E+00 0.000E+00 0.000E+00    1        3        0        0
      2  1.800E+03 5.000E+04 0.000E+00 0.000E+00 0.000E+00    1        3        0        0
      3  1.800E+03 0.000E+00 0.000E+00 0.000E+00 0.000E+00    1        0        0        0


         STREAMBED PROPERTIES AND STREAM DIMENSIONS

 SEGMENT     BED HYD. COND.      BED THICKNESS     ELEV.-TOP OF BED     WIDTH OF STREAM     DEPTH OF STREAM    STREAM ROUGHNESS
    No.     UPPER     LOWER     UPPER     LOWER     UPPER     LOWER     UPPER     LOWER     UPPER     LOWER   CHANNEL      BANK

     1  5.000E+00 5.000E+00 1.000E+00 1.000E+00 4.850E+01 3.800E+01 2.000E+01 2.000E+01                     5.000E-02
     2  5.000E+00 5.000E+00 1.000E+00 1.000E+00 4.025E+01 3.800E+01 2.000E+01 2.000E+01                     5.000E-02
     3  5.000E+00 5.000E+00 1.000E+00 1.000E+00 3.800E+01 3.000E+01 2.000E+01 2.000E+01                     5.000E-02



 
 SOLVING FOR HEAD 


     9 CALLS TO PCG ROUTINE FOR TIME STEP   1 IN STRESS PERIOD    1
    36 TOTAL ITERATIONS

 OUTPUT CONTROL FOR STRESS PERIOD    1   TIME STEP    1
    SAVE BUDGET
    SAVE HEAD FOR ALL LAYERS
    PRINT HEAD FOR ALL LAYERS
 UBDSV2 SAVING "STREAMFLOW OUT  " ON UNIT  50 AT TIME STEP  1, STRESS PERIOD   1



 STREAM LISTING     PERIOD      1   STEP        1

 LAYER ROW COL. STREAM  RCH.  FLOW INTO     FLOW TO   FLOW OUT OF   OVRLND.     DIRECT     STREAM       STREAM     STREAM     STREAM   STREAMBED  STREAMBED
                SEG.NO.  NO.  STRM. RCH.    AQUIFER    STRM. RCH.    RUNOFF     PRECIP       ET          HEAD       DEPTH      WIDTH   CONDCTNC.   GRADIENT

   1   13    1     1     1    1.0000E+05 -5.9984E+03   1.0600E+05  0.000E+00  0.000E+00  0.000E+00  4.84086E+01  1.472E-01  2.000E+01  2.000E+04 -2.999E-01
   1   13    2     1     2    1.0600E+05 -7.4511E+03   1.1345E+05  0.000E+00  0.000E+00  0.000E+00  4.79370E+01  1.529E-01  2.000E+01  2.000E+04 -3.726E-01
   1   14    3     1     3    1.1345E+05 -2.1786E+03   1.1563E+05  0.000E+00  0.000E+00  0.000E+00  4.74637E+01  1.569E-01  2.000E+01  2.000E+04 -1.089E-01
   1   15    4     1     4    1.1563E+05 -2.2511E+03   1.1788E+05  0.000E+00  0.000E+00  0.000E+00  4.69883E+01  1.587E-01  2.000E+01  2.000E+04 -1.126E-01
   1   16    5     1     5    1.1788E+05 -7.1727E+03   1.2505E+05  0.000E+00  0.000E+00  0.000E+00  4.65148E+01  1.626E-01  2.000E+01  2.000E+04 -3.586E-01
   1   16    6     1     6    1.2505E+05 -4.2806E+03   1.2933E+05  0.000E+00  0.000E+00  0.000E+00  4.60421E+01  1.671E-01  2.000E+01  2.000E+04 -2.140E-01
   1   16    7     1     7    1.2933E+05 -4.1094E+03   1.3344E+05  0.000E+00  0.000E+00  0.000E+00  4.55681E+01  1.704E-01  2.000E+01  2.000E+04 -2.055E-01
   1   16    8     1     8    1.3344E+05 -4.0750E+03   1.3752E+05  0.000E+00  0.000E+00  0.000E+00  4.50940E+01  1.736E-01  2.000E+01  2.000E+04 -2.038E-01
   1   16    9     1     9    1.3752E+05 -4.0741E+03   1.4159E+05  0.000E+00  0.000E+00  0.000E+00  4.46199E+01  1.767E-01  2.000E+01  2.000E+04 -2.037E-01
   1   16   10     1    10    1.4159E+05 -4.0798E+03   1.4567E+05  0.000E+00  0.000E+00  0.000E+00  4.41457E+01  1.798E-01  2.000E+01  2.000E+04 -2.040E-01
   1   16   11     1    11    1.4567E+05 -4.1217E+03   1.4979E+05  0.000E+00  0.000E+00  0.000E+00  4.36714E+01  1.828E-01  2.000E+01  2.000E+04 -2.061E-01
   1   16   12     1    12    1.4979E+05 -6.9976E+03   1.5679E+05  0.000E+00  0.000E+00  0.000E+00  4.31983E+01  1.869E-01  2.000E+01  2.000E+04 -3.499E-01
   1   15   13     1    13    1.5679E+05 -7.2699E+03   1.6406E+05  0.000E+00  0.000E+00  0.000E+00  4.27262E+01  1.921E-01  2.000E+01  2.000E+04 -3.635E-01
   1   14   14     1    14    1.6406E+05 -7.7202E+03   1.7178E+05  0.000E+00  0.000E+00  0.000E+00  4.22542E+01  1.974E-01  2.000E+01  2.000E+04 -3.860E-01
   1   13   15     1    15    1.7178E+05 -8.0069E+03   1.7979E+05  0.000E+00  0.000E+00  0.000E+00  4.17825E+01  2.029E-01  2.000E+01  2.000E+04 -4.003E-01
   1   12   16     1    16    1.7979E+05 -8.5400E+03   1.8833E+05  0.000E+00  0.000E+00  0.000E+00  4.13109E+01  2.086E-01  2.000E+01  2.000E+04 -4.270E-01
   1   12   17     1    17    1.8833E+05 -6.1222E+03   1.9445E+05  0.000E+00  0.000E+00  0.000E+00  4.08385E+01  2.135E-01  2.000E+01  2.000E+04 -3.061E-01
   1   12   18     1    18    1.9445E+05 -5.9930E+03   2.0044E+05  0.000E+00  0.000E+00  0.000E+00  4.03653E+01  2.176E-01  2.000E+01  2.000E+04 -2.996E-01
   1   12   19     1    19    2.0044E+05 -7.5575E+03   2.0800E+05  0.000E+00  0.000E+00  0.000E+00  3.98925E+01  2.220E-01  2.000E+01  2.000E+04 -3.779E-01
   1   13   20     1    20    2.0800E+05 -6.7943E+03   2.1479E+05  0.000E+00  0.000E+00  0.000E+00  3.94198E+01  2.267E-01  2.000E+01  2.000E+04 -3.397E-01
   1   14   21     1    21    2.1479E+05 -6.4289E+03   2.2122E+05  0.000E+00  0.000E+00  0.000E+00  3.89468E+01  2.309E-01  2.000E+01  2.000E+04 -3.214E-01
   1   14   22     1    22    2.2122E+05  3.6995E+03   2.1752E+05  0.000E+00  0.000E+00  0.000E+00  3.84704E+01  2.318E-01  2.000E+01  2.000E+04  1.850E-01
   1    9   30     2     1    5.0000E+04 -4.0393E+03   5.4039E+04  0.000E+00  0.000E+00  0.000E+00  4.02437E+01  1.187E-01  2.000E+01  2.000E+04 -2.020E-01
   1    9   29     2     2    5.4039E+04 -4.2522E+03   5.8292E+04  0.000E+00  0.000E+00  0.000E+00  3.99992E+01  1.242E-01  2.000E+01  2.000E+04 -2.126E-01
   1    9   28     2     3    5.8292E+04 -4.4932E+03   6.2785E+04  0.000E+00  0.000E+00  0.000E+00  3.97550E+01  1.300E-01  2.000E+01  2.000E+04 -2.247E-01
   1    9   27     2     4    6.2785E+04 -7.6050E+03   7.0390E+04  0.000E+00  0.000E+00  0.000E+00  3.95126E+01  1.376E-01  2.000E+01  2.000E+04 -3.802E-01
   1   10   26     2     5    7.0390E+04 -6.0528E+03   7.6442E+04  0.000E+00  0.000E+00  0.000E+00  3.92709E+01  1.459E-01  2.000E+01  2.000E+04 -3.026E-01
   1   11   25     2     6    7.6442E+04 -5.7225E+03   8.2165E+04  0.000E+00  0.000E+00  0.000E+00  3.90278E+01  1.528E-01  2.000E+01  2.000E+04 -2.861E-01
   1   12   24     2     7    8.2165E+04 -5.8365E+03   8.8002E+04  0.000E+00  0.000E+00  0.000E+00  3.87844E+01  1.594E-01  2.000E+01  2.000E+04 -2.918E-01
   1   13   23     2     8    8.8002E+04 -1.6315E+03   8.9633E+04  0.000E+00  0.000E+00  0.000E+00  3.85386E+01  1.636E-01  2.000E+01  2.000E+04 -8.157E-02
   1   14   22     2     9    8.9633E+04  7.9913E+01   8.9553E+04  0.000E+00  0.000E+00  0.000E+00  3.82894E+01  1.644E-01  2.000E+01  2.000E+04  3.996E-03
   1   14   22     3     1    3.0708E+05 -9.8458E+03   3.1692E+05  0.000E+00  0.000E+00  0.000E+00  3.77931E+01  2.376E-01  2.000E+01  2.000E+04 -4.923E-01
   1   15   23     3     2    3.1692E+05 -1.9881E+03   3.1891E+05  0.000E+00  0.000E+00  0.000E+00  3.69069E+01  2.403E-01  2.000E+01  2.000E+04 -9.941E-02
   1   15   24     3     3    3.1891E+05 -1.5226E+03   3.2043E+05  0.000E+00  0.000E+00  0.000E+00  3.60188E+01  2.411E-01  2.000E+01  2.000E+04 -7.613E-02
   1   15   25     3     4    3.2043E+05 -1.5568E+03   3.2199E+05  0.000E+00  0.000E+00  0.000E+00  3.51306E+01  2.418E-01  2.000E+01  2.000E+04 -7.784E-02
   1   15   26     3     5    3.2199E+05 -1.7649E+03   3.2375E+05  0.000E+00  0.000E+00  0.000E+00  3.42425E+01  2.425E-01  2.000E+01  2.000E+04 -8.824E-02
   1   16   27     3     6    3.2375E+05 -1.9988E+03   3.2575E+05  0.000E+00  0.000E+00  0.000E+00  3.33545E+01  2.434E-01  2.000E+01  2.000E+04 -9.994E-02
   1   17   28     3     7    3.2575E+05 -5.8204E+03   3.3157E+05  0.000E+00  0.000E+00  0.000E+00  3.24673E+01  2.451E-01  2.000E+01  2.000E+04 -2.910E-01
   1   18   29     3     8    3.3157E+05 -7.7524E+03   3.3933E+05  0.000E+00  0.000E+00  0.000E+00  3.15815E+01  2.481E-01  2.000E+01  2.000E+04 -3.876E-01
   1   18   30     3     9    3.3933E+05 -6.8786E+03   3.4620E+05  0.000E+00  0.000E+00  0.000E+00  3.06958E+01  2.514E-01  2.000E+01  2.000E+04 -3.439E-01



1
              HEAD IN LAYER   1 AT END OF TIME STEP   1 IN STRESS PERIOD    1
  ---------------------------------------------------------------------------

          1      2      3      4      5      6      7      8      9     10
         11     12     13     14     15     16     17     18     19     20
         21     22     23     24     25     26     27     28     29     30
 .........................................................................
   1  ****** ****** ****** ****** ****** ****** ****** ****** ****** ******
      ****** ****** ****** ****** ****** ****** ****** ****** ****** ******
      ****** ****** ****** ****** ****** ****** ****** ****** ****** ******
   2  ****** ****** ****** ****** ****** ****** ****** ****** ****** ******
      ****** ****** ****** ****** ****** ****** ****** ****** ****** ******
      ****** ****** ****** ****** ****** ****** ****** ****** ****** ******
   3  ****** ****** ****** ****** ****** ****** ****** ****** ****** ******
      ****** ****** ****** ****** ****** ****** ****** ****** ****** ******
      ****** ****** ****** ****** ****** ****** ****** ****** ****** ******
   4  ****** ****** ****** ****** ****** ****** ****** ****** ****** ******
      ****** ****** ****** ****** ****** ****** ****** ****** ****** ******
      ****** ****** ****** ****** ****** ****** ****** ****** ****** ******
   5  ****** ****** ****** ****** ****** ****** ****** ****** ****** ******
      ****** ****** ****** ****** ****** ****** ****** ****** ****** ******
      ****** ****** ****** ****** ****** ****** ****** ****** ****** ******
   6  ****** ****** ****** ****** ****** ****** ****** ****** ****** ******
      ****** ****** ****** ****** ****** ****** ****** ****** ****** ******
      ****** ****** ****** ****** ****** ****** ****** ****** ****** ******
   7  ****** ****** ****** ****** ****** ****** ****** ****** ****** ******
      ****** ****** ****** ****** ****** ****** ****** ****** ****** ******
      ****** ****** ****** ****** ****** ****** ****** ****** ****** ******
   8  ****** ****** ****** ****** ****** ****** ****** ****** ****** ******
      ****** ****** ****** ****** ****** ****** ****** ****** ****** ******
      ****** ****** ****** ****** ****** ****** ****** ****** ****** ******
   9  ****** ****** ****** ****** ****** ****** ****** ****** ****** ******
      ****** ****** ****** ****** ****** ****** ****** ****** ****** ******
      ****** ****** ****** ****** ****** ****** ****** ****** ****** ******
  10  ****** ****** ****** ****** ****** ****** ****** ****** ****** ******
      ****** ****** ****** ****** ****** ****** ****** ****** ****** ******
      ****** ****** ****** ****** ****** ****** ****** ****** ****** ******
  11  ****** ****** ****** ****** ****** ****** ****** ****** ****** ******
      ****** ****** ****** ****** ****** ****** ****** ****** ****** ******
      ****** ****** ****** ****** ****** ****** ****** ****** ****** ******
  12  ****** ****** ****** ****** ****** ****** ****** ****** ****** ******
      ****** ****** ****** ****** ****** ****** ****** ****** ****** ******
      ****** ****** ****** ****** ****** ****** ****** ****** ****** ******
  13  ****** ****** ****** ****** ****** ****** ****** ****** ****** ******
      ****** ****** ****** ****** ****** ****** ****** ****** ****** ******
      ****** ****** ****** ****** ****** ****** ****** ****** ****** ******
  14  ****** ****** ****** ****** ****** ****** ****** ****** ****** ******
      ****** ****** ****** ****** ****** ****** ****** ****** ****** ******
      ****** ****** ****** ****** ****** ****** ****** ****** ****** ******
  15  ****** ****** ****** ****** ****** ****** ****** ****** ****** ******
      ****** ****** ****** ****** ****** ****** ****** ****** ****** ******
      ****** ****** ****** ****** ****** ****** ****** ****** ****** ******
  16  ****** ****** ****** ****** ****** ****** ****** ****** ****** ******
      ****** ****** ****** ****** ****** ****** ****** ****** ****** ******
      ****** ****** ****** ****** ****** ****** ****** ****** ****** ******
  17  ****** ****** ****** ****** ****** ****** ****** ****** ****** ******
      ****** ****** ****** ****** ****** ****** ****** ****** ****** ******
      ****** ****** ****** ****** ****** ****** ****** ****** ****** ******
  18  ****** ****** ****** ****** ****** ****** ****** ****** ****** ******
      ****** ****** ****** ****** ****** ****** ****** ****** ****** ******
      ****** ****** ****** ****** ****** ****** ****** ****** ****** ******
  19  ****** ****** ****** ****** ****** ****** ****** ****** ****** ******
      ****** ****** ****** ****** ****** ****** ****** ****** ****** ******
      ****** ****** ****** ****** ****** ****** ****** ****** ****** ******
  20  ****** ****** ****** ****** ****** ****** ****** ****** ****** ******
      ****** ****** ****** ****** ****** ****** ****** ****** ****** ******
      ****** ****** ****** ****** ****** ****** ****** ****** ****** ******
  21  ****** ****** ****** ****** ****** ****** ****** ****** ****** ******
      ****** ****** ****** ****** ****** ****** ****** ****** ****** ******
      ****** ****** ****** ****** ****** ****** ****** ****** ****** ******
  22  ****** ****** ****** ****** ****** ****** ****** ****** ****** ******
      ****** ****** ****** ****** ****** ****** ****** ****** ****** ******
      ****** ****** ****** ****** ****** ****** ****** ****** ****** ******
  23  ****** ****** ****** ****** ****** ****** ****** ****** ****** ******
      ****** ****** ****** ****** ****** ****** ****** ****** ****** ******
      ****** ****** ****** ****** ****** ****** ****** ****** ****** ******
  24  ****** ****** ****** ****** ****** ****** ****** ****** ****** ******
      ****** ****** ****** ****** ****** ****** ****** ****** ****** ******
      ****** ****** ****** ****** ****** ****** ****** ****** ****** ******
  25  ****** ****** ****** ****** ****** ****** ****** ****** ****** ******
      ****** ****** ****** ****** ****** ****** ****** ****** ****** ******
      ****** ****** ****** ****** ****** ****** ****** ****** ****** ******

 HEAD WILL BE SAVED ON UNIT   51 AT END OF TIME STEP    1, STRESS PERIOD    1
1
  VOLUMETRIC BUDGET FOR ENTIRE MODEL AT END OF TIME STEP    1, STRESS PERIOD   1
  ------------------------------------------------------------------------------

     CUMULATIVE VOLUMES      L**3       RATES FOR THIS TIME STEP      L**3/T
     ------------------                 ------------------------

           IN:                                      IN:
           ---                                      ---
             STORAGE =    17948719.7888               STORAGE =      195094.7803
       CONSTANT HEAD =     1180651.9575         CONSTANT HEAD =       12833.1735
               WELLS =           0.0000                 WELLS =           0.0000
            RECHARGE =     1269600.0000              RECHARGE =       13800.0000
      STREAM LEAKAGE =      347708.8254        STREAM LEAKAGE =        3779.4438

            TOTAL IN =    20746680.5717              TOTAL IN =      225507.3975

          OUT:                                     OUT:
          ----                                     ----
             STORAGE =           0.0000               STORAGE =           0.0000
       CONSTANT HEAD =           0.0000         CONSTANT HEAD =           0.0000
               WELLS =     2348121.4140                 WELLS =       25523.0588
            RECHARGE =           0.0000              RECHARGE =           0.0000
      STREAM LEAKAGE =    18398559.4368        STREAM LEAKAGE =      199984.3417

           TOTAL OUT =    20746680.8508             TOTAL OUT =      225507.4006

            IN - OUT =          -0.2791              IN - OUT =      -3.0335E-03

 PERCENT DISCREPANCY =          -0.00     PERCENT DISCREPANCY =          -0.00






         TIME SUMMARY AT END OF TIME STEP    1 IN STRESS PERIOD    1
                    SECONDS     MINUTES      HOURS       DAYS        YEARS
                    -----------------------------------------------------------
   TIME STEP LENGTH 7.94880E+06 1.32480E+05  2208.0      92.000     0.25188    
 STRESS PERIOD TIME 7.94880E+06 1.32480E+05  2208.0      92.000     0.25188    
         TOTAL TIME 7.94880E+06 1.32480E+05  2208.0      92.000     0.25188    
1
1
                            STRESS PERIOD NO.    2, LENGTH =   91.00000    
                            -----------------------------------------------

                              NUMBER OF TIME STEPS =     1

                               MULTIPLIER FOR DELT =     1.500

                            INITIAL TIME STEP SIZE =   91.00000    

 WELL NO.  LAYER   ROW   COL   STRESS RATE         
 --------------------------------------------------
      1      1     14      6       0.000    
      2      1      3      9       0.000    
      3      1     20     10       0.000    
      4      1     14     20       0.000    
      5      1      4     17      -6818.    
      6      1     12     28      -9652.    
      7      1      7      8      -7590.    
      8      1     12      7      -1463.    

      8 WELLS

                 RECHARGE =  2.000000E-03

 REUSING STREAM SEGMENT DATA FROM LAST STRESS PERIOD
 
 SOLVING FOR HEAD 


     7 CALLS TO PCG ROUTINE FOR TIME STEP   1 IN STRESS PERIOD    2
    27 TOTAL ITERATIONS

 OUTPUT CONTROL FOR STRESS PERIOD    2   TIME STEP    1
    SAVE BUDGET
    SAVE HEAD FOR ALL LAYERS
    PRINT HEAD FOR ALL LAYERS
 UBDSV2 SAVING "STREAMFLOW OUT  " ON UNIT  50 AT TIME STEP  1, STRESS PERIOD   2



 STREAM LISTING     PERIOD      2   STEP        1

 LAYER ROW COL. STREAM  RCH.  FLOW INTO     FLOW TO   FLOW OUT OF   OVRLND.     DIRECT     STREAM       STREAM     STREAM     STREAM   STREAMBED  STREAMBED
                SEG.NO.  NO.  STRM. RCH.    AQUIFER    STRM. RCH.    RUNOFF     PRECIP       ET          HEAD       DEPTH      WIDTH   CONDCTNC.   GRADIENT

   1   13    1     1     1    1.0000E+05 -3.7289E+03   1.0373E+05  0.000E+00  0.000E+00  0.000E+00  4.84076E+01  1.463E-01  2.000E+01  2.000E+04 -1.864E-01
   1   13    2     1     2    1.0373E+05 -4.9496E+03   1.0868E+05  0.000E+00  0.000E+00  0.000E+00  4.79341E+01  1.500E-01  2.000E+01  2.000E+04 -2.475E-01
   1   14    3     1     3    1.0868E+05 -1.0690E+03   1.0975E+05  0.000E+00  0.000E+00  0.000E+00  4.74593E+01  1.525E-01  2.000E+01  2.000E+04 -5.345E-02
   1   15    4     1     4    1.0975E+05 -1.1010E+03   1.1085E+05  0.000E+00  0.000E+00  0.000E+00  4.69830E+01  1.534E-01  2.000E+01  2.000E+04 -5.505E-02
   1   16    5     1     5    1.1085E+05 -4.2286E+03   1.1508E+05  0.000E+00  0.000E+00  0.000E+00  4.65079E+01  1.556E-01  2.000E+01  2.000E+04 -2.114E-01
   1   16    6     1     6    1.1508E+05 -2.4615E+03   1.1754E+05  0.000E+00  0.000E+00  0.000E+00  4.60334E+01  1.584E-01  2.000E+01  2.000E+04 -1.231E-01
   1   16    7     1     7    1.1754E+05 -2.3570E+03   1.1990E+05  0.000E+00  0.000E+00  0.000E+00  4.55581E+01  1.603E-01  2.000E+01  2.000E+04 -1.179E-01
   1   16    8     1     8    1.1990E+05 -2.3385E+03   1.2223E+05  0.000E+00  0.000E+00  0.000E+00  4.50827E+01  1.622E-01  2.000E+01  2.000E+04 -1.169E-01
   1   16    9     1     9    1.2223E+05 -2.3355E+03   1.2457E+05  0.000E+00  0.000E+00  0.000E+00  4.46073E+01  1.641E-01  2.000E+01  2.000E+04 -1.168E-01
   1   16   10     1    10    1.2457E+05 -2.3281E+03   1.2690E+05  0.000E+00  0.000E+00  0.000E+00  4.41319E+01  1.660E-01  2.000E+01  2.000E+04 -1.164E-01
   1   16   11     1    11    1.2690E+05 -2.3485E+03   1.2925E+05  0.000E+00  0.000E+00  0.000E+00  4.36564E+01  1.678E-01  2.000E+01  2.000E+04 -1.174E-01
   1   16   12     1    12    1.2925E+05 -4.1168E+03   1.3336E+05  0.000E+00  0.000E+00  0.000E+00  4.31817E+01  1.703E-01  2.000E+01  2.000E+04 -2.058E-01
   1   15   13     1    13    1.3336E+05 -3.9970E+03   1.3736E+05  0.000E+00  0.000E+00  0.000E+00  4.27076E+01  1.735E-01  2.000E+01  2.000E+04 -1.999E-01
   1   14   14     1    14    1.3736E+05 -4.2903E+03   1.4165E+05  0.000E+00  0.000E+00  0.000E+00  4.22335E+01  1.766E-01  2.000E+01  2.000E+04 -2.145E-01
   1   13   15     1    15    1.4165E+05 -4.5395E+03   1.4619E+05  0.000E+00  0.000E+00  0.000E+00  4.17595E+01  1.800E-01  2.000E+01  2.000E+04 -2.270E-01
   1   12   16     1    16    1.4619E+05 -5.1807E+03   1.5137E+05  0.000E+00  0.000E+00  0.000E+00  4.12859E+01  1.836E-01  2.000E+01  2.000E+04 -2.590E-01
   1   12   17     1    17    1.5137E+05 -3.5237E+03   1.5489E+05  0.000E+00  0.000E+00  0.000E+00  4.08118E+01  1.868E-01  2.000E+01  2.000E+04 -1.762E-01
   1   12   18     1    18    1.5489E+05 -3.4114E+03   1.5831E+05  0.000E+00  0.000E+00  0.000E+00  4.03370E+01  1.893E-01  2.000E+01  2.000E+04 -1.706E-01
   1   12   19     1    19    1.5831E+05 -4.3464E+03   1.6265E+05  0.000E+00  0.000E+00  0.000E+00  3.98626E+01  1.921E-01  2.000E+01  2.000E+04 -2.173E-01
   1   13   20     1    20    1.6265E+05 -3.6817E+03   1.6633E+05  0.000E+00  0.000E+00  0.000E+00  3.93882E+01  1.950E-01  2.000E+01  2.000E+04 -1.841E-01
   1   14   21     1    21    1.6633E+05 -3.7416E+03   1.7008E+05  0.000E+00  0.000E+00  0.000E+00  3.89135E+01  1.976E-01  2.000E+01  2.000E+04 -1.871E-01
   1   14   22     1    22    1.7008E+05  4.4641E+03   1.6561E+05  0.000E+00  0.000E+00  0.000E+00  3.84360E+01  1.974E-01  2.000E+01  2.000E+04  2.232E-01
   1    9   30     2     1    5.0000E+04 -1.1278E+03   5.1128E+04  0.000E+00  0.000E+00  0.000E+00  4.02416E+01  1.166E-01  2.000E+01  2.000E+04 -5.639E-02
   1    9   29     2     2    5.1128E+04 -1.3574E+03   5.2485E+04  0.000E+00  0.000E+00  0.000E+00  3.99934E+01  1.184E-01  2.000E+01  2.000E+04 -6.787E-02
   1    9   28     2     3    5.2485E+04 -1.6308E+03   5.4116E+04  0.000E+00  0.000E+00  0.000E+00  3.97454E+01  1.204E-01  2.000E+01  2.000E+04 -8.154E-02
   1    9   27     2     4    5.4116E+04 -3.9929E+03   5.8109E+04  0.000E+00  0.000E+00  0.000E+00  3.94992E+01  1.242E-01  2.000E+01  2.000E+04 -1.996E-01
   1   10   26     2     5    5.8109E+04 -2.2040E+03   6.0313E+04  0.000E+00  0.000E+00  0.000E+00  3.92532E+01  1.282E-01  2.000E+01  2.000E+04 -1.102E-01
   1   11   25     2     6    6.0313E+04 -2.0594E+03   6.2372E+04  0.000E+00  0.000E+00  0.000E+00  3.90060E+01  1.310E-01  2.000E+01  2.000E+04 -1.030E-01
   1   12   24     2     7    6.2372E+04 -2.6289E+03   6.5001E+04  0.000E+00  0.000E+00  0.000E+00  3.87590E+01  1.340E-01  2.000E+01  2.000E+04 -1.314E-01
   1   13   23     2     8    6.5001E+04 -5.7810E+02   6.5579E+04  0.000E+00  0.000E+00  0.000E+00  3.85110E+01  1.360E-01  2.000E+01  2.000E+04 -2.890E-02
   1   14   22     2     9    6.5579E+04  9.5900E+02   6.4620E+04  0.000E+00  0.000E+00  0.000E+00  3.82607E+01  1.357E-01  2.000E+01  2.000E+04  4.795E-02
   1   14   22     3     1    2.3023E+05 -9.1384E+03   2.3937E+05  0.000E+00  0.000E+00  0.000E+00  3.77559E+01  2.003E-01  2.000E+01  2.000E+04 -4.569E-01
   1   15   23     3     2    2.3937E+05 -1.0537E+03   2.4042E+05  0.000E+00  0.000E+00  0.000E+00  3.68696E+01  2.029E-01  2.000E+01  2.000E+04 -5.269E-02
   1   15   24     3     3    2.4042E+05 -6.5341E+02   2.4108E+05  0.000E+00  0.000E+00  0.000E+00  3.59811E+01  2.033E-01  2.000E+01  2.000E+04 -3.267E-02
   1   15   25     3     4    2.4108E+05 -6.3619E+02   2.4171E+05  0.000E+00  0.000E+00  0.000E+00  3.50926E+01  2.037E-01  2.000E+01  2.000E+04 -3.181E-02
   1   15   26     3     5    2.4171E+05 -6.0411E+02   2.4232E+05  0.000E+00  0.000E+00  0.000E+00  3.42040E+01  2.040E-01  2.000E+01  2.000E+04 -3.021E-02
   1   16   27     3     6    2.4232E+05 -6.7520E+02   2.4299E+05  0.000E+00  0.000E+00  0.000E+00  3.33154E+01  2.043E-01  2.000E+01  2.000E+04 -3.376E-02
   1   17   28     3     7    2.4299E+05 -2.2509E+03   2.4524E+05  0.000E+00  0.000E+00  0.000E+00  3.24273E+01  2.051E-01  2.000E+01  2.000E+04 -1.125E-01
   1   18   29     3     8    2.4524E+05 -4.7306E+03   2.4997E+05  0.000E+00  0.000E+00  0.000E+00  3.15401E+01  2.068E-01  2.000E+01  2.000E+04 -2.365E-01
   1   18   30     3     9    2.4997E+05 -4.2838E+03   2.5426E+05  0.000E+00  0.000E+00  0.000E+00  3.06535E+01  2.091E-01  2.000E+01  2.000E+04 -2.142E-01



1
              HEAD IN LAYER   1 AT END OF TIME STEP   1 IN STRESS PERIOD    2
  ---------------------------------------------------------------------------

          1      2      3      4      5      6      7      8      9     10
         11     12     13     14     15     16     17     18     19     20
         21     22     23     24     25     26     27     28     29     30
 .........................................................................
   1  ****** ****** ****** ****** ****** ****** ****** ****** ****** ******
      ****** ****** ****** ****** ****** ****** ****** ****** ****** ******
      ****** ****** ****** ****** ****** ****** ****** ****** ****** ******
   2  ****** ****** ****** ****** ****** ****** ****** ****** ****** ******
      ****** ****** ****** ****** ****** ****** ****** ****** ****** ******
      ****** ****** ****** ****** ****** ****** ****** ****** ****** ******
   3  ****** ****** ****** ****** ****** ****** ****** ****** ****** ******
      ****** ****** ****** ****** ****** ****** ****** ****** ****** ******
      ****** ****** ****** ****** ****** ****** ****** ****** ****** ******
   4  ****** ****** ****** ****** ****** ****** ****** ****** ****** ******
      ****** ****** ****** ****** ****** ****** ****** ****** ****** ******
      ****** ****** ****** ****** ****** ****** ****** ****** ****** ******
   5  ****** ****** ****** ****** ****** ****** ****** ****** ****** ******
      ****** ****** ****** ****** ****** ****** ****** ****** ****** ******
      ****** ****** ****** ****** ****** ****** ****** ****** ****** ******
   6  ****** ****** ****** ****** ****** ****** ****** ****** ****** ******
      ****** ****** ****** ****** ****** ****** ****** ****** ****** ******
      ****** ****** ****** ****** ****** ****** ****** ****** ****** ******
   7  ****** ****** ****** ****** ****** ****** ****** ****** ****** ******
      ****** ****** ****** ****** ****** ****** ****** ****** ****** ******
      ****** ****** ****** ****** ****** ****** ****** ****** ****** ******
   8  ****** ****** ****** ****** ****** ****** ****** ****** ****** ******
      ****** ****** ****** ****** ****** ****** ****** ****** ****** ******
      ****** ****** ****** ****** ****** ****** ****** ****** ****** ******
   9  ****** ****** ****** ****** ****** ****** ****** ****** ****** ******
      ****** ****** ****** ****** ****** ****** ****** ****** ****** ******
      ****** ****** ****** ****** ****** ****** ****** ****** ****** ******
  10  ****** ****** ****** ****** ****** ****** ****** ****** ****** ******
      ****** ****** ****** ****** ****** ****** ****** ****** ****** ******
      ****** ****** ****** ****** ****** ****** ****** ****** ****** ******
  11  ****** ****** ****** ****** ****** ****** ****** ****** ****** ******
      ****** ****** ****** ****** ****** ****** ****** ****** ****** ******
      ****** ****** ****** ****** ****** ****** ****** ****** ****** ******
  12  ****** ****** ****** ****** ****** ****** ****** ****** ****** ******
      ****** ****** ****** ****** ****** ****** ****** ****** ****** ******
      ****** ****** ****** ****** ****** ****** ****** ****** ****** ******
  13  ****** ****** ****** ****** ****** ****** ****** ****** ****** ******
      ****** ****** ****** ****** ****** ****** ****** ****** ****** ******
      ****** ****** ****** ****** ****** ****** ****** ****** ****** ******
  14  ****** ****** ****** ****** ****** ****** ****** ****** ****** ******
      ****** ****** ****** ****** ****** ****** ****** ****** ****** ******
      ****** ****** ****** ****** ****** ****** ****** ****** ****** ******
  15  ****** ****** ****** ****** ****** ****** ****** ****** ****** ******
      ****** ****** ****** ****** ****** ****** ****** ****** ****** ******
      ****** ****** ****** ****** ****** ****** ****** ****** ****** ******
  16  ****** ****** ****** ****** ****** ****** ****** ****** ****** ******
      ****** ****** ****** ****** ****** ****** ****** ****** ****** ******
      ****** ****** ****** ****** ****** ****** ****** ****** ****** ******
  17  ****** ****** ****** ****** ****** ****** ****** ****** ****** ******
      ****** ****** ****** ****** ****** ****** ****** ****** ****** ******
      ****** ****** ****** ****** ****** ****** ****** ****** ****** ******
  18  ****** ****** ****** ****** ****** ****** ****** ****** ****** ******
      ****** ****** ****** ****** ****** ****** ****** ****** ****** ******
      ****** ****** ****** ****** ****** ****** ****** ****** ****** ******
  19  ****** ****** ****** ****** ****** ****** ****** ****** ****** ******
      ****** ****** ****** ****** ****** ****** ****** ****** ****** ******
      ****** ****** ****** ****** ****** ****** ****** ****** ****** ******
  20  ****** ****** ****** ****** ****** ****** ****** ****** ****** ******
      ****** ****** ****** ****** ****** ****** ****** ****** ****** ******
      ****** ****** ****** ****** ****** ****** ****** ****** ****** ******
  21  ****** ****** ****** ****** ****** ****** ****** ****** ****** ******
      ****** ****** ****** ****** ****** ****** ****** ****** ****** ******
      ****** ****** ****** ****** ****** ****** ****** ****** ****** ******
  22  ****** ****** ****** ****** ****** ****** ****** ****** ****** ******
      ****** ****** ****** ****** ****** ****** ****** ****** ****** ******
      ****** ****** ****** ****** ****** ****** ****** ****** ****** ******
  23  ****** ****** ****** ****** ****** ****** ****** ****** ****** ******
      ****** ****** ****** ****** ****** ****** ****** ****** ****** ******
      ****** ****** ****** ****** ****** ****** ****** ****** ****** ******
  24  ****** ****** ****** ****** ****** ****** ****** ****** ****** ******
      ****** ****** ****** ****** ****** ****** ****** ****** ****** ******
      ****** ****** ****** ****** ****** ****** ****** ****** ****** ******
  25  ****** ****** ****** ****** ****** ****** ****** ****** ****** ******
      ****** ****** ****** ****** ****** ****** ****** ****** ****** ******
      ****** ****** ****** ****** ****** ****** ****** ****** ****** ******

 HEAD WILL BE SAVED ON UNIT   51 AT END OF TIME STEP    1, STRESS PERIOD    2
1
  VOLUMETRIC BUDGET FOR ENTIRE MODEL AT END OF TIME STEP    1, STRESS PERIOD   2
  ------------------------------------------------------------------------------

     CUMULATIVE VOLUMES      L**3       RATES FOR THIS TIME STEP      L**3/T
     ------------------                 ------------------------

           IN:                                      IN:
           ---                                      ---
             STORAGE =    23133139.0323               STORAGE =       56971.6400
       CONSTANT HEAD =     2783102.4293         CONSTANT HEAD =       17609.3458
               WELLS =           0.0000                 WELLS =           0.0000
            RECHARGE =     6292800.0000              RECHARGE =       55200.0000
      STREAM LEAKAGE =      841212.1025        STREAM LEAKAGE =        5423.1129

            TOTAL IN =    33050253.5642              TOTAL IN =      135204.0988

          OUT:                                     OUT:
          ----                                     ----
             STORAGE =           0.0000               STORAGE =           0.0000
       CONSTANT HEAD =           0.0000         CONSTANT HEAD =           0.0000
               WELLS =     4670719.7692                 WELLS =       25523.0588
            RECHARGE =           0.0000              RECHARGE =           0.0000
      STREAM LEAKAGE =    28379534.9954        STREAM LEAKAGE =      109681.0501

           TOTAL OUT =    33050254.7646             TOTAL OUT =      135204.1089

            IN - OUT =          -1.2004              IN - OUT =      -1.0125E-02

 PERCENT DISCREPANCY =          -0.00     PERCENT DISCREPANCY =          -0.00






         TIME SUMMARY AT END OF TIME STEP    1 IN STRESS PERIOD    2
                    SECONDS     MINUTES      HOURS       DAYS        YEARS
                    -----------------------------------------------------------
   TIME STEP LENGTH 7.86240E+06 1.31040E+05  2184.0      91.000     0.24914    
 STRESS PERIOD TIME 7.86240E+06 1.31040E+05  2184.0      91.000     0.24914    
         TOTAL TIME 1.58112E+07 2.63520E+05  4392.0      183.00     0.50103    
1
1
                            STRESS PERIOD NO.    3, LENGTH =   91.00000    
                            -----------------------------------------------

                              NUMBER OF TIME STEPS =     1

                               MULTIPLIER FOR DELT =     1.500

                            INITIAL TIME STEP SIZE =   91.00000    

 WELL NO.  LAYER   ROW   COL   STRESS RATE         
 --------------------------------------------------
      1      1     14      6       0.000    
      2      1      3      9       0.000    
      3      1     20     10       0.000    
      4      1     14     20       0.000    
      5      1      4     17      -6818.    
      6      1     12     28      -9652.    
      7      1      7      8      -7590.    
      8      1     12      7      -1463.    

      8 WELLS

                 RECHARGE =   0.00000    

 REUSING STREAM SEGMENT DATA FROM LAST STRESS PERIOD
 
 SOLVING FOR HEAD 


     7 CALLS TO PCG ROUTINE FOR TIME STEP   1 IN STRESS PERIOD    3
    27 TOTAL ITERATIONS

 OUTPUT CONTROL FOR STRESS PERIOD    3   TIME STEP    1
    SAVE BUDGET
    SAVE HEAD FOR ALL LAYERS
    PRINT HEAD FOR ALL LAYERS
 UBDSV2 SAVING "STREAMFLOW OUT  " ON UNIT  50 AT TIME STEP  1, STRESS PERIOD   3



 STREAM LISTING     PERIOD      3   STEP        1

 LAYER ROW COL. STREAM  RCH.  FLOW INTO     FLOW TO   FLOW OUT OF   OVRLND.     DIRECT     STREAM       STREAM     STREAM     STREAM   STREAMBED  STREAMBED
                SEG.NO.  NO.  STRM. RCH.    AQUIFER    STRM. RCH.    RUNOFF     PRECIP       ET          HEAD       DEPTH      WIDTH   CONDCTNC.   GRADIENT

   1   13    1     1     1    1.0000E+05 -2.3454E+03   1.0235E+05  0.000E+00  0.000E+00  0.000E+00  4.84070E+01  1.457E-01  2.000E+01  2.000E+04 -1.173E-01
   1   13    2     1     2    1.0235E+05 -3.3891E+03   1.0573E+05  0.000E+00  0.000E+00  0.000E+00  4.79322E+01  1.481E-01  2.000E+01  2.000E+04 -1.695E-01
   1   14    3     1     3    1.0573E+05 -5.8394E+02   1.0632E+05  0.000E+00  0.000E+00  0.000E+00  4.74566E+01  1.498E-01  2.000E+01  2.000E+04 -2.920E-02
   1   15    4     1     4    1.0632E+05 -5.7555E+02   1.0689E+05  0.000E+00  0.000E+00  0.000E+00  4.69799E+01  1.503E-01  2.000E+01  2.000E+04 -2.878E-02
   1   16    5     1     5    1.0689E+05 -2.4255E+03   1.0932E+05  0.000E+00  0.000E+00  0.000E+00  4.65039E+01  1.516E-01  2.000E+01  2.000E+04 -1.213E-01
   1   16    6     1     6    1.0932E+05 -1.4414E+03   1.1076E+05  0.000E+00  0.000E+00  0.000E+00  4.60282E+01  1.532E-01  2.000E+01  2.000E+04 -7.207E-02
   1   16    7     1     7    1.1076E+05 -1.3926E+03   1.1215E+05  0.000E+00  0.000E+00  0.000E+00  4.55521E+01  1.544E-01  2.000E+01  2.000E+04 -6.963E-02
   1   16    8     1     8    1.1215E+05 -1.3941E+03   1.1355E+05  0.000E+00  0.000E+00  0.000E+00  4.50760E+01  1.555E-01  2.000E+01  2.000E+04 -6.970E-02
   1   16    9     1     9    1.1355E+05 -1.4006E+03   1.1495E+05  0.000E+00  0.000E+00  0.000E+00  4.45999E+01  1.567E-01  2.000E+01  2.000E+04 -7.003E-02
   1   16   10     1    10    1.1495E+05 -1.4000E+03   1.1635E+05  0.000E+00  0.000E+00  0.000E+00  4.41237E+01  1.578E-01  2.000E+01  2.000E+04 -7.000E-02
   1   16   11     1    11    1.1635E+05 -1.4217E+03   1.1777E+05  0.000E+00  0.000E+00  0.000E+00  4.36476E+01  1.590E-01  2.000E+01  2.000E+04 -7.109E-02
   1   16   12     1    12    1.1777E+05 -2.5024E+03   1.2027E+05  0.000E+00  0.000E+00  0.000E+00  4.31719E+01  1.606E-01  2.000E+01  2.000E+04 -1.251E-01
   1   15   13     1    13    1.2027E+05 -2.3036E+03   1.2258E+05  0.000E+00  0.000E+00  0.000E+00  4.26966E+01  1.625E-01  2.000E+01  2.000E+04 -1.152E-01
   1   14   14     1    14    1.2258E+05 -2.5197E+03   1.2510E+05  0.000E+00  0.000E+00  0.000E+00  4.22213E+01  1.644E-01  2.000E+01  2.000E+04 -1.260E-01
   1   13   15     1    15    1.2510E+05 -2.7351E+03   1.2783E+05  0.000E+00  0.000E+00  0.000E+00  4.17461E+01  1.665E-01  2.000E+01  2.000E+04 -1.368E-01
   1   12   16     1    16    1.2783E+05 -3.2613E+03   1.3109E+05  0.000E+00  0.000E+00  0.000E+00  4.12712E+01  1.689E-01  2.000E+01  2.000E+04 -1.631E-01
   1   12   17     1    17    1.3109E+05 -2.1735E+03   1.3327E+05  0.000E+00  0.000E+00  0.000E+00  4.07960E+01  1.710E-01  2.000E+01  2.000E+04 -1.087E-01
   1   12   18     1    18    1.3327E+05 -2.0947E+03   1.3536E+05  0.000E+00  0.000E+00  0.000E+00  4.03204E+01  1.727E-01  2.000E+01  2.000E+04 -1.047E-01
   1   12   19     1    19    1.3536E+05 -2.6956E+03   1.3806E+05  0.000E+00  0.000E+00  0.000E+00  3.98450E+01  1.745E-01  2.000E+01  2.000E+04 -1.348E-01
   1   13   20     1    20    1.3806E+05 -2.2199E+03   1.4028E+05  0.000E+00  0.000E+00  0.000E+00  3.93696E+01  1.764E-01  2.000E+01  2.000E+04 -1.110E-01
   1   14   21     1    21    1.4028E+05 -2.2903E+03   1.4257E+05  0.000E+00  0.000E+00  0.000E+00  3.88940E+01  1.781E-01  2.000E+01  2.000E+04 -1.145E-01
   1   14   22     1    22    1.4257E+05  4.8191E+03   1.3775E+05  0.000E+00  0.000E+00  0.000E+00  3.84158E+01  1.771E-01  2.000E+01  2.000E+04  2.410E-01
   1    9   30     2     1    5.0000E+04  1.1775E+02   4.9882E+04  0.000E+00  0.000E+00  0.000E+00  4.02408E+01  1.158E-01  2.000E+01  2.000E+04  5.888E-03
   1    9   29     2     2    4.9882E+04 -1.1433E+02   4.9997E+04  0.000E+00  0.000E+00  0.000E+00  3.99908E+01  1.158E-01  2.000E+01  2.000E+04 -5.717E-03
   1    9   28     2     3    4.9997E+04 -3.7631E+02   5.0373E+04  0.000E+00  0.000E+00  0.000E+00  3.97411E+01  1.161E-01  2.000E+01  2.000E+04 -1.882E-02
   1    9   27     2     4    5.0373E+04 -2.1944E+03   5.2567E+04  0.000E+00  0.000E+00  0.000E+00  3.94929E+01  1.179E-01  2.000E+01  2.000E+04 -1.097E-01
   1   10   26     2     5    5.2567E+04 -5.0552E+02   5.3073E+04  0.000E+00  0.000E+00  0.000E+00  3.92447E+01  1.197E-01  2.000E+01  2.000E+04 -2.528E-02
   1   11   25     2     6    5.3073E+04 -4.7599E+02   5.3549E+04  0.000E+00  0.000E+00  0.000E+00  3.89954E+01  1.204E-01  2.000E+01  2.000E+04 -2.380E-02
   1   12   24     2     7    5.3549E+04 -1.2225E+03   5.4771E+04  0.000E+00  0.000E+00  0.000E+00  3.87466E+01  1.216E-01  2.000E+01  2.000E+04 -6.112E-02
   1   13   23     2     8    5.4771E+04 -2.3504E+02   5.5006E+04  0.000E+00  0.000E+00  0.000E+00  3.84975E+01  1.225E-01  2.000E+01  2.000E+04 -1.175E-02
   1   14   22     2     9    5.5006E+04  1.4383E+03   5.3568E+04  0.000E+00  0.000E+00  0.000E+00  3.82467E+01  1.217E-01  2.000E+01  2.000E+04  7.191E-02
   1   14   22     3     1    1.9131E+05 -8.7935E+03   2.0011E+05  0.000E+00  0.000E+00  0.000E+00  3.77351E+01  1.796E-01  2.000E+01  2.000E+04 -4.397E-01
   1   15   23     3     2    2.0011E+05 -6.6784E+02   2.0078E+05  0.000E+00  0.000E+00  0.000E+00  3.68488E+01  1.822E-01  2.000E+01  2.000E+04 -3.339E-02
   1   15   24     3     3    2.0078E+05 -3.3155E+02   2.0111E+05  0.000E+00  0.000E+00  0.000E+00  3.59602E+01  1.824E-01  2.000E+01  2.000E+04 -1.658E-02
   1   15   25     3     4    2.0111E+05 -2.9446E+02   2.0140E+05  0.000E+00  0.000E+00  0.000E+00  3.50715E+01  1.826E-01  2.000E+01  2.000E+04 -1.472E-02
   1   15   26     3     5    2.0140E+05 -1.8585E+02   2.0159E+05  0.000E+00  0.000E+00  0.000E+00  3.41828E+01  1.828E-01  2.000E+01  2.000E+04 -9.293E-03
   1   16   27     3     6    2.0159E+05 -1.9637E+02   2.0178E+05  0.000E+00  0.000E+00  0.000E+00  3.32940E+01  1.829E-01  2.000E+01  2.000E+04 -9.819E-03
   1   17   28     3     7    2.0178E+05 -7.8404E+02   2.0257E+05  0.000E+00  0.000E+00  0.000E+00  3.24053E+01  1.831E-01  2.000E+01  2.000E+04 -3.920E-02
   1   18   29     3     8    2.0257E+05 -3.2064E+03   2.0577E+05  0.000E+00  0.000E+00  0.000E+00  3.15175E+01  1.842E-01  2.000E+01  2.000E+04 -1.603E-01
   1   18   30     3     9    2.0577E+05 -3.1289E+03   2.0890E+05  0.000E+00  0.000E+00  0.000E+00  3.06304E+01  1.859E-01  2.000E+01  2.000E+04 -1.564E-01



1
              HEAD IN LAYER   1 AT END OF TIME STEP   1 IN STRESS PERIOD    3
  ---------------------------------------------------------------------------

          1      2      3      4      5      6      7      8      9     10
         11     12     13     14     15     16     17     18     19     20
         21     22     23     24     25     26     27     28     29     30
 .........................................................................
   1  ****** ****** ****** ****** ****** ****** ****** ****** ****** ******
      ****** ****** ****** ****** ****** ****** ****** ****** ****** ******
      ****** ****** ****** ****** ****** ****** ****** ****** ****** ******
   2  ****** ****** ****** ****** ****** ****** ****** ****** ****** ******
      ****** ****** ****** ****** ****** ****** ****** ****** ****** ******
      ****** ****** ****** ****** ****** ****** ****** ****** ****** ******
   3  ****** ****** ****** ****** ****** ****** ****** ****** ****** ******
      ****** ****** ****** ****** ****** ****** ****** ****** ****** ******
      ****** ****** ****** ****** ****** ****** ****** ****** ****** ******
   4  ****** ****** ****** ****** ****** ****** ****** ****** ****** ******
      ****** ****** ****** ****** ****** ****** ****** ****** ****** ******
      ****** ****** ****** ****** ****** ****** ****** ****** ****** ******
   5  ****** ****** ****** ****** ****** ****** ****** ****** ****** ******
      ****** ****** ****** ****** ****** ****** ****** ****** ****** ******
      ****** ****** ****** ****** ****** ****** ****** ****** ****** ******
   6  ****** ****** ****** ****** ****** ****** ****** ****** ****** ******
      ****** ****** ****** ****** ****** ****** ****** ****** ****** ******
      ****** ****** ****** ****** ****** ****** ****** ****** ****** ******
   7  ****** ****** ****** ****** ****** ****** ****** ****** ****** ******
      ****** ****** ****** ****** ****** ****** ****** ****** ****** ******
      ****** ****** ****** ****** ****** ****** ****** ****** ****** ******
   8  ****** ****** ****** ****** ****** ****** ****** ****** ****** ******
      ****** ****** ****** ****** ****** ****** ****** ****** ****** ******
      ****** ****** ****** ****** ****** ****** ****** ****** ****** ******
   9  ****** ****** ****** ****** ****** ****** ****** ****** ****** ******
      ****** ****** ****** ****** ****** ****** ****** ****** ****** ******
      ****** ****** ****** ****** ****** ****** ****** ****** ****** ******
  10  ****** ****** ****** ****** ****** ****** ****** ****** ****** ******
      ****** ****** ****** ****** ****** ****** ****** ****** ****** ******
      ****** ****** ****** ****** ****** ****** ****** ****** ****** ******
  11  ****** ****** ****** ****** ****** ****** ****** ****** ****** ******
      ****** ****** ****** ****** ****** ****** ****** ****** ****** ******
      ****** ****** ****** ****** ****** ****** ****** ****** ****** ******
  12  ****** ****** ****** ****** ****** ****** ****** ****** ****** ******
      ****** ****** ****** ****** ****** ****** ****** ****** ****** ******
      ****** ****** ****** ****** ****** ****** ****** ****** ****** ******
  13  ****** ****** ****** ****** ****** ****** ****** ****** ****** ******
      ****** ****** ****** ****** ****** ****** ****** ****** ****** ******
      ****** ****** ****** ****** ****** ****** ****** ****** ****** ******
  14  ****** ****** ****** ****** ****** ****** ****** ****** ****** ******
      ****** ****** ****** ****** ****** ****** ****** ****** ****** ******
      ****** ****** ****** ****** ****** ****** ****** ****** ****** ******
  15  ****** ****** ****** ****** ****** ****** ****** ****** ****** ******
      ****** ****** ****** ****** ****** ****** ****** ****** ****** ******
      ****** ****** ****** ****** ****** ****** ****** ****** ****** ******
  16  ****** ****** ****** ****** ****** ****** ****** ****** ****** ******
      ****** ****** ****** ****** ****** ****** ****** ****** ****** ******
      ****** ****** ****** ****** ****** ****** ****** ****** ****** ******
  17  ****** ****** ****** ****** ****** ****** ****** ****** ****** ******
      ****** ****** ****** ****** ****** ****** ****** ****** ****** ******
      ****** ****** ****** ****** ****** ****** ****** ****** ****** ******
  18  ****** ****** ****** ****** ****** ****** ****** ****** ****** ******
      ****** ****** ****** ****** ****** ****** ****** ****** ****** ******
      ****** ****** ****** ****** ****** ****** ****** ****** ****** ******
  19  ****** ****** ****** ****** ****** ****** ****** ****** ****** ******
      ****** ****** ****** ****** ****** ****** ****** ****** ****** ******
      ****** ****** ****** ****** ****** ****** ****** ****** ****** ******
  20  ****** ****** ****** ****** ****** ****** ****** ****** ****** ******
      ****** ****** ****** ****** ****** ****** ****** ****** ****** ******
      ****** ****** ****** ****** ****** ****** ****** ****** ****** ******
  21  ****** ****** ****** ****** ****** ****** ****** ****** ****** ******
      ****** ****** ****** ****** ****** ****** ****** ****** ****** ******
      ****** ****** ****** ****** ****** ****** ****** ****** ****** ******
  22  ****** ****** ****** ****** ****** ****** ****** ****** ****** ******
      ****** ****** ****** ****** ****** ****** ****** ****** ****** ******
      ****** ****** ****** ****** ****** ****** ****** ****** ****** ******
  23  ****** ****** ****** ****** ****** ****** ****** ****** ****** ******
      ****** ****** ****** ****** ****** ****** ****** ****** ****** ******
      ****** ****** ****** ****** ****** ****** ****** ****** ****** ******
  24  ****** ****** ****** ****** ****** ****** ****** ****** ****** ******
      ****** ****** ****** ****** ****** ****** ****** ****** ****** ******
      ****** ****** ****** ****** ****** ****** ****** ****** ****** ******
  25  ****** ****** ****** ****** ****** ****** ****** ****** ****** ******
      ****** ****** ****** ****** ****** ****** ****** ****** ****** ******
      ****** ****** ****** ****** ****** ****** ****** ****** ****** ******

 HEAD WILL BE SAVED ON UNIT   51 AT END OF TIME STEP    1, STRESS PERIOD    3
1
  VOLUMETRIC BUDGET FOR ENTIRE MODEL AT END OF TIME STEP    1, STRESS PERIOD   3
  ------------------------------------------------------------------------------

     CUMULATIVE VOLUMES      L**3       RATES FOR THIS TIME STEP      L**3/T
     ------------------                 ------------------------

           IN:                                      IN:
           ---                                      ---
             STORAGE =    28413481.3193               STORAGE =       58025.7394
       CONSTANT HEAD =     5185611.6887         CONSTANT HEAD =       26401.2007
               WELLS =           0.0000                 WELLS =           0.0000
            RECHARGE =     6292800.0000              RECHARGE =           0.0000
      STREAM LEAKAGE =     1421347.3485        STREAM LEAKAGE =        6375.1126

            TOTAL IN =    41313240.3565              TOTAL IN =       90802.0527

          OUT:                                     OUT:
          ----                                     ----
             STORAGE =           0.0000               STORAGE =           0.0000
       CONSTANT HEAD =           0.0000         CONSTANT HEAD =           0.0000
               WELLS =     6993318.1243                 WELLS =       25523.0588
            RECHARGE =           0.0000              RECHARGE =           0.0000
      STREAM LEAKAGE =    34319924.1058        STREAM LEAKAGE =       65279.0012

           TOTAL OUT =    41313242.2302             TOTAL OUT =       90802.0601

            IN - OUT =          -1.8737              IN - OUT =      -7.3984E-03

 PERCENT DISCREPANCY =          -0.00     PERCENT DISCREPANCY =          -0.00






         TIME SUMMARY AT END OF TIME STEP    1 IN STRESS PERIOD    3
                    SECONDS     MINUTES      HOURS       DAYS        YEARS
                    -----------------------------------------------------------
   TIME STEP LENGTH 7.86240E+06 1.31040E+05  2184.0      91.000     0.24914    
 STRESS PERIOD TIME 7.86240E+06 1.31040E+05  2184.0      91.000     0.24914    
         TOTAL TIME 2.36736E+07 3.94560E+05  6576.0      274.00     0.75017    
1
1
                            STRESS PERIOD NO.    4, LENGTH =   91.00000    
                            -----------------------------------------------

                              NUMBER OF TIME STEPS =     1

                               MULTIPLIER FOR DELT =     1.500

                            INITIAL TIME STEP SIZE =   91.00000    

 WELL NO.  LAYER   ROW   COL   STRESS RATE         
 --------------------------------------------------
      1      1     14      6       0.000    
      2      1      3      9       0.000    
      3      1     20     10       0.000    
      4      1     14     20       0.000    
      5      1      4     17      -6818.    
      6      1     12     28      -9652.    
      7      1      7      8      -7590.    
      8      1     12      7      -1463.    

      8 WELLS

                 RECHARGE =  1.000000E-03

 REUSING STREAM SEGMENT DATA FROM LAST STRESS PERIOD
 
 SOLVING FOR HEAD 


     6 CALLS TO PCG ROUTINE FOR TIME STEP   1 IN STRESS PERIOD    4
    23 TOTAL ITERATIONS

 OUTPUT CONTROL FOR STRESS PERIOD    4   TIME STEP    1
    SAVE BUDGET
    SAVE HEAD FOR ALL LAYERS
    PRINT HEAD FOR ALL LAYERS
 UBDSV2 SAVING "STREAMFLOW OUT  " ON UNIT  50 AT TIME STEP  1, STRESS PERIOD   4



 STREAM LISTING     PERIOD      4   STEP        1

 LAYER ROW COL. STREAM  RCH.  FLOW INTO     FLOW TO   FLOW OUT OF   OVRLND.     DIRECT     STREAM       STREAM     STREAM     STREAM   STREAMBED  STREAMBED
                SEG.NO.  NO.  STRM. RCH.    AQUIFER    STRM. RCH.    RUNOFF     PRECIP       ET          HEAD       DEPTH      WIDTH   CONDCTNC.   GRADIENT

   1   13    1     1     1    1.0000E+05 -2.0063E+03   1.0201E+05  0.000E+00  0.000E+00  0.000E+00  4.84069E+01  1.455E-01  2.000E+01  2.000E+04 -1.003E-01
   1   13    2     1     2    1.0201E+05 -2.9928E+03   1.0500E+05  0.000E+00  0.000E+00  0.000E+00  4.79318E+01  1.477E-01  2.000E+01  2.000E+04 -1.496E-01
   1   14    3     1     3    1.0500E+05 -5.3625E+02   1.0554E+05  0.000E+00  0.000E+00  0.000E+00  4.74560E+01  1.492E-01  2.000E+01  2.000E+04 -2.681E-02
   1   15    4     1     4    1.0554E+05 -5.2153E+02   1.0606E+05  0.000E+00  0.000E+00  0.000E+00  4.69792E+01  1.496E-01  2.000E+01  2.000E+04 -2.608E-02
   1   16    5     1     5    1.0606E+05 -2.1192E+03   1.0818E+05  0.000E+00  0.000E+00  0.000E+00  4.65030E+01  1.507E-01  2.000E+01  2.000E+04 -1.060E-01
   1   16    6     1     6    1.0818E+05 -1.2816E+03   1.0946E+05  0.000E+00  0.000E+00  0.000E+00  4.60272E+01  1.522E-01  2.000E+01  2.000E+04 -6.408E-02
   1   16    7     1     7    1.0946E+05 -1.2425E+03   1.1070E+05  0.000E+00  0.000E+00  0.000E+00  4.55510E+01  1.532E-01  2.000E+01  2.000E+04 -6.213E-02
   1   16    8     1     8    1.1070E+05 -1.2495E+03   1.1195E+05  0.000E+00  0.000E+00  0.000E+00  4.50747E+01  1.543E-01  2.000E+01  2.000E+04 -6.247E-02
   1   16    9     1     9    1.1195E+05 -1.2622E+03   1.1321E+05  0.000E+00  0.000E+00  0.000E+00  4.45985E+01  1.553E-01  2.000E+01  2.000E+04 -6.311E-02
   1   16   10     1    10    1.1321E+05 -1.2701E+03   1.1448E+05  0.000E+00  0.000E+00  0.000E+00  4.41223E+01  1.564E-01  2.000E+01  2.000E+04 -6.351E-02
   1   16   11     1    11    1.1448E+05 -1.2979E+03   1.1578E+05  0.000E+00  0.000E+00  0.000E+00  4.36460E+01  1.574E-01  2.000E+01  2.000E+04 -6.490E-02
   1   16   12     1    12    1.1578E+05 -2.2393E+03   1.1802E+05  0.000E+00  0.000E+00  0.000E+00  4.31702E+01  1.589E-01  2.000E+01  2.000E+04 -1.120E-01
   1   15   13     1    13    1.1802E+05 -2.0301E+03   1.2005E+05  0.000E+00  0.000E+00  0.000E+00  4.26947E+01  1.606E-01  2.000E+01  2.000E+04 -1.015E-01
   1   14   14     1    14    1.2005E+05 -2.2037E+03   1.2225E+05  0.000E+00  0.000E+00  0.000E+00  4.22191E+01  1.623E-01  2.000E+01  2.000E+04 -1.102E-01
   1   13   15     1    15    1.2225E+05 -2.3759E+03   1.2463E+05  0.000E+00  0.000E+00  0.000E+00  4.17437E+01  1.641E-01  2.000E+01  2.000E+04 -1.188E-01
   1   12   16     1    16    1.2463E+05 -2.7731E+03   1.2740E+05  0.000E+00  0.000E+00  0.000E+00  4.12685E+01  1.662E-01  2.000E+01  2.000E+04 -1.387E-01
   1   12   17     1    17    1.2740E+05 -1.8959E+03   1.2930E+05  0.000E+00  0.000E+00  0.000E+00  4.07930E+01  1.680E-01  2.000E+01  2.000E+04 -9.479E-02
   1   12   18     1    18    1.2930E+05 -1.8434E+03   1.3114E+05  0.000E+00  0.000E+00  0.000E+00  4.03172E+01  1.695E-01  2.000E+01  2.000E+04 -9.217E-02
   1   12   19     1    19    1.3114E+05 -2.3846E+03   1.3353E+05  0.000E+00  0.000E+00  0.000E+00  3.98416E+01  1.711E-01  2.000E+01  2.000E+04 -1.192E-01
   1   13   20     1    20    1.3353E+05 -2.0429E+03   1.3557E+05  0.000E+00  0.000E+00  0.000E+00  3.93660E+01  1.728E-01  2.000E+01  2.000E+04 -1.021E-01
   1   14   21     1    21    1.3557E+05 -2.0773E+03   1.3765E+05  0.000E+00  0.000E+00  0.000E+00  3.88903E+01  1.744E-01  2.000E+01  2.000E+04 -1.039E-01
   1   14   22     1    22    1.3765E+05  4.8496E+03   1.3280E+05  0.000E+00  0.000E+00  0.000E+00  3.84120E+01  1.734E-01  2.000E+01  2.000E+04  2.425E-01
   1    9   30     2     1    5.0000E+04  2.2048E+02   4.9780E+04  0.000E+00  0.000E+00  0.000E+00  4.02407E+01  1.157E-01  2.000E+01  2.000E+04  1.102E-02
   1    9   29     2     2    4.9780E+04 -4.1230E+00   4.9784E+04  0.000E+00  0.000E+00  0.000E+00  3.99906E+01  1.156E-01  2.000E+01  2.000E+04 -2.062E-04
   1    9   28     2     3    4.9784E+04 -2.4445E+02   5.0028E+04  0.000E+00  0.000E+00  0.000E+00  3.97407E+01  1.157E-01  2.000E+01  2.000E+04 -1.222E-02
   1    9   27     2     4    5.0028E+04 -1.8989E+03   5.1927E+04  0.000E+00  0.000E+00  0.000E+00  3.94922E+01  1.172E-01  2.000E+01  2.000E+04 -9.494E-02
   1   10   26     2     5    5.1927E+04 -3.1915E+02   5.2246E+04  0.000E+00  0.000E+00  0.000E+00  3.92437E+01  1.187E-01  2.000E+01  2.000E+04 -1.596E-02
   1   11   25     2     6    5.2246E+04 -3.3023E+02   5.2576E+04  0.000E+00  0.000E+00  0.000E+00  3.89942E+01  1.192E-01  2.000E+01  2.000E+04 -1.651E-02
   1   12   24     2     7    5.2576E+04 -1.0964E+03   5.3673E+04  0.000E+00  0.000E+00  0.000E+00  3.87452E+01  1.202E-01  2.000E+01  2.000E+04 -5.482E-02
   1   13   23     2     8    5.3673E+04 -2.5626E+02   5.3929E+04  0.000E+00  0.000E+00  0.000E+00  3.84961E+01  1.211E-01  2.000E+01  2.000E+04 -1.281E-02
   1   14   22     2     9    5.3929E+04  1.5141E+03   5.2415E+04  0.000E+00  0.000E+00  0.000E+00  3.82452E+01  1.202E-01  2.000E+01  2.000E+04  7.570E-02
   1   14   22     3     1    1.8521E+05 -8.7554E+03   1.9397E+05  0.000E+00  0.000E+00  0.000E+00  3.77317E+01  1.762E-01  2.000E+01  2.000E+04 -4.378E-01
   1   15   23     3     2    1.9397E+05 -6.4932E+02   1.9462E+05  0.000E+00  0.000E+00  0.000E+00  3.68455E+01  1.788E-01  2.000E+01  2.000E+04 -3.247E-02
   1   15   24     3     3    1.9462E+05 -3.3261E+02   1.9495E+05  0.000E+00  0.000E+00  0.000E+00  3.59569E+01  1.791E-01  2.000E+01  2.000E+04 -1.663E-02
   1   15   25     3     4    1.9495E+05 -2.9414E+02   1.9524E+05  0.000E+00  0.000E+00  0.000E+00  3.50681E+01  1.792E-01  2.000E+01  2.000E+04 -1.471E-02
   1   15   26     3     5    1.9524E+05 -1.9190E+02   1.9543E+05  0.000E+00  0.000E+00  0.000E+00  3.41794E+01  1.794E-01  2.000E+01  2.000E+04 -9.595E-03
   1   16   27     3     6    1.9543E+05 -1.9511E+02   1.9563E+05  0.000E+00  0.000E+00  0.000E+00  3.32906E+01  1.795E-01  2.000E+01  2.000E+04 -9.755E-03
   1   17   28     3     7    1.9563E+05 -7.1385E+02   1.9634E+05  0.000E+00  0.000E+00  0.000E+00  3.24020E+01  1.797E-01  2.000E+01  2.000E+04 -3.569E-02
   1   18   29     3     8    1.9634E+05 -3.0004E+03   1.9934E+05  0.000E+00  0.000E+00  0.000E+00  3.15141E+01  1.808E-01  2.000E+01  2.000E+04 -1.500E-01
   1   18   30     3     9    1.9934E+05 -3.0247E+03   2.0237E+05  0.000E+00  0.000E+00  0.000E+00  3.06268E+01  1.824E-01  2.000E+01  2.000E+04 -1.512E-01



1
              HEAD IN LAYER   1 AT END OF TIME STEP   1 IN STRESS PERIOD    4
  ---------------------------------------------------------------------------

          1      2      3      4      5      6      7      8      9     10
         11     12     13     14     15     16     17     18     19     20
         21     22     23     24     25     26     27     28     29     30
 .........................................................................
   1  ****** ****** ****** ****** ****** ****** ****** ****** ****** ******
      ****** ****** ****** ****** ****** ****** ****** ****** ****** ******
      ****** ****** ****** ****** ****** ****** ****** ****** ****** ******
   2  ****** ****** ****** ****** ****** ****** ****** ****** ****** ******
      ****** ****** ****** ****** ****** ****** ****** ****** ****** ******
      ****** ****** ****** ****** ****** ****** ****** ****** ****** ******
   3  ****** ****** ****** ****** ****** ****** ****** ****** ****** ******
      ****** ****** ****** ****** ****** ****** ****** ****** ****** ******
      ****** ****** ****** ****** ****** ****** ****** ****** ****** ******
   4  ****** ****** ****** ****** ****** ****** ****** ****** ****** ******
      ****** ****** ****** ****** ****** ****** ****** ****** ****** ******
      ****** ****** ****** ****** ****** ****** ****** ****** ****** ******
   5  ****** ****** ****** ****** ****** ****** ****** ****** ****** ******
      ****** ****** ****** ****** ****** ****** ****** ****** ****** ******
      ****** ****** ****** ****** ****** ****** ****** ****** ****** ******
   6  ****** ****** ****** ****** ****** ****** ****** ****** ****** ******
      ****** ****** ****** ****** ****** ****** ****** ****** ****** ******
      ****** ****** ****** ****** ****** ****** ****** ****** ****** ******
   7  ****** ****** ****** ****** ****** ****** ****** ****** ****** ******
      ****** ****** ****** ****** ****** ****** ****** ****** ****** ******
      ****** ****** ****** ****** ****** ****** ****** ****** ****** ******
   8  ****** ****** ****** ****** ****** ****** ****** ****** ****** ******
      ****** ****** ****** ****** ****** ****** ****** ****** ****** ******
      ****** ****** ****** ****** ****** ****** ****** ****** ****** ******
   9  ****** ****** ****** ****** ****** ****** ****** ****** ****** ******
      ****** ****** ****** ****** ****** ****** ****** ****** ****** ******
      ****** ****** ****** ****** ****** ****** ****** ****** ****** ******
  10  ****** ****** ****** ****** ****** ****** ****** ****** ****** ******
      ****** ****** ****** ****** ****** ****** ****** ****** ****** ******
      ****** ****** ****** ****** ****** ****** ****** ****** ****** ******
  11  ****** ****** ****** ****** ****** ****** ****** ****** ****** ******
      ****** ****** ****** ****** ****** ****** ****** ****** ****** ******
      ****** ****** ****** ****** ****** ****** ****** ****** ****** ******
  12  ****** ****** ****** ****** ****** ****** ****** ****** ****** ******
      ****** ****** ****** ****** ****** ****** ****** ****** ****** ******
      ****** ****** ****** ****** ****** ****** ****** ****** ****** ******
  13  ****** ****** ****** ****** ****** ****** ****** ****** ****** ******
      ****** ****** ****** ****** ****** ****** ****** ****** ****** ******
      ****** ****** ****** ****** ****** ****** ****** ****** ****** ******
  14  ****** ****** ****** ****** ****** ****** ****** ****** ****** ******
      ****** ****** ****** ****** ****** ****** ****** ****** ****** ******
      ****** ****** ****** ****** ****** ****** ****** ****** ****** ******
  15  ****** ****** ****** ****** ****** ****** ****** ****** ****** ******
      ****** ****** ****** ****** ****** ****** ****** ****** ****** ******
      ****** ****** ****** ****** ****** ****** ****** ****** ****** ******
  16  ****** ****** ****** ****** ****** ****** ****** ****** ****** ******
      ****** ****** ****** ****** ****** ****** ****** ****** ****** ******
      ****** ****** ****** ****** ****** ****** ****** ****** ****** ******
  17  ****** ****** ****** ****** ****** ****** ****** ****** ****** ******
      ****** ****** ****** ****** ****** ****** ****** ****** ****** ******
      ****** ****** ****** ****** ****** ****** ****** ****** ****** ******
  18  ****** ****** ****** ****** ****** ****** ****** ****** ****** ******
      ****** ****** ****** ****** ****** ****** ****** ****** ****** ******
      ****** ****** ****** ****** ****** ****** ****** ****** ****** ******
  19  ****** ****** ****** ****** ****** ****** ****** ****** ****** ******
      ****** ****** ****** ****** ****** ****** ****** ****** ****** ******
      ****** ****** ****** ****** ****** ****** ****** ****** ****** ******
  20  ****** ****** ****** ****** ****** ****** ****** ****** ****** ******
      ****** ****** ****** ****** ****** ****** ****** ****** ****** ******
      ****** ****** ****** ****** ****** ****** ****** ****** ****** ******
  21  ****** ****** ****** ****** ****** ****** ****** ****** ****** ******
      ****** ****** ****** ****** ****** ****** ****** ****** ****** ******
      ****** ****** ****** ****** ****** ****** ****** ****** ****** ******
  22  ****** ****** ****** ****** ****** ****** ****** ****** ****** ******
      ****** ****** ****** ****** ****** ****** ****** ****** ****** ******
      ****** ****** ****** ****** ****** ****** ****** ****** ****** ******
  23  ****** ****** ****** ****** ****** ****** ****** ****** ****** ******
      ****** ****** ****** ****** ****** ****** ****** ****** ****** ******
      ****** ****** ****** ****** ****** ****** ****** ****** ****** ******
  24  ****** ****** ****** ****** ****** ****** ****** ****** ****** ******
      ****** ****** ****** ****** ****** ****** ****** ****** ****** ******
      ****** ****** ****** ****** ****** ****** ****** ****** ****** ******
  25  ****** ****** ****** ****** ****** ****** ****** ****** ****** ******
      ****** ****** ****** ****** ****** ****** ****** ****** ****** ******
      ****** ****** ****** ****** ****** ****** ****** ****** ****** ******

 HEAD WILL BE SAVED ON UNIT   51 AT END OF TIME STEP    1, STRESS PERIOD    4
1
  VOLUMETRIC BUDGET FOR ENTIRE MODEL AT END OF TIME STEP    1, STRESS PERIOD   4
  ------------------------------------------------------------------------------

     CUMULATIVE VOLUMES      L**3       RATES FOR THIS TIME STEP      L**3/T
     ------------------                 ------------------------

           IN:                                      IN:
           ---                                      ---
             STORAGE =    30331285.4382               STORAGE =       21074.7705
       CONSTANT HEAD =     7844896.0986         CONSTANT HEAD =       29222.9056
               WELLS =           0.0000                 WELLS =           0.0000
            RECHARGE =     8804400.0000              RECHARGE =       27600.0000
      STREAM LEAKAGE =     2020504.3810        STREAM LEAKAGE =        6584.1432

            TOTAL IN =    49001085.9177              TOTAL IN =       84481.8194

          OUT:                                     OUT:
          ----                                     ----
             STORAGE =         530.1964               STORAGE =           5.8263
       CONSTANT HEAD =           0.0000         CONSTANT HEAD =           0.0000
               WELLS =     9315916.4795                 WELLS =       25523.0588
            RECHARGE =           0.0000              RECHARGE =           0.0000
      STREAM LEAKAGE =    39684641.2073        STREAM LEAKAGE =       58952.9352

           TOTAL OUT =    49001087.8831             TOTAL OUT =       84481.8204

            IN - OUT =          -1.9654              IN - OUT =      -1.0080E-03

 PERCENT DISCREPANCY =          -0.00     PERCENT DISCREPANCY =          -0.00






         TIME SUMMARY AT END OF TIME STEP    1 IN STRESS PERIOD    4
                    SECONDS     MINUTES      HOURS       DAYS        YEARS
                    -----------------------------------------------------------
   TIME STEP LENGTH 7.86240E+06 1.31040E+05  2184.0      91.000     0.24914    
 STRESS PERIOD TIME 7.86240E+06 1.31040E+05  2184.0      91.000     0.24914    
         TOTAL TIME 3.15360E+07 5.25600E+05  8760.0      365.00     0.99932    
1
1
                            STRESS PERIOD NO.    5, LENGTH =   92.00000    
                            -----------------------------------------------

                              NUMBER OF TIME STEPS =     1

                               MULTIPLIER FOR DELT =     1.500

                            INITIAL TIME STEP SIZE =   92.00000    

 WELL NO.  LAYER   ROW   COL   STRESS RATE         
 --------------------------------------------------
      1      1     14      6       0.000    
      2      1      3      9       0.000    
      3      1     20     10       0.000    
      4      1     14     20       0.000    
      5      1      4     17      -6818.    
      6      1     12     28      -9652.    
      7      1      7      8      -7590.    
      8      1     12      7      -1463.    

      8 WELLS

                 RECHARGE =  5.000000E-04

 REUSING STREAM SEGMENT DATA FROM LAST STRESS PERIOD
 
 SOLVING FOR HEAD 


     7 CALLS TO PCG ROUTINE FOR TIME STEP   1 IN STRESS PERIOD    5
    26 TOTAL ITERATIONS

 OUTPUT CONTROL FOR STRESS PERIOD    5   TIME STEP    1
    SAVE BUDGET
    SAVE HEAD FOR ALL LAYERS
    PRINT HEAD FOR ALL LAYERS
 UBDSV2 SAVING "STREAMFLOW OUT  " ON UNIT  50 AT TIME STEP  1, STRESS PERIOD   5



 STREAM LISTING     PERIOD      5   STEP        1

 LAYER ROW COL. STREAM  RCH.  FLOW INTO     FLOW TO   FLOW OUT OF   OVRLND.     DIRECT     STREAM       STREAM     STREAM     STREAM   STREAMBED  STREAMBED
                SEG.NO.  NO.  STRM. RCH.    AQUIFER    STRM. RCH.    RUNOFF     PRECIP       ET          HEAD       DEPTH      WIDTH   CONDCTNC.   GRADIENT

   1   13    1     1     1    1.0000E+05 -1.5129E+03   1.0151E+05  0.000E+00  0.000E+00  0.000E+00  4.84067E+01  1.453E-01  2.000E+01  2.000E+04 -7.564E-02
   1   13    2     1     2    1.0151E+05 -2.4303E+03   1.0394E+05  0.000E+00  0.000E+00  0.000E+00  4.79311E+01  1.470E-01  2.000E+01  2.000E+04 -1.215E-01
   1   14    3     1     3    1.0394E+05 -3.9934E+02   1.0434E+05  0.000E+00  0.000E+00  0.000E+00  4.74550E+01  1.482E-01  2.000E+01  2.000E+04 -1.997E-02
   1   15    4     1     4    1.0434E+05 -3.8091E+02   1.0472E+05  0.000E+00  0.000E+00  0.000E+00  4.69781E+01  1.486E-01  2.000E+01  2.000E+04 -1.905E-02
   1   16    5     1     5    1.0472E+05 -1.6852E+03   1.0641E+05  0.000E+00  0.000E+00  0.000E+00  4.65017E+01  1.494E-01  2.000E+01  2.000E+04 -8.426E-02
   1   16    6     1     6    1.0641E+05 -1.0210E+03   1.0743E+05  0.000E+00  0.000E+00  0.000E+00  4.60256E+01  1.506E-01  2.000E+01  2.000E+04 -5.105E-02
   1   16    7     1     7    1.0743E+05 -9.9119E+02   1.0842E+05  0.000E+00  0.000E+00  0.000E+00  4.55492E+01  1.514E-01  2.000E+01  2.000E+04 -4.956E-02
   1   16    8     1     8    1.0842E+05 -1.0025E+03   1.0942E+05  0.000E+00  0.000E+00  0.000E+00  4.50727E+01  1.523E-01  2.000E+01  2.000E+04 -5.013E-02
   1   16    9     1     9    1.0942E+05 -1.0205E+03   1.1044E+05  0.000E+00  0.000E+00  0.000E+00  4.45963E+01  1.531E-01  2.000E+01  2.000E+04 -5.102E-02
   1   16   10     1    10    1.1044E+05 -1.0352E+03   1.1148E+05  0.000E+00  0.000E+00  0.000E+00  4.41199E+01  1.540E-01  2.000E+01  2.000E+04 -5.176E-02
   1   16   11     1    11    1.1148E+05 -1.0669E+03   1.1255E+05  0.000E+00  0.000E+00  0.000E+00  4.36435E+01  1.548E-01  2.000E+01  2.000E+04 -5.335E-02
   1   16   12     1    12    1.1255E+05 -1.8239E+03   1.1437E+05  0.000E+00  0.000E+00  0.000E+00  4.31674E+01  1.560E-01  2.000E+01  2.000E+04 -9.120E-02
   1   15   13     1    13    1.1437E+05 -1.5715E+03   1.1594E+05  0.000E+00  0.000E+00  0.000E+00  4.26915E+01  1.574E-01  2.000E+01  2.000E+04 -7.858E-02
   1   14   14     1    14    1.1594E+05 -1.7034E+03   1.1764E+05  0.000E+00  0.000E+00  0.000E+00  4.22156E+01  1.588E-01  2.000E+01  2.000E+04 -8.517E-02
   1   13   15     1    15    1.1764E+05 -1.8461E+03   1.1949E+05  0.000E+00  0.000E+00  0.000E+00  4.17398E+01  1.602E-01  2.000E+01  2.000E+04 -9.230E-02
   1   12   16     1    16    1.1949E+05 -2.1758E+03   1.2167E+05  0.000E+00  0.000E+00  0.000E+00  4.12641E+01  1.618E-01  2.000E+01  2.000E+04 -1.088E-01
   1   12   17     1    17    1.2167E+05 -1.5097E+03   1.2318E+05  0.000E+00  0.000E+00  0.000E+00  4.07883E+01  1.633E-01  2.000E+01  2.000E+04 -7.548E-02
   1   12   18     1    18    1.2318E+05 -1.4810E+03   1.2466E+05  0.000E+00  0.000E+00  0.000E+00  4.03122E+01  1.645E-01  2.000E+01  2.000E+04 -7.405E-02
   1   12   19     1    19    1.2466E+05 -1.9457E+03   1.2660E+05  0.000E+00  0.000E+00  0.000E+00  3.98363E+01  1.659E-01  2.000E+01  2.000E+04 -9.728E-02
   1   13   20     1    20    1.2660E+05 -1.6813E+03   1.2828E+05  0.000E+00  0.000E+00  0.000E+00  3.93605E+01  1.673E-01  2.000E+01  2.000E+04 -8.406E-02
   1   14   21     1    21    1.2828E+05 -1.7073E+03   1.2999E+05  0.000E+00  0.000E+00  0.000E+00  3.88845E+01  1.686E-01  2.000E+01  2.000E+04 -8.536E-02
   1   14   22     1    22    1.2999E+05  4.9268E+03   1.2506E+05  0.000E+00  0.000E+00  0.000E+00  3.84060E+01  1.674E-01  2.000E+01  2.000E+04  2.463E-01
   1    9   30     2     1    5.0000E+04  4.5852E+02   4.9541E+04  0.000E+00  0.000E+00  0.000E+00  4.02405E+01  1.155E-01  2.000E+01  2.000E+04  2.293E-02
   1    9   29     2     2    4.9541E+04  2.3798E+02   4.9304E+04  0.000E+00  0.000E+00  0.000E+00  3.99901E+01  1.151E-01  2.000E+01  2.000E+04  1.190E-02
   1    9   28     2     3    4.9304E+04  1.0873E+01   4.9293E+04  0.000E+00  0.000E+00  0.000E+00  3.97399E+01  1.149E-01  2.000E+01  2.000E+04  5.436E-04
   1    9   27     2     4    4.9293E+04 -1.4919E+03   5.0785E+04  0.000E+00  0.000E+00  0.000E+00  3.94909E+01  1.159E-01  2.000E+01  2.000E+04 -7.459E-02
   1   10   26     2     5    5.0785E+04  3.7568E+01   5.0747E+04  0.000E+00  0.000E+00  0.000E+00  3.92419E+01  1.169E-01  2.000E+01  2.000E+04  1.878E-03
   1   11   25     2     6    5.0747E+04 -1.6040E+00   5.0749E+04  0.000E+00  0.000E+00  0.000E+00  3.89919E+01  1.169E-01  2.000E+01  2.000E+04 -8.020E-05
   1   12   24     2     7    5.0749E+04 -7.9497E+02   5.1544E+04  0.000E+00  0.000E+00  0.000E+00  3.87425E+01  1.175E-01  2.000E+01  2.000E+04 -3.975E-02
   1   13   23     2     8    5.1544E+04 -1.8507E+02   5.1729E+04  0.000E+00  0.000E+00  0.000E+00  3.84931E+01  1.181E-01  2.000E+01  2.000E+04 -9.254E-03
   1   14   22     2     9    5.1729E+04  1.6490E+03   5.0080E+04  0.000E+00  0.000E+00  0.000E+00  3.82421E+01  1.171E-01  2.000E+01  2.000E+04  8.245E-02
   1   14   22     3     1    1.7514E+05 -8.6724E+03   1.8382E+05  0.000E+00  0.000E+00  0.000E+00  3.77261E+01  1.705E-01  2.000E+01  2.000E+04 -4.336E-01
   1   15   23     3     2    1.8382E+05 -5.5340E+02   1.8437E+05  0.000E+00  0.000E+00  0.000E+00  3.68398E+01  1.731E-01  2.000E+01  2.000E+04 -2.767E-02
   1   15   24     3     3    1.8437E+05 -2.6155E+02   1.8463E+05  0.000E+00  0.000E+00  0.000E+00  3.59511E+01  1.733E-01  2.000E+01  2.000E+04 -1.308E-02
   1   15   25     3     4    1.8463E+05 -2.2328E+02   1.8485E+05  0.000E+00  0.000E+00  0.000E+00  3.50624E+01  1.735E-01  2.000E+01  2.000E+04 -1.116E-02
   1   15   26     3     5    1.8485E+05 -1.1923E+02   1.8497E+05  0.000E+00  0.000E+00  0.000E+00  3.41736E+01  1.736E-01  2.000E+01  2.000E+04 -5.962E-03
   1   16   27     3     6    1.8497E+05 -1.0465E+02   1.8508E+05  0.000E+00  0.000E+00  0.000E+00  3.32847E+01  1.736E-01  2.000E+01  2.000E+04 -5.233E-03
   1   17   28     3     7    1.8508E+05 -4.4606E+02   1.8552E+05  0.000E+00  0.000E+00  0.000E+00  3.23960E+01  1.738E-01  2.000E+01  2.000E+04 -2.230E-02
   1   18   29     3     8    1.8552E+05 -2.6326E+03   1.8816E+05  0.000E+00  0.000E+00  0.000E+00  3.15080E+01  1.747E-01  2.000E+01  2.000E+04 -1.316E-01
   1   18   30     3     9    1.8816E+05 -2.7702E+03   1.9093E+05  0.000E+00  0.000E+00  0.000E+00  3.06206E+01  1.762E-01  2.000E+01  2.000E+04 -1.385E-01



1
              HEAD IN LAYER   1 AT END OF TIME STEP   1 IN STRESS PERIOD    5
  ---------------------------------------------------------------------------

          1      2      3      4      5      6      7      8      9     10
         11     12     13     14     15     16     17     18     19     20
         21     22     23     24     25     26     27     28     29     30
 .........................................................................
   1  ****** ****** ****** ****** ****** ****** ****** ****** ****** ******
      ****** ****** ****** ****** ****** ****** ****** ****** ****** ******
      ****** ****** ****** ****** ****** ****** ****** ****** ****** ******
   2  ****** ****** ****** ****** ****** ****** ****** ****** ****** ******
      ****** ****** ****** ****** ****** ****** ****** ****** ****** ******
      ****** ****** ****** ****** ****** ****** ****** ****** ****** ******
   3  ****** ****** ****** ****** ****** ****** ****** ****** ****** ******
      ****** ****** ****** ****** ****** ****** ****** ****** ****** ******
      ****** ****** ****** ****** ****** ****** ****** ****** ****** ******
   4  ****** ****** ****** ****** ****** ****** ****** ****** ****** ******
      ****** ****** ****** ****** ****** ****** ****** ****** ****** ******
      ****** ****** ****** ****** ****** ****** ****** ****** ****** ******
   5  ****** ****** ****** ****** ****** ****** ****** ****** ****** ******
      ****** ****** ****** ****** ****** ****** ****** ****** ****** ******
      ****** ****** ****** ****** ****** ****** ****** ****** ****** ******
   6  ****** ****** ****** ****** ****** ****** ****** ****** ****** ******
      ****** ****** ****** ****** ****** ****** ****** ****** ****** ******
      ****** ****** ****** ****** ****** ****** ****** ****** ****** ******
   7  ****** ****** ****** ****** ****** ****** ****** ****** ****** ******
      ****** ****** ****** ****** ****** ****** ****** ****** ****** ******
      ****** ****** ****** ****** ****** ****** ****** ****** ****** ******
   8  ****** ****** ****** ****** ****** ****** ****** ****** ****** ******
      ****** ****** ****** ****** ****** ****** ****** ****** ****** ******
      ****** ****** ****** ****** ****** ****** ****** ****** ****** ******
   9  ****** ****** ****** ****** ****** ****** ****** ****** ****** ******
      ****** ****** ****** ****** ****** ****** ****** ****** ****** ******
      ****** ****** ****** ****** ****** ****** ****** ****** ****** ******
  10  ****** ****** ****** ****** ****** ****** ****** ****** ****** ******
      ****** ****** ****** ****** ****** ****** ****** ****** ****** ******
      ****** ****** ****** ****** ****** ****** ****** ****** ****** ******
  11  ****** ****** ****** ****** ****** ****** ****** ****** ****** ******
      ****** ****** ****** ****** ****** ****** ****** ****** ****** ******
      ****** ****** ****** ****** ****** ****** ****** ****** ****** ******
  12  ****** ****** ****** ****** ****** ****** ****** ****** ****** ******
      ****** ****** ****** ****** ****** ****** ****** ****** ****** ******
      ****** ****** ****** ****** ****** ****** ****** ****** ****** ******
  13  ****** ****** ****** ****** ****** ****** ****** ****** ****** ******
      ****** ****** ****** ****** ****** ****** ****** ****** ****** ******
      ****** ****** ****** ****** ****** ****** ****** ****** ****** ******
  14  ****** ****** ****** ****** ****** ****** ****** ****** ****** ******
      ****** ****** ****** ****** ****** ****** ****** ****** ****** ******
      ****** ****** ****** ****** ****** ****** ****** ****** ****** ******
  15  ****** ****** ****** ****** ****** ****** ****** ****** ****** ******
      ****** ****** ****** ****** ****** ****** ****** ****** ****** ******
      ****** ****** ****** ****** ****** ****** ****** ****** ****** ******
  16  ****** ****** ****** ****** ****** ****** ****** ****** ****** ******
      ****** ****** ****** ****** ****** ****** ****** ****** ****** ******
      ****** ****** ****** ****** ****** ****** ****** ****** ****** ******
  17  ****** ****** ****** ****** ****** ****** ****** ****** ****** ******
      ****** ****** ****** ****** ****** ****** ****** ****** ****** ******
      ****** ****** ****** ****** ****** ****** ****** ****** ****** ******
  18  ****** ****** ****** ****** ****** ****** ****** ****** ****** ******
      ****** ****** ****** ****** ****** ****** ****** ****** ****** ******
      ****** ****** ****** ****** ****** ****** ****** ****** ****** ******
  19  ****** ****** ****** ****** ****** ****** ****** ****** ****** ******
      ****** ****** ****** ****** ****** ****** ****** ****** ****** ******
      ****** ****** ****** ****** ****** ****** ****** ****** ****** ******
  20  ****** ****** ****** ****** ****** ****** ****** ****** ****** ******
      ****** ****** ****** ****** ****** ****** ****** ****** ****** ******
      ****** ****** ****** ****** ****** ****** ****** ****** ****** ******
  21  ****** ****** ****** ****** ****** ****** ****** ****** ****** ******
      ****** ****** ****** ****** ****** ****** ****** ****** ****** ******
      ****** ****** ****** ****** ****** ****** ****** ****** ****** ******
  22  ****** ****** ****** ****** ****** ****** ****** ****** ****** ******
      ****** ****** ****** ****** ****** ****** ****** ****** ****** ******
      ****** ****** ****** ****** ****** ****** ****** ****** ****** ******
  23  ****** ****** ****** ****** ****** ****** ****** ****** ****** ******
      ****** ****** ****** ****** ****** ****** ****** ****** ****** ******
      ****** ****** ****** ****** ****** ****** ****** ****** ****** ******
  24  ****** ****** ****** ****** ****** ****** ****** ****** ****** ******
      ****** ****** ****** ****** ****** ****** ****** ****** ****** ******
      ****** ****** ****** ****** ****** ****** ****** ****** ****** ******
  25  ****** ****** ****** ****** ****** ****** ****** ****** ****** ******
      ****** ****** ****** ****** ****** ****** ****** ****** ****** ******
      ****** ****** ****** ****** ****** ****** ****** ****** ****** ******

 HEAD WILL BE SAVED ON UNIT   51 AT END OF TIME STEP    1, STRESS PERIOD    5
1
  VOLUMETRIC BUDGET FOR ENTIRE MODEL AT END OF TIME STEP    1, STRESS PERIOD   5
  ------------------------------------------------------------------------------

     CUMULATIVE VOLUMES      L**3       RATES FOR THIS TIME STEP      L**3/T
     ------------------                 ------------------------

           IN:                                      IN:
           ---                                      ---
             STORAGE =    32200555.0762               STORAGE =       20318.1482
       CONSTANT HEAD =    10819488.9262         CONSTANT HEAD =       32332.5307
               WELLS =           0.0000                 WELLS =           0.0000
            RECHARGE =    10074000.0000              RECHARGE =       13800.0000
      STREAM LEAKAGE =     2694009.5071        STREAM LEAKAGE =        7320.7079

            TOTAL IN =    55788053.5095              TOTAL IN =       73771.3869

          OUT:                                     OUT:
          ----                                     ----
             STORAGE =         530.1964               STORAGE =           0.0000
       CONSTANT HEAD =           0.0000         CONSTANT HEAD =           0.0000
               WELLS =    11664037.8935                 WELLS =       25523.0588
            RECHARGE =           0.0000              RECHARGE =           0.0000
      STREAM LEAKAGE =    44123487.6915        STREAM LEAKAGE =       48248.3314

           TOTAL OUT =    55788055.7814             TOTAL OUT =       73771.3902

            IN - OUT =          -2.2718              IN - OUT =      -3.3309E-03

 PERCENT DISCREPANCY =          -0.00     PERCENT DISCREPANCY =          -0.00






         TIME SUMMARY AT END OF TIME STEP    1 IN STRESS PERIOD    5
                    SECONDS     MINUTES      HOURS       DAYS        YEARS
                    -----------------------------------------------------------
   TIME STEP LENGTH 7.94880E+06 1.32480E+05  2208.0      92.000     0.25188    
 STRESS PERIOD TIME 7.94880E+06 1.32480E+05  2208.0      92.000     0.25188    
         TOTAL TIME 3.94848E+07 6.58080E+05  10968.      457.00      1.2512    
1
1
                            STRESS PERIOD NO.    6, LENGTH =   91.00000    
                            -----------------------------------------------

                              NUMBER OF TIME STEPS =     1

                               MULTIPLIER FOR DELT =     1.500

                            INITIAL TIME STEP SIZE =   91.00000    

 WELL NO.  LAYER   ROW   COL   STRESS RATE         
 --------------------------------------------------
      1      1     14      6       0.000    
      2      1      3      9       0.000    
      3      1     20     10       0.000    
      4      1     14     20       0.000    
      5      1      4     17      -6818.    
      6      1     12     28      -9652.    
      7      1      7      8      -7590.    
      8      1     12      7      -1463.    

      8 WELLS

                 RECHARGE =  2.000000E-03

 REUSING STREAM SEGMENT DATA FROM LAST STRESS PERIOD
 
 SOLVING FOR HEAD 


     7 CALLS TO PCG ROUTINE FOR TIME STEP   1 IN STRESS PERIOD    6
    26 TOTAL ITERATIONS

 OUTPUT CONTROL FOR STRESS PERIOD    6   TIME STEP    1
    SAVE BUDGET
    SAVE HEAD FOR ALL LAYERS
    PRINT HEAD FOR ALL LAYERS
 UBDSV2 SAVING "STREAMFLOW OUT  " ON UNIT  50 AT TIME STEP  1, STRESS PERIOD   6



 STREAM LISTING     PERIOD      6   STEP        1

 LAYER ROW COL. STREAM  RCH.  FLOW INTO     FLOW TO   FLOW OUT OF   OVRLND.     DIRECT     STREAM       STREAM     STREAM     STREAM   STREAMBED  STREAMBED
                SEG.NO.  NO.  STRM. RCH.    AQUIFER    STRM. RCH.    RUNOFF     PRECIP       ET          HEAD       DEPTH      WIDTH   CONDCTNC.   GRADIENT

   1   13    1     1     1    1.0000E+05 -1.7707E+03   1.0177E+05  0.000E+00  0.000E+00  0.000E+00  4.84068E+01  1.454E-01  2.000E+01  2.000E+04 -8.854E-02
   1   13    2     1     2    1.0177E+05 -2.7071E+03   1.0448E+05  0.000E+00  0.000E+00  0.000E+00  4.79314E+01  1.473E-01  2.000E+01  2.000E+04 -1.354E-01
   1   14    3     1     3    1.0448E+05 -5.4345E+02   1.0502E+05  0.000E+00  0.000E+00  0.000E+00  4.74556E+01  1.487E-01  2.000E+01  2.000E+04 -2.717E-02
   1   15    4     1     4    1.0502E+05 -5.3859E+02   1.0556E+05  0.000E+00  0.000E+00  0.000E+00  4.69787E+01  1.492E-01  2.000E+01  2.000E+04 -2.693E-02
   1   16    5     1     5    1.0556E+05 -2.1789E+03   1.0774E+05  0.000E+00  0.000E+00  0.000E+00  4.65026E+01  1.503E-01  2.000E+01  2.000E+04 -1.089E-01
   1   16    6     1     6    1.0774E+05 -1.3059E+03   1.0904E+05  0.000E+00  0.000E+00  0.000E+00  4.60268E+01  1.518E-01  2.000E+01  2.000E+04 -6.529E-02
   1   16    7     1     7    1.0904E+05 -1.2600E+03   1.1030E+05  0.000E+00  0.000E+00  0.000E+00  4.55506E+01  1.529E-01  2.000E+01  2.000E+04 -6.300E-02
   1   16    8     1     8    1.1030E+05 -1.2672E+03   1.1157E+05  0.000E+00  0.000E+00  0.000E+00  4.50744E+01  1.539E-01  2.000E+01  2.000E+04 -6.336E-02
   1   16    9     1     9    1.1157E+05 -1.2861E+03   1.1286E+05  0.000E+00  0.000E+00  0.000E+00  4.45982E+01  1.550E-01  2.000E+01  2.000E+04 -6.431E-02
   1   16   10     1    10    1.1286E+05 -1.3048E+03   1.1416E+05  0.000E+00  0.000E+00  0.000E+00  4.41220E+01  1.561E-01  2.000E+01  2.000E+04 -6.524E-02
   1   16   11     1    11    1.1416E+05 -1.3428E+03   1.1551E+05  0.000E+00  0.000E+00  0.000E+00  4.36458E+01  1.572E-01  2.000E+01  2.000E+04 -6.714E-02
   1   16   12     1    12    1.1551E+05 -2.2680E+03   1.1777E+05  0.000E+00  0.000E+00  0.000E+00  4.31700E+01  1.586E-01  2.000E+01  2.000E+04 -1.134E-01
   1   15   13     1    13    1.1777E+05 -2.0108E+03   1.1978E+05  0.000E+00  0.000E+00  0.000E+00  4.26945E+01  1.604E-01  2.000E+01  2.000E+04 -1.005E-01
   1   14   14     1    14    1.1978E+05 -2.1280E+03   1.2191E+05  0.000E+00  0.000E+00  0.000E+00  4.22189E+01  1.621E-01  2.000E+01  2.000E+04 -1.064E-01
   1   13   15     1    15    1.2191E+05 -2.2432E+03   1.2416E+05  0.000E+00  0.000E+00  0.000E+00  4.17434E+01  1.638E-01  2.000E+01  2.000E+04 -1.122E-01
   1   12   16     1    16    1.2416E+05 -2.5125E+03   1.2667E+05  0.000E+00  0.000E+00  0.000E+00  4.12680E+01  1.657E-01  2.000E+01  2.000E+04 -1.256E-01
   1   12   17     1    17    1.2667E+05 -1.8012E+03   1.2847E+05  0.000E+00  0.000E+00  0.000E+00  4.07924E+01  1.674E-01  2.000E+01  2.000E+04 -9.006E-02
   1   12   18     1    18    1.2847E+05 -1.7810E+03   1.3025E+05  0.000E+00  0.000E+00  0.000E+00  4.03165E+01  1.688E-01  2.000E+01  2.000E+04 -8.905E-02
   1   12   19     1    19    1.3025E+05 -2.3194E+03   1.3257E+05  0.000E+00  0.000E+00  0.000E+00  3.98409E+01  1.704E-01  2.000E+01  2.000E+04 -1.160E-01
   1   13   20     1    20    1.3257E+05 -2.0985E+03   1.3467E+05  0.000E+00  0.000E+00  0.000E+00  3.93653E+01  1.721E-01  2.000E+01  2.000E+04 -1.049E-01
   1   14   21     1    21    1.3467E+05 -2.1241E+03   1.3679E+05  0.000E+00  0.000E+00  0.000E+00  3.88897E+01  1.738E-01  2.000E+01  2.000E+04 -1.062E-01
   1   14   22     1    22    1.3679E+05  4.8157E+03   1.3198E+05  0.000E+00  0.000E+00  0.000E+00  3.84114E+01  1.727E-01  2.000E+01  2.000E+04  2.408E-01
   1    9   30     2     1    5.0000E+04  9.8681E+01   4.9901E+04  0.000E+00  0.000E+00  0.000E+00  4.02408E+01  1.158E-01  2.000E+01  2.000E+04  4.934E-03
   1    9   29     2     2    4.9901E+04 -1.1711E+02   5.0018E+04  0.000E+00  0.000E+00  0.000E+00  3.99908E+01  1.158E-01  2.000E+01  2.000E+04 -5.856E-03
   1    9   28     2     3    5.0018E+04 -3.3646E+02   5.0355E+04  0.000E+00  0.000E+00  0.000E+00  3.97411E+01  1.161E-01  2.000E+01  2.000E+04 -1.682E-02
   1    9   27     2     4    5.0355E+04 -1.9260E+03   5.2281E+04  0.000E+00  0.000E+00  0.000E+00  3.94927E+01  1.177E-01  2.000E+01  2.000E+04 -9.630E-02
   1   10   26     2     5    5.2281E+04 -4.2167E+02   5.2703E+04  0.000E+00  0.000E+00  0.000E+00  3.92443E+01  1.193E-01  2.000E+01  2.000E+04 -2.108E-02
   1   11   25     2     6    5.2703E+04 -4.4634E+02   5.3149E+04  0.000E+00  0.000E+00  0.000E+00  3.89949E+01  1.199E-01  2.000E+01  2.000E+04 -2.232E-02
   1   12   24     2     7    5.3149E+04 -1.1947E+03   5.4344E+04  0.000E+00  0.000E+00  0.000E+00  3.87460E+01  1.210E-01  2.000E+01  2.000E+04 -5.974E-02
   1   13   23     2     8    5.4344E+04 -3.2129E+02   5.4665E+04  0.000E+00  0.000E+00  0.000E+00  3.84970E+01  1.220E-01  2.000E+01  2.000E+04 -1.606E-02
   1   14   22     2     9    5.4665E+04  1.5130E+03   5.3152E+04  0.000E+00  0.000E+00  0.000E+00  3.82462E+01  1.212E-01  2.000E+01  2.000E+04  7.565E-02
   1   14   22     3     1    1.8513E+05 -8.7772E+03   1.9391E+05  0.000E+00  0.000E+00  0.000E+00  3.77317E+01  1.762E-01  2.000E+01  2.000E+04 -4.389E-01
   1   15   23     3     2    1.9391E+05 -6.9263E+02   1.9460E+05  0.000E+00  0.000E+00  0.000E+00  3.68454E+01  1.788E-01  2.000E+01  2.000E+04 -3.463E-02
   1   15   24     3     3    1.9460E+05 -3.8450E+02   1.9498E+05  0.000E+00  0.000E+00  0.000E+00  3.59569E+01  1.791E-01  2.000E+01  2.000E+04 -1.923E-02
   1   15   25     3     4    1.9498E+05 -3.5052E+02   1.9533E+05  0.000E+00  0.000E+00  0.000E+00  3.50682E+01  1.793E-01  2.000E+01  2.000E+04 -1.753E-02
   1   15   26     3     5    1.9533E+05 -2.7097E+02   1.9560E+05  0.000E+00  0.000E+00  0.000E+00  3.41795E+01  1.795E-01  2.000E+01  2.000E+04 -1.355E-02
   1   16   27     3     6    1.9560E+05 -2.7428E+02   1.9588E+05  0.000E+00  0.000E+00  0.000E+00  3.32907E+01  1.796E-01  2.000E+01  2.000E+04 -1.371E-02
   1   17   28     3     7    1.9588E+05 -9.1222E+02   1.9679E+05  0.000E+00  0.000E+00  0.000E+00  3.24022E+01  1.799E-01  2.000E+01  2.000E+04 -4.561E-02
   1   18   29     3     8    1.9679E+05 -3.0808E+03   1.9987E+05  0.000E+00  0.000E+00  0.000E+00  3.15144E+01  1.810E-01  2.000E+01  2.000E+04 -1.540E-01
   1   18   30     3     9    1.9987E+05 -3.1315E+03   2.0300E+05  0.000E+00  0.000E+00  0.000E+00  3.06272E+01  1.827E-01  2.000E+01  2.000E+04 -1.566E-01



1
              HEAD IN LAYER   1 AT END OF TIME STEP   1 IN STRESS PERIOD    6
  ---------------------------------------------------------------------------

          1      2      3      4      5      6      7      8      9     10
         11     12     13     14     15     16     17     18     19     20
         21     22     23     24     25     26     27     28     29     30
 .........................................................................
   1  ****** ****** ****** ****** ****** ****** ****** ****** ****** ******
      ****** ****** ****** ****** ****** ****** ****** ****** ****** ******
      ****** ****** ****** ****** ****** ****** ****** ****** ****** ******
   2  ****** ****** ****** ****** ****** ****** ****** ****** ****** ******
      ****** ****** ****** ****** ****** ****** ****** ****** ****** ******
      ****** ****** ****** ****** ****** ****** ****** ****** ****** ******
   3  ****** ****** ****** ****** ****** ****** ****** ****** ****** ******
      ****** ****** ****** ****** ****** ****** ****** ****** ****** ******
      ****** ****** ****** ****** ****** ****** ****** ****** ****** ******
   4  ****** ****** ****** ****** ****** ****** ****** ****** ****** ******
      ****** ****** ****** ****** ****** ****** ****** ****** ****** ******
      ****** ****** ****** ****** ****** ****** ****** ****** ****** ******
   5  ****** ****** ****** ****** ****** ****** ****** ****** ****** ******
      ****** ****** ****** ****** ****** ****** ****** ****** ****** ******
      ****** ****** ****** ****** ****** ****** ****** ****** ****** ******
   6  ****** ****** ****** ****** ****** ****** ****** ****** ****** ******
      ****** ****** ****** ****** ****** ****** ****** ****** ****** ******
      ****** ****** ****** ****** ****** ****** ****** ****** ****** ******
   7  ****** ****** ****** ****** ****** ****** ****** ****** ****** ******
      ****** ****** ****** ****** ****** ****** ****** ****** ****** ******
      ****** ****** ****** ****** ****** ****** ****** ****** ****** ******
   8  ****** ****** ****** ****** ****** ****** ****** ****** ****** ******
      ****** ****** ****** ****** ****** ****** ****** ****** ****** ******
      ****** ****** ****** ****** ****** ****** ****** ****** ****** ******
   9  ****** ****** ****** ****** ****** ****** ****** ****** ****** ******
      ****** ****** ****** ****** ****** ****** ****** ****** ****** ******
      ****** ****** ****** ****** ****** ****** ****** ****** ****** ******
  10  ****** ****** ****** ****** ****** ****** ****** ****** ****** ******
      ****** ****** ****** ****** ****** ****** ****** ****** ****** ******
      ****** ****** ****** ****** ****** ****** ****** ****** ****** ******
  11  ****** ****** ****** ****** ****** ****** ****** ****** ****** ******
      ****** ****** ****** ****** ****** ****** ****** ****** ****** ******
      ****** ****** ****** ****** ****** ****** ****** ****** ****** ******
  12  ****** ****** ****** ****** ****** ****** ****** ****** ****** ******
      ****** ****** ****** ****** ****** ****** ****** ****** ****** ******
      ****** ****** ****** ****** ****** ****** ****** ****** ****** ******
  13  ****** ****** ****** ****** ****** ****** ****** ****** ****** ******
      ****** ****** ****** ****** ****** ****** ****** ****** ****** ******
      ****** ****** ****** ****** ****** ****** ****** ****** ****** ******
  14  ****** ****** ****** ****** ****** ****** ****** ****** ****** ******
      ****** ****** ****** ****** ****** ****** ****** ****** ****** ******
      ****** ****** ****** ****** ****** ****** ****** ****** ****** ******
  15  ****** ****** ****** ****** ****** ****** ****** ****** ****** ******
      ****** ****** ****** ****** ****** ****** ****** ****** ****** ******
      ****** ****** ****** ****** ****** ****** ****** ****** ****** ******
  16  ****** ****** ****** ****** ****** ****** ****** ****** ****** ******
      ****** ****** ****** ****** ****** ****** ****** ****** ****** ******
      ****** ****** ****** ****** ****** ****** ****** ****** ****** ******
  17  ****** ****** ****** ****** ****** ****** ****** ****** ****** ******
      ****** ****** ****** ****** ****** ****** ****** ****** ****** ******
      ****** ****** ****** ****** ****** ****** ****** ****** ****** ******
  18  ****** ****** ****** ****** ****** ****** ****** ****** ****** ******
      ****** ****** ****** ****** ****** ****** ****** ****** ****** ******
      ****** ****** ****** ****** ****** ****** ****** ****** ****** ******
  19  ****** ****** ****** ****** ****** ****** ****** ****** ****** ******
      ****** ****** ****** ****** ****** ****** ****** ****** ****** ******
      ****** ****** ****** ****** ****** ****** ****** ****** ****** ******
  20  ****** ****** ****** ****** ****** ****** ****** ****** ****** ******
      ****** ****** ****** ****** ****** ****** ****** ****** ****** ******
      ****** ****** ****** ****** ****** ****** ****** ****** ****** ******
  21  ****** ****** ****** ****** ****** ****** ****** ****** ****** ******
      ****** ****** ****** ****** ****** ****** ****** ****** ****** ******
      ****** ****** ****** ****** ****** ****** ****** ****** ****** ******
  22  ****** ****** ****** ****** ****** ****** ****** ****** ****** ******
      ****** ****** ****** ****** ****** ****** ****** ****** ****** ******
      ****** ****** ****** ****** ****** ****** ****** ****** ****** ******
  23  ****** ****** ****** ****** ****** ****** ****** ****** ****** ******
      ****** ****** ****** ****** ****** ****** ****** ****** ****** ******
      ****** ****** ****** ****** ****** ****** ****** ****** ****** ******
  24  ****** ****** ****** ****** ****** ****** ****** ****** ****** ******
      ****** ****** ****** ****** ****** ****** ****** ****** ****** ******
      ****** ****** ****** ****** ****** ****** ****** ****** ****** ******
  25  ****** ****** ****** ****** ****** ****** ****** ****** ****** ******
      ****** ****** ****** ****** ****** ****** ****** ****** ****** ******
      ****** ****** ****** ****** ****** ****** ****** ****** ****** ******

 HEAD WILL BE SAVED ON UNIT   51 AT END OF TIME STEP    1, STRESS PERIOD    6
1
  VOLUMETRIC BUDGET FOR ENTIRE MODEL AT END OF TIME STEP    1, STRESS PERIOD   6
  ------------------------------------------------------------------------------

     CUMULATIVE VOLUMES      L**3       RATES FOR THIS TIME STEP      L**3/T
     ------------------                 ------------------------

           IN:                                      IN:
           ---                                      ---
             STORAGE =    32239744.5620               STORAGE =         430.6537
       CONSTANT HEAD =    13601652.2840         CONSTANT HEAD =       30573.2237
               WELLS =           0.0000                 WELLS =           0.0000
            RECHARGE =    15097200.0000              RECHARGE =       55200.0000
      STREAM LEAKAGE =     3278894.8087        STREAM LEAKAGE =        6427.3110

            TOTAL IN =    64217491.6546              TOTAL IN =       92631.1884

          OUT:                                     OUT:
          ----                                     ----
             STORAGE =      699186.8807               STORAGE =        7677.5460
       CONSTANT HEAD =           0.0000         CONSTANT HEAD =           0.0000
               WELLS =    13986636.2487                 WELLS =       25523.0588
            RECHARGE =           0.0000              RECHARGE =           0.0000
      STREAM LEAKAGE =    49531670.5505        STREAM LEAKAGE =       59430.5809

           TOTAL OUT =    64217493.6798             TOTAL OUT =       92631.1857

            IN - OUT =          -2.0252              IN - OUT =       2.7105E-03

 PERCENT DISCREPANCY =          -0.00     PERCENT DISCREPANCY =           0.00






         TIME SUMMARY AT END OF TIME STEP    1 IN STRESS PERIOD    6
                    SECONDS     MINUTES      HOURS       DAYS        YEARS
                    -----------------------------------------------------------
   TIME STEP LENGTH 7.86240E+06 1.31040E+05  2184.0      91.000     0.24914    
 STRESS PERIOD TIME 7.86240E+06 1.31040E+05  2184.0      91.000     0.24914    
         TOTAL TIME 4.73472E+07 7.89120E+05  13152.      548.00      1.5003    
1
1
                            STRESS PERIOD NO.    7, LENGTH =   91.00000    
                            -----------------------------------------------

                              NUMBER OF TIME STEPS =     1

                               MULTIPLIER FOR DELT =     1.500

                            INITIAL TIME STEP SIZE =   91.00000    

 WELL NO.  LAYER   ROW   COL   STRESS RATE         
 --------------------------------------------------
      1      1     14      6       0.000    
      2      1      3      9       0.000    
      3      1     20     10       0.000    
      4      1     14     20       0.000    
      5      1      4     17      -6818.    
      6      1     12     28      -9652.    
      7      1      7      8      -7590.    
      8      1     12      7      -1463.    

      8 WELLS

                 RECHARGE =   0.00000    

 REUSING STREAM SEGMENT DATA FROM LAST STRESS PERIOD
 
 SOLVING FOR HEAD 


     7 CALLS TO PCG ROUTINE FOR TIME STEP   1 IN STRESS PERIOD    7
    26 TOTAL ITERATIONS

 OUTPUT CONTROL FOR STRESS PERIOD    7   TIME STEP    1
    SAVE BUDGET
    SAVE HEAD FOR ALL LAYERS
    PRINT HEAD FOR ALL LAYERS
 UBDSV2 SAVING "STREAMFLOW OUT  " ON UNIT  50 AT TIME STEP  1, STRESS PERIOD   7



 STREAM LISTING     PERIOD      7   STEP        1

 LAYER ROW COL. STREAM  RCH.  FLOW INTO     FLOW TO   FLOW OUT OF   OVRLND.     DIRECT     STREAM       STREAM     STREAM     STREAM   STREAMBED  STREAMBED
                SEG.NO.  NO.  STRM. RCH.    AQUIFER    STRM. RCH.    RUNOFF     PRECIP       ET          HEAD       DEPTH      WIDTH   CONDCTNC.   GRADIENT

   1   13    1     1     1    1.0000E+05 -1.0634E+03   1.0106E+05  0.000E+00  0.000E+00  0.000E+00  4.84065E+01  1.451E-01  2.000E+01  2.000E+04 -5.317E-02
   1   13    2     1     2    1.0106E+05 -1.9126E+03   1.0298E+05  0.000E+00  0.000E+00  0.000E+00  4.79305E+01  1.464E-01  2.000E+01  2.000E+04 -9.563E-02
   1   14    3     1     3    1.0298E+05 -2.8360E+02   1.0326E+05  0.000E+00  0.000E+00  0.000E+00  4.74542E+01  1.473E-01  2.000E+01  2.000E+04 -1.418E-02
   1   15    4     1     4    1.0326E+05 -2.6951E+02   1.0353E+05  0.000E+00  0.000E+00  0.000E+00  4.69771E+01  1.476E-01  2.000E+01  2.000E+04 -1.348E-02
   1   16    5     1     5    1.0353E+05 -1.4232E+03   1.0495E+05  0.000E+00  0.000E+00  0.000E+00  4.65006E+01  1.483E-01  2.000E+01  2.000E+04 -7.116E-02
   1   16    6     1     6    1.0495E+05 -8.4657E+02   1.0580E+05  0.000E+00  0.000E+00  0.000E+00  4.60243E+01  1.493E-01  2.000E+01  2.000E+04 -4.233E-02
   1   16    7     1     7    1.0580E+05 -8.1847E+02   1.0662E+05  0.000E+00  0.000E+00  0.000E+00  4.55477E+01  1.500E-01  2.000E+01  2.000E+04 -4.092E-02
   1   16    8     1     8    1.0662E+05 -8.3186E+02   1.0745E+05  0.000E+00  0.000E+00  0.000E+00  4.50711E+01  1.507E-01  2.000E+01  2.000E+04 -4.159E-02
   1   16    9     1     9    1.0745E+05 -8.5491E+02   1.0830E+05  0.000E+00  0.000E+00  0.000E+00  4.45946E+01  1.514E-01  2.000E+01  2.000E+04 -4.275E-02
   1   16   10     1    10    1.0830E+05 -8.7765E+02   1.0918E+05  0.000E+00  0.000E+00  0.000E+00  4.41180E+01  1.521E-01  2.000E+01  2.000E+04 -4.388E-02
   1   16   11     1    11    1.0918E+05 -9.1650E+02   1.1010E+05  0.000E+00  0.000E+00  0.000E+00  4.36415E+01  1.529E-01  2.000E+01  2.000E+04 -4.583E-02
   1   16   12     1    12    1.1010E+05 -1.5502E+03   1.1165E+05  0.000E+00  0.000E+00  0.000E+00  4.31653E+01  1.539E-01  2.000E+01  2.000E+04 -7.751E-02
   1   15   13     1    13    1.1165E+05 -1.2309E+03   1.1288E+05  0.000E+00  0.000E+00  0.000E+00  4.26891E+01  1.550E-01  2.000E+01  2.000E+04 -6.154E-02
   1   14   14     1    14    1.1288E+05 -1.3137E+03   1.1419E+05  0.000E+00  0.000E+00  0.000E+00  4.22129E+01  1.561E-01  2.000E+01  2.000E+04 -6.569E-02
   1   13   15     1    15    1.1419E+05 -1.4215E+03   1.1561E+05  0.000E+00  0.000E+00  0.000E+00  4.17368E+01  1.572E-01  2.000E+01  2.000E+04 -7.108E-02
   1   12   16     1    16    1.1561E+05 -1.6877E+03   1.1730E+05  0.000E+00  0.000E+00  0.000E+00  4.12608E+01  1.585E-01  2.000E+01  2.000E+04 -8.438E-02
   1   12   17     1    17    1.1730E+05 -1.2099E+03   1.1851E+05  0.000E+00  0.000E+00  0.000E+00  4.07847E+01  1.597E-01  2.000E+01  2.000E+04 -6.050E-02
   1   12   18     1    18    1.1851E+05 -1.2068E+03   1.1972E+05  0.000E+00  0.000E+00  0.000E+00  4.03084E+01  1.607E-01  2.000E+01  2.000E+04 -6.034E-02
   1   12   19     1    19    1.1972E+05 -1.6184E+03   1.2134E+05  0.000E+00  0.000E+00  0.000E+00  3.98323E+01  1.618E-01  2.000E+01  2.000E+04 -8.092E-02
   1   13   20     1    20    1.2134E+05 -1.4257E+03   1.2276E+05  0.000E+00  0.000E+00  0.000E+00  3.93562E+01  1.630E-01  2.000E+01  2.000E+04 -7.128E-02
   1   14   21     1    21    1.2276E+05 -1.4663E+03   1.2423E+05  0.000E+00  0.000E+00  0.000E+00  3.88801E+01  1.642E-01  2.000E+01  2.000E+04 -7.331E-02
   1   14   22     1    22    1.2423E+05  4.9746E+03   1.1925E+05  0.000E+00  0.000E+00  0.000E+00  3.84014E+01  1.628E-01  2.000E+01  2.000E+04  2.487E-01
   1    9   30     2     1    5.0000E+04  6.1494E+02   4.9385E+04  0.000E+00  0.000E+00  0.000E+00  4.02404E+01  1.154E-01  2.000E+01  2.000E+04  3.075E-02
   1    9   29     2     2    4.9385E+04  3.9763E+02   4.8987E+04  0.000E+00  0.000E+00  0.000E+00  3.99897E+01  1.147E-01  2.000E+01  2.000E+04  1.988E-02
   1    9   28     2     3    4.8987E+04  1.8033E+02   4.8807E+04  0.000E+00  0.000E+00  0.000E+00  3.97393E+01  1.143E-01  2.000E+01  2.000E+04  9.017E-03
   1    9   27     2     4    4.8807E+04 -1.2206E+03   5.0028E+04  0.000E+00  0.000E+00  0.000E+00  3.94901E+01  1.151E-01  2.000E+01  2.000E+04 -6.103E-02
   1   10   26     2     5    5.0028E+04  2.8467E+02   4.9743E+04  0.000E+00  0.000E+00  0.000E+00  3.92407E+01  1.157E-01  2.000E+01  2.000E+04  1.423E-02
   1   11   25     2     6    4.9743E+04  2.3114E+02   4.9512E+04  0.000E+00  0.000E+00  0.000E+00  3.89903E+01  1.153E-01  2.000E+01  2.000E+04  1.156E-02
   1   12   24     2     7    4.9512E+04 -5.7636E+02   5.0088E+04  0.000E+00  0.000E+00  0.000E+00  3.87406E+01  1.156E-01  2.000E+01  2.000E+04 -2.882E-02
   1   13   23     2     8    5.0088E+04 -1.2835E+02   5.0217E+04  0.000E+00  0.000E+00  0.000E+00  3.84911E+01  1.161E-01  2.000E+01  2.000E+04 -6.417E-03
   1   14   22     2     9    5.0217E+04  1.7454E+03   4.8471E+04  0.000E+00  0.000E+00  0.000E+00  3.82400E+01  1.150E-01  2.000E+01  2.000E+04  8.727E-02
   1   14   22     3     1    1.6773E+05 -8.6182E+03   1.7634E+05  0.000E+00  0.000E+00  0.000E+00  3.77218E+01  1.662E-01  2.000E+01  2.000E+04 -4.309E-01
   1   15   23     3     2    1.7634E+05 -4.8770E+02   1.7683E+05  0.000E+00  0.000E+00  0.000E+00  3.68355E+01  1.688E-01  2.000E+01  2.000E+04 -2.439E-02
   1   15   24     3     3    1.7683E+05 -2.1173E+02   1.7704E+05  0.000E+00  0.000E+00  0.000E+00  3.59468E+01  1.690E-01  2.000E+01  2.000E+04 -1.059E-02
   1   15   25     3     4    1.7704E+05 -1.7456E+02   1.7722E+05  0.000E+00  0.000E+00  0.000E+00  3.50580E+01  1.692E-01  2.000E+01  2.000E+04 -8.728E-03
   1   15   26     3     5    1.7722E+05 -7.0218E+01   1.7729E+05  0.000E+00  0.000E+00  0.000E+00  3.41692E+01  1.692E-01  2.000E+01  2.000E+04 -3.511E-03
   1   16   27     3     6    1.7729E+05 -4.2841E+01   1.7733E+05  0.000E+00  0.000E+00  0.000E+00  3.32804E+01  1.693E-01  2.000E+01  2.000E+04 -2.142E-03
   1   17   28     3     7    1.7733E+05 -2.7389E+02   1.7761E+05  0.000E+00  0.000E+00  0.000E+00  3.23916E+01  1.693E-01  2.000E+01  2.000E+04 -1.369E-02
   1   18   29     3     8    1.7761E+05 -2.4016E+03   1.8001E+05  0.000E+00  0.000E+00  0.000E+00  3.15034E+01  1.701E-01  2.000E+01  2.000E+04 -1.201E-01
   1   18   30     3     9    1.8001E+05 -2.6072E+03   1.8261E+05  0.000E+00  0.000E+00  0.000E+00  3.06160E+01  1.715E-01  2.000E+01  2.000E+04 -1.304E-01



1
              HEAD IN LAYER   1 AT END OF TIME STEP   1 IN STRESS PERIOD    7
  ---------------------------------------------------------------------------

          1      2      3      4      5      6      7      8      9     10
         11     12     13     14     15     16     17     18     19     20
         21     22     23     24     25     26     27     28     29     30
 .........................................................................
   1  ****** ****** ****** ****** ****** ****** ****** ****** ****** ******
      ****** ****** ****** ****** ****** ****** ****** ****** ****** ******
      ****** ****** ****** ****** ****** ****** ****** ****** ****** ******
   2  ****** ****** ****** ****** ****** ****** ****** ****** ****** ******
      ****** ****** ****** ****** ****** ****** ****** ****** ****** ******
      ****** ****** ****** ****** ****** ****** ****** ****** ****** ******
   3  ****** ****** ****** ****** ****** ****** ****** ****** ****** ******
      ****** ****** ****** ****** ****** ****** ****** ****** ****** ******
      ****** ****** ****** ****** ****** ****** ****** ****** ****** ******
   4  ****** ****** ****** ****** ****** ****** ****** ****** ****** ******
      ****** ****** ****** ****** ****** ****** ****** ****** ****** ******
      ****** ****** ****** ****** ****** ****** ****** ****** ****** ******
   5  ****** ****** ****** ****** ****** ****** ****** ****** ****** ******
      ****** ****** ****** ****** ****** ****** ****** ****** ****** ******
      ****** ****** ****** ****** ****** ****** ****** ****** ****** ******
   6  ****** ****** ****** ****** ****** ****** ****** ****** ****** ******
      ****** ****** ****** ****** ****** ****** ****** ****** ****** ******
      ****** ****** ****** ****** ****** ****** ****** ****** ****** ******
   7  ****** ****** ****** ****** ****** ****** ****** ****** ****** ******
      ****** ****** ****** ****** ****** ****** ****** ****** ****** ******
      ****** ****** ****** ****** ****** ****** ****** ****** ****** ******
   8  ****** ****** ****** ****** ****** ****** ****** ****** ****** ******
      ****** ****** ****** ****** ****** ****** ****** ****** ****** ******
      ****** ****** ****** ****** ****** ****** ****** ****** ****** ******
   9  ****** ****** ****** ****** ****** ****** ****** ****** ****** ******
      ****** ****** ****** ****** ****** ****** ****** ****** ****** ******
      ****** ****** ****** ****** ****** ****** ****** ****** ****** ******
  10  ****** ****** ****** ****** ****** ****** ****** ****** ****** ******
      ****** ****** ****** ****** ****** ****** ****** ****** ****** ******
      ****** ****** ****** ****** ****** ****** ****** ****** ****** ******
  11  ****** ****** ****** ****** ****** ****** ****** ****** ****** ******
      ****** ****** ****** ****** ****** ****** ****** ****** ****** ******
      ****** ****** ****** ****** ****** ****** ****** ****** ****** ******
  12  ****** ****** ****** ****** ****** ****** ****** ****** ****** ******
      ****** ****** ****** ****** ****** ****** ****** ****** ****** ******
      ****** ****** ****** ****** ****** ****** ****** ****** ****** ******
  13  ****** ****** ****** ****** ****** ****** ****** ****** ****** ******
      ****** ****** ****** ****** ****** ****** ****** ****** ****** ******
      ****** ****** ****** ****** ****** ****** ****** ****** ****** ******
  14  ****** ****** ****** ****** ****** ****** ****** ****** ****** ******
      ****** ****** ****** ****** ****** ****** ****** ****** ****** ******
      ****** ****** ****** ****** ****** ****** ****** ****** ****** ******
  15  ****** ****** ****** ****** ****** ****** ****** ****** ****** ******
      ****** ****** ****** ****** ****** ****** ****** ****** ****** ******
      ****** ****** ****** ****** ****** ****** ****** ****** ****** ******
  16  ****** ****** ****** ****** ****** ****** ****** ****** ****** ******
      ****** ****** ****** ****** ****** ****** ****** ****** ****** ******
      ****** ****** ****** ****** ****** ****** ****** ****** ****** ******
  17  ****** ****** ****** ****** ****** ****** ****** ****** ****** ******
      ****** ****** ****** ****** ****** ****** ****** ****** ****** ******
      ****** ****** ****** ****** ****** ****** ****** ****** ****** ******
  18  ****** ****** ****** ****** ****** ****** ****** ****** ****** ******
      ****** ****** ****** ****** ****** ****** ****** ****** ****** ******
      ****** ****** ****** ****** ****** ****** ****** ****** ****** ******
  19  ****** ****** ****** ****** ****** ****** ****** ****** ****** ******
      ****** ****** ****** ****** ****** ****** ****** ****** ****** ******
      ****** ****** ****** ****** ****** ****** ****** ****** ****** ******
  20  ****** ****** ****** ****** ****** ****** ****** ****** ****** ******
      ****** ****** ****** ****** ****** ****** ****** ****** ****** ******
      ****** ****** ****** ****** ****** ****** ****** ****** ****** ******
  21  ****** ****** ****** ****** ****** ****** ****** ****** ****** ******
      ****** ****** ****** ****** ****** ****** ****** ****** ****** ******
      ****** ****** ****** ****** ****** ****** ****** ****** ****** ******
  22  ****** ****** ****** ****** ****** ****** ****** ****** ****** ******
      ****** ****** ****** ****** ****** ****** ****** ****** ****** ******
      ****** ****** ****** ****** ****** ****** ****** ****** ****** ******
  23  ****** ****** ****** ****** ****** ****** ****** ****** ****** ******
      ****** ****** ****** ****** ****** ****** ****** ****** ****** ******
      ****** ****** ****** ****** ****** ****** ****** ****** ****** ******
  24  ****** ****** ****** ****** ****** ****** ****** ****** ****** ******
      ****** ****** ****** ****** ****** ****** ****** ****** ****** ******
      ****** ****** ****** ****** ****** ****** ****** ****** ****** ******
  25  ****** ****** ****** ****** ****** ****** ****** ****** ****** ******
      ****** ****** ****** ****** ****** ****** ****** ****** ****** ******
      ****** ****** ****** ****** ****** ****** ****** ****** ****** ******

 HEAD WILL BE SAVED ON UNIT   51 AT END OF TIME STEP    1, STRESS PERIOD    7
1
  VOLUMETRIC BUDGET FOR ENTIRE MODEL AT END OF TIME STEP    1, STRESS PERIOD   7
  ------------------------------------------------------------------------------

     CUMULATIVE VOLUMES      L**3       RATES FOR THIS TIME STEP      L**3/T
     ------------------                 ------------------------

           IN:                                      IN:
           ---                                      ---
             STORAGE =    34380354.2962               STORAGE =       23523.1839
       CONSTANT HEAD =    16751502.6270         CONSTANT HEAD =       34613.7400
               WELLS =           0.0000                 WELLS =           0.0000
            RECHARGE =    15097200.0000              RECHARGE =           0.0000
      STREAM LEAKAGE =     4045914.3745        STREAM LEAKAGE =        8428.7864

            TOTAL IN =    70274971.2978              TOTAL IN =       66565.7104

          OUT:                                     OUT:
          ----                                     ----
             STORAGE =      699186.8807               STORAGE =           0.0000
       CONSTANT HEAD =           0.0000         CONSTANT HEAD =           0.0000
               WELLS =    16309234.6038                 WELLS =       25523.0588
            RECHARGE =           0.0000              RECHARGE =           0.0000
      STREAM LEAKAGE =    53266552.3294        STREAM LEAKAGE =       41042.6569

           TOTAL OUT =    70274973.8139             TOTAL OUT =       66565.7158

            IN - OUT =          -2.5161              IN - OUT =      -5.3952E-03

 PERCENT DISCREPANCY =          -0.00     PERCENT DISCREPANCY =          -0.00






         TIME SUMMARY AT END OF TIME STEP    1 IN STRESS PERIOD    7
                    SECONDS     MINUTES      HOURS       DAYS        YEARS
                    -----------------------------------------------------------
   TIME STEP LENGTH 7.86240E+06 1.31040E+05  2184.0      91.000     0.24914    
 STRESS PERIOD TIME 7.86240E+06 1.31040E+05  2184.0      91.000     0.24914    
         TOTAL TIME 5.52096E+07 9.20160E+05  15336.      639.00      1.7495    
1
1
                            STRESS PERIOD NO.    8, LENGTH =   91.00000    
                            -----------------------------------------------

                              NUMBER OF TIME STEPS =     1

                               MULTIPLIER FOR DELT =     1.500

                            INITIAL TIME STEP SIZE =   91.00000    

 WELL NO.  LAYER   ROW   COL   STRESS RATE         
 --------------------------------------------------
      1      1     14      6       0.000    
      2      1      3      9       0.000    
      3      1     20     10       0.000    
      4      1     14     20       0.000    
      5      1      4     17      -6818.    
      6      1     12     28      -9652.    
      7      1      7      8      -7590.    
      8      1     12      7      -1463.    

      8 WELLS

                 RECHARGE =  1.000000E-03

 REUSING STREAM SEGMENT DATA FROM LAST STRESS PERIOD
 
 SOLVING FOR HEAD 


     6 CALLS TO PCG ROUTINE FOR TIME STEP   1 IN STRESS PERIOD    8
    22 TOTAL ITERATIONS

 OUTPUT CONTROL FOR STRESS PERIOD    8   TIME STEP    1
    SAVE BUDGET
    SAVE HEAD FOR ALL LAYERS
    PRINT HEAD FOR ALL LAYERS
 UBDSV2 SAVING "STREAMFLOW OUT  " ON UNIT  50 AT TIME STEP  1, STRESS PERIOD   8



 STREAM LISTING     PERIOD      8   STEP        1

 LAYER ROW COL. STREAM  RCH.  FLOW INTO     FLOW TO   FLOW OUT OF   OVRLND.     DIRECT     STREAM       STREAM     STREAM     STREAM   STREAMBED  STREAMBED
                SEG.NO.  NO.  STRM. RCH.    AQUIFER    STRM. RCH.    RUNOFF     PRECIP       ET          HEAD       DEPTH      WIDTH   CONDCTNC.   GRADIENT

   1   13    1     1     1    1.0000E+05 -1.1069E+03   1.0111E+05  0.000E+00  0.000E+00  0.000E+00  4.84065E+01  1.451E-01  2.000E+01  2.000E+04 -5.535E-02
   1   13    2     1     2    1.0111E+05 -1.9498E+03   1.0306E+05  0.000E+00  0.000E+00  0.000E+00  4.79305E+01  1.465E-01  2.000E+01  2.000E+04 -9.749E-02
   1   14    3     1     3    1.0306E+05 -3.4184E+02   1.0340E+05  0.000E+00  0.000E+00  0.000E+00  4.74543E+01  1.474E-01  2.000E+01  2.000E+04 -1.709E-02
   1   15    4     1     4    1.0340E+05 -3.3349E+02   1.0373E+05  0.000E+00  0.000E+00  0.000E+00  4.69773E+01  1.477E-01  2.000E+01  2.000E+04 -1.667E-02
   1   16    5     1     5    1.0373E+05 -1.5950E+03   1.0533E+05  0.000E+00  0.000E+00  0.000E+00  4.65008E+01  1.485E-01  2.000E+01  2.000E+04 -7.975E-02
   1   16    6     1     6    1.0533E+05 -9.4978E+02   1.0628E+05  0.000E+00  0.000E+00  0.000E+00  4.60246E+01  1.496E-01  2.000E+01  2.000E+04 -4.749E-02
   1   16    7     1     7    1.0628E+05 -9.1622E+02   1.0719E+05  0.000E+00  0.000E+00  0.000E+00  4.55481E+01  1.504E-01  2.000E+01  2.000E+04 -4.581E-02
   1   16    8     1     8    1.0719E+05 -9.2896E+02   1.0812E+05  0.000E+00  0.000E+00  0.000E+00  4.50717E+01  1.512E-01  2.000E+01  2.000E+04 -4.645E-02
   1   16    9     1     9    1.0812E+05 -9.5387E+02   1.0908E+05  0.000E+00  0.000E+00  0.000E+00  4.45952E+01  1.520E-01  2.000E+01  2.000E+04 -4.769E-02
   1   16   10     1    10    1.0908E+05 -9.8028E+02   1.1006E+05  0.000E+00  0.000E+00  0.000E+00  4.41187E+01  1.528E-01  2.000E+01  2.000E+04 -4.901E-02
   1   16   11     1    11    1.1006E+05 -1.0237E+03   1.1108E+05  0.000E+00  0.000E+00  0.000E+00  4.36423E+01  1.536E-01  2.000E+01  2.000E+04 -5.118E-02
   1   16   12     1    12    1.1108E+05 -1.7094E+03   1.1279E+05  0.000E+00  0.000E+00  0.000E+00  4.31661E+01  1.548E-01  2.000E+01  2.000E+04 -8.547E-02
   1   15   13     1    13    1.1279E+05 -1.3895E+03   1.1418E+05  0.000E+00  0.000E+00  0.000E+00  4.26901E+01  1.561E-01  2.000E+01  2.000E+04 -6.947E-02
   1   14   14     1    14    1.1418E+05 -1.4604E+03   1.1564E+05  0.000E+00  0.000E+00  0.000E+00  4.22140E+01  1.572E-01  2.000E+01  2.000E+04 -7.302E-02
   1   13   15     1    15    1.1564E+05 -1.5514E+03   1.1719E+05  0.000E+00  0.000E+00  0.000E+00  4.17380E+01  1.585E-01  2.000E+01  2.000E+04 -7.757E-02
   1   12   16     1    16    1.1719E+05 -1.7723E+03   1.1896E+05  0.000E+00  0.000E+00  0.000E+00  4.12621E+01  1.598E-01  2.000E+01  2.000E+04 -8.862E-02
   1   12   17     1    17    1.1896E+05 -1.3086E+03   1.2027E+05  0.000E+00  0.000E+00  0.000E+00  4.07861E+01  1.611E-01  2.000E+01  2.000E+04 -6.543E-02
   1   12   18     1    18    1.2027E+05 -1.3147E+03   1.2159E+05  0.000E+00  0.000E+00  0.000E+00  4.03098E+01  1.621E-01  2.000E+01  2.000E+04 -6.573E-02
   1   12   19     1    19    1.2159E+05 -1.7552E+03   1.2334E+05  0.000E+00  0.000E+00  0.000E+00  3.98338E+01  1.634E-01  2.000E+01  2.000E+04 -8.776E-02
   1   13   20     1    20    1.2334E+05 -1.6000E+03   1.2494E+05  0.000E+00  0.000E+00  0.000E+00  3.93579E+01  1.647E-01  2.000E+01  2.000E+04 -8.000E-02
   1   14   21     1    21    1.2494E+05 -1.6258E+03   1.2657E+05  0.000E+00  0.000E+00  0.000E+00  3.88819E+01  1.660E-01  2.000E+01  2.000E+04 -8.129E-02
   1   14   22     1    22    1.2657E+05  4.9252E+03   1.2164E+05  0.000E+00  0.000E+00  0.000E+00  3.84033E+01  1.647E-01  2.000E+01  2.000E+04  2.463E-01
   1    9   30     2     1    5.0000E+04  4.5412E+02   4.9546E+04  0.000E+00  0.000E+00  0.000E+00  4.02405E+01  1.155E-01  2.000E+01  2.000E+04  2.271E-02
   1    9   29     2     2    4.9546E+04  2.3983E+02   4.9306E+04  0.000E+00  0.000E+00  0.000E+00  3.99901E+01  1.151E-01  2.000E+01  2.000E+04  1.199E-02
   1    9   28     2     3    4.9306E+04  2.8692E+01   4.9277E+04  0.000E+00  0.000E+00  0.000E+00  3.97399E+01  1.149E-01  2.000E+01  2.000E+04  1.435E-03
   1    9   27     2     4    4.9277E+04 -1.3916E+03   5.0669E+04  0.000E+00  0.000E+00  0.000E+00  3.94908E+01  1.158E-01  2.000E+01  2.000E+04 -6.958E-02
   1   10   26     2     5    5.0669E+04  8.5717E+01   5.0583E+04  0.000E+00  0.000E+00  0.000E+00  3.92417E+01  1.167E-01  2.000E+01  2.000E+04  4.286E-03
   1   11   25     2     6    5.0583E+04  3.3526E+01   5.0550E+04  0.000E+00  0.000E+00  0.000E+00  3.89917E+01  1.167E-01  2.000E+01  2.000E+04  1.676E-03
   1   12   24     2     7    5.0550E+04 -7.5508E+02   5.1305E+04  0.000E+00  0.000E+00  0.000E+00  3.87422E+01  1.172E-01  2.000E+01  2.000E+04 -3.775E-02
   1   13   23     2     8    5.1305E+04 -2.0163E+02   5.1506E+04  0.000E+00  0.000E+00  0.000E+00  3.84928E+01  1.178E-01  2.000E+01  2.000E+04 -1.008E-02
   1   14   22     2     9    5.1506E+04  1.6948E+03   4.9812E+04  0.000E+00  0.000E+00  0.000E+00  3.82418E+01  1.168E-01  2.000E+01  2.000E+04  8.474E-02
   1   14   22     3     1    1.7145E+05 -8.6621E+03   1.8012E+05  0.000E+00  0.000E+00  0.000E+00  3.77239E+01  1.684E-01  2.000E+01  2.000E+04 -4.331E-01
   1   15   23     3     2    1.8012E+05 -5.5259E+02   1.8067E+05  0.000E+00  0.000E+00  0.000E+00  3.68377E+01  1.710E-01  2.000E+01  2.000E+04 -2.763E-02
   1   15   24     3     3    1.8067E+05 -2.7263E+02   1.8094E+05  0.000E+00  0.000E+00  0.000E+00  3.59490E+01  1.712E-01  2.000E+01  2.000E+04 -1.363E-02
   1   15   25     3     4    1.8094E+05 -2.3714E+02   1.8118E+05  0.000E+00  0.000E+00  0.000E+00  3.50603E+01  1.714E-01  2.000E+01  2.000E+04 -1.186E-02
   1   15   26     3     5    1.8118E+05 -1.4509E+02   1.8132E+05  0.000E+00  0.000E+00  0.000E+00  3.41715E+01  1.715E-01  2.000E+01  2.000E+04 -7.255E-03
   1   16   27     3     6    1.8132E+05 -1.2509E+02   1.8145E+05  0.000E+00  0.000E+00  0.000E+00  3.32827E+01  1.716E-01  2.000E+01  2.000E+04 -6.254E-03
   1   17   28     3     7    1.8145E+05 -4.7910E+02   1.8193E+05  0.000E+00  0.000E+00  0.000E+00  3.23940E+01  1.717E-01  2.000E+01  2.000E+04 -2.396E-02
   1   18   29     3     8    1.8193E+05 -2.5703E+03   1.8450E+05  0.000E+00  0.000E+00  0.000E+00  3.15059E+01  1.726E-01  2.000E+01  2.000E+04 -1.285E-01
   1   18   30     3     9    1.8450E+05 -2.7558E+03   1.8725E+05  0.000E+00  0.000E+00  0.000E+00  3.06186E+01  1.741E-01  2.000E+01  2.000E+04 -1.378E-01



1
              HEAD IN LAYER   1 AT END OF TIME STEP   1 IN STRESS PERIOD    8
  ---------------------------------------------------------------------------

          1      2      3      4      5      6      7      8      9     10
         11     12     13     14     15     16     17     18     19     20
         21     22     23     24     25     26     27     28     29     30
 .........................................................................
   1  ****** ****** ****** ****** ****** ****** ****** ****** ****** ******
      ****** ****** ****** ****** ****** ****** ****** ****** ****** ******
      ****** ****** ****** ****** ****** ****** ****** ****** ****** ******
   2  ****** ****** ****** ****** ****** ****** ****** ****** ****** ******
      ****** ****** ****** ****** ****** ****** ****** ****** ****** ******
      ****** ****** ****** ****** ****** ****** ****** ****** ****** ******
   3  ****** ****** ****** ****** ****** ****** ****** ****** ****** ******
      ****** ****** ****** ****** ****** ****** ****** ****** ****** ******
      ****** ****** ****** ****** ****** ****** ****** ****** ****** ******
   4  ****** ****** ****** ****** ****** ****** ****** ****** ****** ******
      ****** ****** ****** ****** ****** ****** ****** ****** ****** ******
      ****** ****** ****** ****** ****** ****** ****** ****** ****** ******
   5  ****** ****** ****** ****** ****** ****** ****** ****** ****** ******
      ****** ****** ****** ****** ****** ****** ****** ****** ****** ******
      ****** ****** ****** ****** ****** ****** ****** ****** ****** ******
   6  ****** ****** ****** ****** ****** ****** ****** ****** ****** ******
      ****** ****** ****** ****** ****** ****** ****** ****** ****** ******
      ****** ****** ****** ****** ****** ****** ****** ****** ****** ******
   7  ****** ****** ****** ****** ****** ****** ****** ****** ****** ******
      ****** ****** ****** ****** ****** ****** ****** ****** ****** ******
      ****** ****** ****** ****** ****** ****** ****** ****** ****** ******
   8  ****** ****** ****** ****** ****** ****** ****** ****** ****** ******
      ****** ****** ****** ****** ****** ****** ****** ****** ****** ******
      ****** ****** ****** ****** ****** ****** ****** ****** ****** ******
   9  ****** ****** ****** ****** ****** ****** ****** ****** ****** ******
      ****** ****** ****** ****** ****** ****** ****** ****** ****** ******
      ****** ****** ****** ****** ****** ****** ****** ****** ****** ******
  10  ****** ****** ****** ****** ****** ****** ****** ****** ****** ******
      ****** ****** ****** ****** ****** ****** ****** ****** ****** ******
      ****** ****** ****** ****** ****** ****** ****** ****** ****** ******
  11  ****** ****** ****** ****** ****** ****** ****** ****** ****** ******
      ****** ****** ****** ****** ****** ****** ****** ****** ****** ******
      ****** ****** ****** ****** ****** ****** ****** ****** ****** ******
  12  ****** ****** ****** ****** ****** ****** ****** ****** ****** ******
      ****** ****** ****** ****** ****** ****** ****** ****** ****** ******
      ****** ****** ****** ****** ****** ****** ****** ****** ****** ******
  13  ****** ****** ****** ****** ****** ****** ****** ****** ****** ******
      ****** ****** ****** ****** ****** ****** ****** ****** ****** ******
      ****** ****** ****** ****** ****** ****** ****** ****** ****** ******
  14  ****** ****** ****** ****** ****** ****** ****** ****** ****** ******
      ****** ****** ****** ****** ****** ****** ****** ****** ****** ******
      ****** ****** ****** ****** ****** ****** ****** ****** ****** ******
  15  ****** ****** ****** ****** ****** ****** ****** ****** ****** ******
      ****** ****** ****** ****** ****** ****** ****** ****** ****** ******
      ****** ****** ****** ****** ****** ****** ****** ****** ****** ******
  16  ****** ****** ****** ****** ****** ****** ****** ****** ****** ******
      ****** ****** ****** ****** ****** ****** ****** ****** ****** ******
      ****** ****** ****** ****** ****** ****** ****** ****** ****** ******
  17  ****** ****** ****** ****** ****** ****** ****** ****** ****** ******
      ****** ****** ****** ****** ****** ****** ****** ****** ****** ******
      ****** ****** ****** ****** ****** ****** ****** ****** ****** ******
  18  ****** ****** ****** ****** ****** ****** ****** ****** ****** ******
      ****** ****** ****** ****** ****** ****** ****** ****** ****** ******
      ****** ****** ****** ****** ****** ****** ****** ****** ****** ******
  19  ****** ****** ****** ****** ****** ****** ****** ****** ****** ******
      ****** ****** ****** ****** ****** ****** ****** ****** ****** ******
      ****** ****** ****** ****** ****** ****** ****** ****** ****** ******
  20  ****** ****** ****** ****** ****** ****** ****** ****** ****** ******
      ****** ****** ****** ****** ****** ****** ****** ****** ****** ******
      ****** ****** ****** ****** ****** ****** ****** ****** ****** ******
  21  ****** ****** ****** ****** ****** ****** ****** ****** ****** ******
      ****** ****** ****** ****** ****** ****** ****** ****** ****** ******
      ****** ****** ****** ****** ****** ****** ****** ****** ****** ******
  22  ****** ****** ****** ****** ****** ****** ****** ****** ****** ******
      ****** ****** ****** ****** ****** ****** ****** ****** ****** ******
      ****** ****** ****** ****** ****** ****** ****** ****** ****** ******
  23  ****** ****** ****** ****** ****** ****** ****** ****** ****** ******
      ****** ****** ****** ****** ****** ****** ****** ****** ****** ******
      ****** ****** ****** ****** ****** ****** ****** ****** ****** ******
  24  ****** ****** ****** ****** ****** ****** ****** ****** ****** ******
      ****** ****** ****** ****** ****** ****** ****** ****** ****** ******
      ****** ****** ****** ****** ****** ****** ****** ****** ****** ******
  25  ****** ****** ****** ****** ****** ****** ****** ****** ****** ******
      ****** ****** ****** ****** ****** ****** ****** ****** ****** ******
      ****** ****** ****** ****** ****** ****** ****** ****** ****** ******

 HEAD WILL BE SAVED ON UNIT   51 AT END OF TIME STEP    1, STRESS PERIOD    8
1
  VOLUMETRIC BUDGET FOR ENTIRE MODEL AT END OF TIME STEP    1, STRESS PERIOD   8
  ------------------------------------------------------------------------------

     CUMULATIVE VOLUMES      L**3       RATES FOR THIS TIME STEP      L**3/T
     ------------------                 ------------------------

           IN:                                      IN:
           ---                                      ---
             STORAGE =    34590579.7832               STORAGE =        2310.1702
       CONSTANT HEAD =    19882399.6949         CONSTANT HEAD =       34405.4623
               WELLS =           0.0000                 WELLS =           0.0000
            RECHARGE =    17608800.0000              RECHARGE =       27600.0000
      STREAM LEAKAGE =     4724945.3904        STREAM LEAKAGE =        7461.8793

            TOTAL IN =    76806724.8685              TOTAL IN =       71777.5118

          OUT:                                     OUT:
          ----                                     ----
             STORAGE =      839243.8371               STORAGE =        1539.0874
       CONSTANT HEAD =           0.0000         CONSTANT HEAD =           0.0000
               WELLS =    18631832.9590                 WELLS =       25523.0588
            RECHARGE =           0.0000              RECHARGE =           0.0000
      STREAM LEAKAGE =    57335649.9628        STREAM LEAKAGE =       44715.3586

           TOTAL OUT =    76806726.7588             TOTAL OUT =       71777.5049

            IN - OUT =          -1.8903              IN - OUT =       6.8772E-03

 PERCENT DISCREPANCY =          -0.00     PERCENT DISCREPANCY =           0.00






         TIME SUMMARY AT END OF TIME STEP    1 IN STRESS PERIOD    8
                    SECONDS     MINUTES      HOURS       DAYS        YEARS
                    -----------------------------------------------------------
   TIME STEP LENGTH 7.86240E+06 1.31040E+05  2184.0      91.000     0.24914    
 STRESS PERIOD TIME 7.86240E+06 1.31040E+05  2184.0      91.000     0.24914    
         TOTAL TIME 6.30720E+07 1.05120E+06  17520.      730.00      1.9986    
1
1
                            STRESS PERIOD NO.    9, LENGTH =   92.00000    
                            -----------------------------------------------

                              NUMBER OF TIME STEPS =     1

                               MULTIPLIER FOR DELT =     1.500

                            INITIAL TIME STEP SIZE =   92.00000    

 WELL NO.  LAYER   ROW   COL   STRESS RATE         
 --------------------------------------------------
      1      1     14      6       0.000    
      2      1      3      9       0.000    
      3      1     20     10       0.000    
      4      1     14     20       0.000    
      5      1      4     17      -6818.    
      6      1     12     28      -9652.    
      7      1      7      8      -7590.    
      8      1     12      7      -1463.    

      8 WELLS

                 RECHARGE =  5.000000E-04

 REUSING STREAM SEGMENT DATA FROM LAST STRESS PERIOD
 
 SOLVING FOR HEAD 


     6 CALLS TO PCG ROUTINE FOR TIME STEP   1 IN STRESS PERIOD    9
    23 TOTAL ITERATIONS

 OUTPUT CONTROL FOR STRESS PERIOD    9   TIME STEP    1
    SAVE BUDGET
    SAVE HEAD FOR ALL LAYERS
    PRINT HEAD FOR ALL LAYERS
 UBDSV2 SAVING "STREAMFLOW OUT  " ON UNIT  50 AT TIME STEP  1, STRESS PERIOD   9



 STREAM LISTING     PERIOD      9   STEP        1

 LAYER ROW COL. STREAM  RCH.  FLOW INTO     FLOW TO   FLOW OUT OF   OVRLND.     DIRECT     STREAM       STREAM     STREAM     STREAM   STREAMBED  STREAMBED
                SEG.NO.  NO.  STRM. RCH.    AQUIFER    STRM. RCH.    RUNOFF     PRECIP       ET          HEAD       DEPTH      WIDTH   CONDCTNC.   GRADIENT

   1   13    1     1     1    1.0000E+05 -8.7052E+02   1.0087E+05  0.000E+00  0.000E+00  0.000E+00  4.84064E+01  1.450E-01  2.000E+01  2.000E+04 -4.353E-02
   1   13    2     1     2    1.0087E+05 -1.6806E+03   1.0255E+05  0.000E+00  0.000E+00  0.000E+00  4.79302E+01  1.461E-01  2.000E+01  2.000E+04 -8.403E-02
   1   14    3     1     3    1.0255E+05 -2.6674E+02   1.0282E+05  0.000E+00  0.000E+00  0.000E+00  4.74538E+01  1.470E-01  2.000E+01  2.000E+04 -1.334E-02
   1   15    4     1     4    1.0282E+05 -2.5819E+02   1.0308E+05  0.000E+00  0.000E+00  0.000E+00  4.69767E+01  1.472E-01  2.000E+01  2.000E+04 -1.291E-02
   1   16    5     1     5    1.0308E+05 -1.4010E+03   1.0448E+05  0.000E+00  0.000E+00  0.000E+00  4.65002E+01  1.479E-01  2.000E+01  2.000E+04 -7.005E-02
   1   16    6     1     6    1.0448E+05 -8.2702E+02   1.0530E+05  0.000E+00  0.000E+00  0.000E+00  4.60239E+01  1.489E-01  2.000E+01  2.000E+04 -4.135E-02
   1   16    7     1     7    1.0530E+05 -7.9685E+02   1.0610E+05  0.000E+00  0.000E+00  0.000E+00  4.55473E+01  1.495E-01  2.000E+01  2.000E+04 -3.984E-02
   1   16    8     1     8    1.0610E+05 -8.1124E+02   1.0691E+05  0.000E+00  0.000E+00  0.000E+00  4.50707E+01  1.502E-01  2.000E+01  2.000E+04 -4.056E-02
   1   16    9     1     9    1.0691E+05 -8.3826E+02   1.0775E+05  0.000E+00  0.000E+00  0.000E+00  4.45941E+01  1.509E-01  2.000E+01  2.000E+04 -4.191E-02
   1   16   10     1    10    1.0775E+05 -8.6751E+02   1.0862E+05  0.000E+00  0.000E+00  0.000E+00  4.41176E+01  1.516E-01  2.000E+01  2.000E+04 -4.338E-02
   1   16   11     1    11    1.0862E+05 -9.1295E+02   1.0953E+05  0.000E+00  0.000E+00  0.000E+00  4.36410E+01  1.524E-01  2.000E+01  2.000E+04 -4.565E-02
   1   16   12     1    12    1.0953E+05 -1.5192E+03   1.1105E+05  0.000E+00  0.000E+00  0.000E+00  4.31648E+01  1.534E-01  2.000E+01  2.000E+04 -7.596E-02
   1   15   13     1    13    1.1105E+05 -1.1728E+03   1.1222E+05  0.000E+00  0.000E+00  0.000E+00  4.26886E+01  1.545E-01  2.000E+01  2.000E+04 -5.864E-02
   1   14   14     1    14    1.1222E+05 -1.2269E+03   1.1345E+05  0.000E+00  0.000E+00  0.000E+00  4.22123E+01  1.555E-01  2.000E+01  2.000E+04 -6.135E-02
   1   13   15     1    15    1.1345E+05 -1.3093E+03   1.1476E+05  0.000E+00  0.000E+00  0.000E+00  4.17361E+01  1.566E-01  2.000E+01  2.000E+04 -6.547E-02
   1   12   16     1    16    1.1476E+05 -1.5173E+03   1.1628E+05  0.000E+00  0.000E+00  0.000E+00  4.12600E+01  1.577E-01  2.000E+01  2.000E+04 -7.587E-02
   1   12   17     1    17    1.1628E+05 -1.1373E+03   1.1741E+05  0.000E+00  0.000E+00  0.000E+00  4.07838E+01  1.588E-01  2.000E+01  2.000E+04 -5.687E-02
   1   12   18     1    18    1.1741E+05 -1.1526E+03   1.1857E+05  0.000E+00  0.000E+00  0.000E+00  4.03075E+01  1.597E-01  2.000E+01  2.000E+04 -5.763E-02
   1   12   19     1    19    1.1857E+05 -1.5603E+03   1.2013E+05  0.000E+00  0.000E+00  0.000E+00  3.98313E+01  1.608E-01  2.000E+01  2.000E+04 -7.802E-02
   1   13   20     1    20    1.2013E+05 -1.4240E+03   1.2155E+05  0.000E+00  0.000E+00  0.000E+00  3.93552E+01  1.620E-01  2.000E+01  2.000E+04 -7.120E-02
   1   14   21     1    21    1.2155E+05 -1.4548E+03   1.2301E+05  0.000E+00  0.000E+00  0.000E+00  3.88791E+01  1.632E-01  2.000E+01  2.000E+04 -7.274E-02
   1   14   22     1    22    1.2301E+05  4.9635E+03   1.1804E+05  0.000E+00  0.000E+00  0.000E+00  3.84004E+01  1.618E-01  2.000E+01  2.000E+04  2.482E-01
   1    9   30     2     1    5.0000E+04  5.7898E+02   4.9421E+04  0.000E+00  0.000E+00  0.000E+00  4.02405E+01  1.155E-01  2.000E+01  2.000E+04  2.895E-02
   1    9   29     2     2    4.9421E+04  3.6506E+02   4.9056E+04  0.000E+00  0.000E+00  0.000E+00  3.99898E+01  1.148E-01  2.000E+01  2.000E+04  1.825E-02
   1    9   28     2     3    4.9056E+04  1.5621E+02   4.8900E+04  0.000E+00  0.000E+00  0.000E+00  3.97394E+01  1.144E-01  2.000E+01  2.000E+04  7.810E-03
   1    9   27     2     4    4.8900E+04 -1.2105E+03   5.0110E+04  0.000E+00  0.000E+00  0.000E+00  3.94902E+01  1.152E-01  2.000E+01  2.000E+04 -6.052E-02
   1   10   26     2     5    5.0110E+04  2.6339E+02   4.9847E+04  0.000E+00  0.000E+00  0.000E+00  3.92408E+01  1.158E-01  2.000E+01  2.000E+04  1.317E-02
   1   11   25     2     6    4.9847E+04  2.0359E+02   4.9643E+04  0.000E+00  0.000E+00  0.000E+00  3.89905E+01  1.155E-01  2.000E+01  2.000E+04  1.018E-02
   1   12   24     2     7    4.9643E+04 -5.9836E+02   5.0242E+04  0.000E+00  0.000E+00  0.000E+00  3.87408E+01  1.158E-01  2.000E+01  2.000E+04 -2.992E-02
   1   13   23     2     8    5.0242E+04 -1.5391E+02   5.0396E+04  0.000E+00  0.000E+00  0.000E+00  3.84913E+01  1.163E-01  2.000E+01  2.000E+04 -7.695E-03
   1   14   22     2     9    5.0396E+04  1.7587E+03   4.8637E+04  0.000E+00  0.000E+00  0.000E+00  3.82402E+01  1.152E-01  2.000E+01  2.000E+04  8.794E-02
   1   14   22     3     1    1.6668E+05 -8.6218E+03   1.7530E+05  0.000E+00  0.000E+00  0.000E+00  3.77212E+01  1.656E-01  2.000E+01  2.000E+04 -4.311E-01
   1   15   23     3     2    1.7530E+05 -5.0047E+02   1.7580E+05  0.000E+00  0.000E+00  0.000E+00  3.68349E+01  1.682E-01  2.000E+01  2.000E+04 -2.502E-02
   1   15   24     3     3    1.7580E+05 -2.2989E+02   1.7603E+05  0.000E+00  0.000E+00  0.000E+00  3.59462E+01  1.685E-01  2.000E+01  2.000E+04 -1.149E-02
   1   15   25     3     4    1.7603E+05 -1.9411E+02   1.7623E+05  0.000E+00  0.000E+00  0.000E+00  3.50575E+01  1.686E-01  2.000E+01  2.000E+04 -9.706E-03
   1   15   26     3     5    1.7623E+05 -9.7656E+01   1.7632E+05  0.000E+00  0.000E+00  0.000E+00  3.41687E+01  1.687E-01  2.000E+01  2.000E+04 -4.883E-03
   1   16   27     3     6    1.7632E+05 -6.9378E+01   1.7639E+05  0.000E+00  0.000E+00  0.000E+00  3.32798E+01  1.687E-01  2.000E+01  2.000E+04 -3.469E-03
   1   17   28     3     7    1.7639E+05 -3.2659E+02   1.7672E+05  0.000E+00  0.000E+00  0.000E+00  3.23910E+01  1.688E-01  2.000E+01  2.000E+04 -1.633E-02
   1   18   29     3     8    1.7672E+05 -2.3965E+03   1.7912E+05  0.000E+00  0.000E+00  0.000E+00  3.15029E+01  1.696E-01  2.000E+01  2.000E+04 -1.198E-01
   1   18   30     3     9    1.7912E+05 -2.6249E+03   1.8174E+05  0.000E+00  0.000E+00  0.000E+00  3.06155E+01  1.710E-01  2.000E+01  2.000E+04 -1.312E-01



1
              HEAD IN LAYER   1 AT END OF TIME STEP   1 IN STRESS PERIOD    9
  ---------------------------------------------------------------------------

          1      2      3      4      5      6      7      8      9     10
         11     12     13     14     15     16     17     18     19     20
         21     22     23     24     25     26     27     28     29     30
 .........................................................................
   1  ****** ****** ****** ****** ****** ****** ****** ****** ****** ******
      ****** ****** ****** ****** ****** ****** ****** ****** ****** ******
      ****** ****** ****** ****** ****** ****** ****** ****** ****** ******
   2  ****** ****** ****** ****** ****** ****** ****** ****** ****** ******
      ****** ****** ****** ****** ****** ****** ****** ****** ****** ******
      ****** ****** ****** ****** ****** ****** ****** ****** ****** ******
   3  ****** ****** ****** ****** ****** ****** ****** ****** ****** ******
      ****** ****** ****** ****** ****** ****** ****** ****** ****** ******
      ****** ****** ****** ****** ****** ****** ****** ****** ****** ******
   4  ****** ****** ****** ****** ****** ****** ****** ****** ****** ******
      ****** ****** ****** ****** ****** ****** ****** ****** ****** ******
      ****** ****** ****** ****** ****** ****** ****** ****** ****** ******
   5  ****** ****** ****** ****** ****** ****** ****** ****** ****** ******
      ****** ****** ****** ****** ****** ****** ****** ****** ****** ******
      ****** ****** ****** ****** ****** ****** ****** ****** ****** ******
   6  ****** ****** ****** ****** ****** ****** ****** ****** ****** ******
      ****** ****** ****** ****** ****** ****** ****** ****** ****** ******
      ****** ****** ****** ****** ****** ****** ****** ****** ****** ******
   7  ****** ****** ****** ****** ****** ****** ****** ****** ****** ******
      ****** ****** ****** ****** ****** ****** ****** ****** ****** ******
      ****** ****** ****** ****** ****** ****** ****** ****** ****** ******
   8  ****** ****** ****** ****** ****** ****** ****** ****** ****** ******
      ****** ****** ****** ****** ****** ****** ****** ****** ****** ******
      ****** ****** ****** ****** ****** ****** ****** ****** ****** ******
   9  ****** ****** ****** ****** ****** ****** ****** ****** ****** ******
      ****** ****** ****** ****** ****** ****** ****** ****** ****** ******
      ****** ****** ****** ****** ****** ****** ****** ****** ****** ******
  10  ****** ****** ****** ****** ****** ****** ****** ****** ****** ******
      ****** ****** ****** ****** ****** ****** ****** ****** ****** ******
      ****** ****** ****** ****** ****** ****** ****** ****** ****** ******
  11  ****** ****** ****** ****** ****** ****** ****** ****** ****** ******
      ****** ****** ****** ****** ****** ****** ****** ****** ****** ******
      ****** ****** ****** ****** ****** ****** ****** ****** ****** ******
  12  ****** ****** ****** ****** ****** ****** ****** ****** ****** ******
      ****** ****** ****** ****** ****** ****** ****** ****** ****** ******
      ****** ****** ****** ****** ****** ****** ****** ****** ****** ******
  13  ****** ****** ****** ****** ****** ****** ****** ****** ****** ******
      ****** ****** ****** ****** ****** ****** ****** ****** ****** ******
      ****** ****** ****** ****** ****** ****** ****** ****** ****** ******
  14  ****** ****** ****** ****** ****** ****** ****** ****** ****** ******
      ****** ****** ****** ****** ****** ****** ****** ****** ****** ******
      ****** ****** ****** ****** ****** ****** ****** ****** ****** ******
  15  ****** ****** ****** ****** ****** ****** ****** ****** ****** ******
      ****** ****** ****** ****** ****** ****** ****** ****** ****** ******
      ****** ****** ****** ****** ****** ****** ****** ****** ****** ******
  16  ****** ****** ****** ****** ****** ****** ****** ****** ****** ******
      ****** ****** ****** ****** ****** ****** ****** ****** ****** ******
      ****** ****** ****** ****** ****** ****** ****** ****** ****** ******
  17  ****** ****** ****** ****** ****** ****** ****** ****** ****** ******
      ****** ****** ****** ****** ****** ****** ****** ****** ****** ******
      ****** ****** ****** ****** ****** ****** ****** ****** ****** ******
  18  ****** ****** ****** ****** ****** ****** ****** ****** ****** ******
      ****** ****** ****** ****** ****** ****** ****** ****** ****** ******
      ****** ****** ****** ****** ****** ****** ****** ****** ****** ******
  19  ****** ****** ****** ****** ****** ****** ****** ****** ****** ******
      ****** ****** ****** ****** ****** ****** ****** ****** ****** ******
      ****** ****** ****** ****** ****** ****** ****** ****** ****** ******
  20  ****** ****** ****** ****** ****** ****** ****** ****** ****** ******
      ****** ****** ****** ****** ****** ****** ****** ****** ****** ******
      ****** ****** ****** ****** ****** ****** ****** ****** ****** ******
  21  ****** ****** ****** ****** ****** ****** ****** ****** ****** ******
      ****** ****** ****** ****** ****** ****** ****** ****** ****** ******
      ****** ****** ****** ****** ****** ****** ****** ****** ****** ******
  22  ****** ****** ****** ****** ****** ****** ****** ****** ****** ******
      ****** ****** ****** ****** ****** ****** ****** ****** ****** ******
      ****** ****** ****** ****** ****** ****** ****** ****** ****** ******
  23  ****** ****** ****** ****** ****** ****** ****** ****** ****** ******
      ****** ****** ****** ****** ****** ****** ****** ****** ****** ******
      ****** ****** ****** ****** ****** ****** ****** ****** ****** ******
  24  ****** ****** ****** ****** ****** ****** ****** ****** ****** ******
      ****** ****** ****** ****** ****** ****** ****** ****** ****** ******
      ****** ****** ****** ****** ****** ****** ****** ****** ****** ******
  25  ****** ****** ****** ****** ****** ****** ****** ****** ****** ******
      ****** ****** ****** ****** ****** ****** ****** ****** ****** ******
      ****** ****** ****** ****** ****** ****** ****** ****** ****** ******

 HEAD WILL BE SAVED ON UNIT   51 AT END OF TIME STEP    1, STRESS PERIOD    9
1
  VOLUMETRIC BUDGET FOR ENTIRE MODEL AT END OF TIME STEP    1, STRESS PERIOD   9
  ------------------------------------------------------------------------------

     CUMULATIVE VOLUMES      L**3       RATES FOR THIS TIME STEP      L**3/T
     ------------------                 ------------------------

           IN:                                      IN:
           ---                                      ---
             STORAGE =    35310638.1835               STORAGE =        7826.7217
       CONSTANT HEAD =    23160962.8269         CONSTANT HEAD =       35636.5558
               WELLS =           0.0000                 WELLS =           0.0000
            RECHARGE =    18878400.0000              RECHARGE =       13800.0000
      STREAM LEAKAGE =     5487579.0209        STREAM LEAKAGE =        8289.4960

            TOTAL IN =    82837580.0313              TOTAL IN =       65552.7735

          OUT:                                     OUT:
          ----                                     ----
             STORAGE =      839243.8371               STORAGE =           0.0000
       CONSTANT HEAD =           0.0000         CONSTANT HEAD =           0.0000
               WELLS =    20979954.3730                 WELLS =       25523.0588
            RECHARGE =           0.0000              RECHARGE =           0.0000
      STREAM LEAKAGE =    61018383.7863        STREAM LEAKAGE =       40029.7155

           TOTAL OUT =    82837581.9964             TOTAL OUT =       65552.7743

            IN - OUT =          -1.9651              IN - OUT =      -8.1305E-04

 PERCENT DISCREPANCY =          -0.00     PERCENT DISCREPANCY =          -0.00






         TIME SUMMARY AT END OF TIME STEP    1 IN STRESS PERIOD    9
                    SECONDS     MINUTES      HOURS       DAYS        YEARS
                    -----------------------------------------------------------
   TIME STEP LENGTH 7.94880E+06 1.32480E+05  2208.0      92.000     0.25188    
 STRESS PERIOD TIME 7.94880E+06 1.32480E+05  2208.0      92.000     0.25188    
         TOTAL TIME 7.10208E+07 1.18368E+06  19728.      822.00      2.2505    
1
1
                            STRESS PERIOD NO.   10, LENGTH =   91.00000    
                            -----------------------------------------------

                              NUMBER OF TIME STEPS =     1

                               MULTIPLIER FOR DELT =     1.500

                            INITIAL TIME STEP SIZE =   91.00000    

 WELL NO.  LAYER   ROW   COL   STRESS RATE         
 --------------------------------------------------
      1      1     14      6       0.000    
      2      1      3      9       0.000    
      3      1     20     10       0.000    
      4      1     14     20       0.000    
      5      1      4     17      -6818.    
      6      1     12     28      -9652.    
      7      1      7      8      -7590.    
      8      1     12      7      -1463.    

      8 WELLS

                 RECHARGE =  2.000000E-03

 REUSING STREAM SEGMENT DATA FROM LAST STRESS PERIOD
 
 SOLVING FOR HEAD 


     7 CALLS TO PCG ROUTINE FOR TIME STEP   1 IN STRESS PERIOD   10
    26 TOTAL ITERATIONS

 OUTPUT CONTROL FOR STRESS PERIOD   10   TIME STEP    1
    SAVE BUDGET
    SAVE HEAD FOR ALL LAYERS
    PRINT HEAD FOR ALL LAYERS
 UBDSV2 SAVING "STREAMFLOW OUT  " ON UNIT  50 AT TIME STEP  1, STRESS PERIOD  10



 STREAM LISTING     PERIOD     10   STEP        1

 LAYER ROW COL. STREAM  RCH.  FLOW INTO     FLOW TO   FLOW OUT OF   OVRLND.     DIRECT     STREAM       STREAM     STREAM     STREAM   STREAMBED  STREAMBED
                SEG.NO.  NO.  STRM. RCH.    AQUIFER    STRM. RCH.    RUNOFF     PRECIP       ET          HEAD       DEPTH      WIDTH   CONDCTNC.   GRADIENT

   1   13    1     1     1    1.0000E+05 -1.3072E+03   1.0131E+05  0.000E+00  0.000E+00  0.000E+00  4.84066E+01  1.452E-01  2.000E+01  2.000E+04 -6.536E-02
   1   13    2     1     2    1.0131E+05 -2.1631E+03   1.0347E+05  0.000E+00  0.000E+00  0.000E+00  4.79308E+01  1.467E-01  2.000E+01  2.000E+04 -1.082E-01
   1   14    3     1     3    1.0347E+05 -4.5017E+02   1.0392E+05  0.000E+00  0.000E+00  0.000E+00  4.74547E+01  1.478E-01  2.000E+01  2.000E+04 -2.251E-02
   1   15    4     1     4    1.0392E+05 -4.5511E+02   1.0438E+05  0.000E+00  0.000E+00  0.000E+00  4.69778E+01  1.482E-01  2.000E+01  2.000E+04 -2.276E-02
   1   16    5     1     5    1.0438E+05 -2.0187E+03   1.0639E+05  0.000E+00  0.000E+00  0.000E+00  4.65015E+01  1.493E-01  2.000E+01  2.000E+04 -1.009E-01
   1   16    6     1     6    1.0639E+05 -1.1872E+03   1.0758E+05  0.000E+00  0.000E+00  0.000E+00  4.60256E+01  1.506E-01  2.000E+01  2.000E+04 -5.936E-02
   1   16    7     1     7    1.0758E+05 -1.1390E+03   1.0872E+05  0.000E+00  0.000E+00  0.000E+00  4.55493E+01  1.516E-01  2.000E+01  2.000E+04 -5.695E-02
   1   16    8     1     8    1.0872E+05 -1.1480E+03   1.0987E+05  0.000E+00  0.000E+00  0.000E+00  4.50730E+01  1.526E-01  2.000E+01  2.000E+04 -5.740E-02
   1   16    9     1     9    1.0987E+05 -1.1738E+03   1.1104E+05  0.000E+00  0.000E+00  0.000E+00  4.45967E+01  1.535E-01  2.000E+01  2.000E+04 -5.869E-02
   1   16   10     1    10    1.1104E+05 -1.2038E+03   1.1225E+05  0.000E+00  0.000E+00  0.000E+00  4.41204E+01  1.545E-01  2.000E+01  2.000E+04 -6.019E-02
   1   16   11     1    11    1.1225E+05 -1.2535E+03   1.1350E+05  0.000E+00  0.000E+00  0.000E+00  4.36442E+01  1.556E-01  2.000E+01  2.000E+04 -6.267E-02
   1   16   12     1    12    1.1350E+05 -2.0871E+03   1.1559E+05  0.000E+00  0.000E+00  0.000E+00  4.31683E+01  1.569E-01  2.000E+01  2.000E+04 -1.044E-01
   1   15   13     1    13    1.1559E+05 -1.7541E+03   1.1734E+05  0.000E+00  0.000E+00  0.000E+00  4.26926E+01  1.585E-01  2.000E+01  2.000E+04 -8.770E-02
   1   14   14     1    14    1.1734E+05 -1.8130E+03   1.1915E+05  0.000E+00  0.000E+00  0.000E+00  4.22168E+01  1.600E-01  2.000E+01  2.000E+04 -9.065E-02
   1   13   15     1    15    1.1915E+05 -1.8836E+03   1.2104E+05  0.000E+00  0.000E+00  0.000E+00  4.17410E+01  1.615E-01  2.000E+01  2.000E+04 -9.418E-02
   1   12   16     1    16    1.2104E+05 -2.0668E+03   1.2310E+05  0.000E+00  0.000E+00  0.000E+00  4.12653E+01  1.630E-01  2.000E+01  2.000E+04 -1.033E-01
   1   12   17     1    17    1.2310E+05 -1.5570E+03   1.2466E+05  0.000E+00  0.000E+00  0.000E+00  4.07895E+01  1.645E-01  2.000E+01  2.000E+04 -7.785E-02
   1   12   18     1    18    1.2466E+05 -1.5692E+03   1.2623E+05  0.000E+00  0.000E+00  0.000E+00  4.03135E+01  1.657E-01  2.000E+01  2.000E+04 -7.846E-02
   1   12   19     1    19    1.2623E+05 -2.0734E+03   1.2830E+05  0.000E+00  0.000E+00  0.000E+00  3.98376E+01  1.672E-01  2.000E+01  2.000E+04 -1.037E-01
   1   13   20     1    20    1.2830E+05 -1.9434E+03   1.3025E+05  0.000E+00  0.000E+00  0.000E+00  3.93619E+01  1.687E-01  2.000E+01  2.000E+04 -9.717E-02
   1   14   21     1    21    1.3025E+05 -1.9801E+03   1.3223E+05  0.000E+00  0.000E+00  0.000E+00  3.88862E+01  1.703E-01  2.000E+01  2.000E+04 -9.900E-02
   1   14   22     1    22    1.3223E+05  4.8341E+03   1.2739E+05  0.000E+00  0.000E+00  0.000E+00  3.84078E+01  1.692E-01  2.000E+01  2.000E+04  2.417E-01
   1    9   30     2     1    5.0000E+04  1.6579E+02   4.9834E+04  0.000E+00  0.000E+00  0.000E+00  4.02408E+01  1.158E-01  2.000E+01  2.000E+04  8.290E-03
   1    9   29     2     2    4.9834E+04 -4.5733E+01   4.9880E+04  0.000E+00  0.000E+00  0.000E+00  3.99907E+01  1.157E-01  2.000E+01  2.000E+04 -2.287E-03
   1    9   28     2     3    4.9880E+04 -2.5349E+02   5.0133E+04  0.000E+00  0.000E+00  0.000E+00  3.97409E+01  1.159E-01  2.000E+01  2.000E+04 -1.267E-02
   1    9   27     2     4    5.0133E+04 -1.7603E+03   5.1894E+04  0.000E+00  0.000E+00  0.000E+00  3.94923E+01  1.173E-01  2.000E+01  2.000E+04 -8.801E-02
   1   10   26     2     5    5.1894E+04 -2.8677E+02   5.2180E+04  0.000E+00  0.000E+00  0.000E+00  3.92437E+01  1.187E-01  2.000E+01  2.000E+04 -1.434E-02
   1   11   25     2     6    5.2180E+04 -3.2210E+02   5.2503E+04  0.000E+00  0.000E+00  0.000E+00  3.89941E+01  1.191E-01  2.000E+01  2.000E+04 -1.611E-02
   1   12   24     2     7    5.2503E+04 -1.0738E+03   5.3576E+04  0.000E+00  0.000E+00  0.000E+00  3.87450E+01  1.200E-01  2.000E+01  2.000E+04 -5.369E-02
   1   13   23     2     8    5.3576E+04 -3.0214E+02   5.3879E+04  0.000E+00  0.000E+00  0.000E+00  3.84960E+01  1.210E-01  2.000E+01  2.000E+04 -1.511E-02
   1   14   22     2     9    5.3879E+04  1.5802E+03   5.2298E+04  0.000E+00  0.000E+00  0.000E+00  3.82451E+01  1.201E-01  2.000E+01  2.000E+04  7.901E-02
   1   14   22     3     1    1.7969E+05 -8.7489E+03   1.8844E+05  0.000E+00  0.000E+00  0.000E+00  3.77287E+01  1.731E-01  2.000E+01  2.000E+04 -4.374E-01
   1   15   23     3     2    1.8844E+05 -6.6326E+02   1.8910E+05  0.000E+00  0.000E+00  0.000E+00  3.68424E+01  1.757E-01  2.000E+01  2.000E+04 -3.316E-02
   1   15   24     3     3    1.8910E+05 -3.6722E+02   1.8947E+05  0.000E+00  0.000E+00  0.000E+00  3.59538E+01  1.760E-01  2.000E+01  2.000E+04 -1.836E-02
   1   15   25     3     4    1.8947E+05 -3.3483E+02   1.8981E+05  0.000E+00  0.000E+00  0.000E+00  3.50651E+01  1.762E-01  2.000E+01  2.000E+04 -1.674E-02
   1   15   26     3     5    1.8981E+05 -2.5999E+02   1.9007E+05  0.000E+00  0.000E+00  0.000E+00  3.41764E+01  1.764E-01  2.000E+01  2.000E+04 -1.300E-02
   1   16   27     3     6    1.9007E+05 -2.5541E+02   1.9032E+05  0.000E+00  0.000E+00  0.000E+00  3.32876E+01  1.765E-01  2.000E+01  2.000E+04 -1.277E-02
   1   17   28     3     7    1.9032E+05 -8.4782E+02   1.9117E+05  0.000E+00  0.000E+00  0.000E+00  3.23991E+01  1.768E-01  2.000E+01  2.000E+04 -4.239E-02
   1   18   29     3     8    1.9117E+05 -2.9491E+03   1.9412E+05  0.000E+00  0.000E+00  0.000E+00  3.15112E+01  1.779E-01  2.000E+01  2.000E+04 -1.475E-01
   1   18   30     3     9    1.9412E+05 -3.0510E+03   1.9717E+05  0.000E+00  0.000E+00  0.000E+00  3.06240E+01  1.795E-01  2.000E+01  2.000E+04 -1.526E-01



1
              HEAD IN LAYER   1 AT END OF TIME STEP   1 IN STRESS PERIOD   10
  ---------------------------------------------------------------------------

          1      2      3      4      5      6      7      8      9     10
         11     12     13     14     15     16     17     18     19     20
         21     22     23     24     25     26     27     28     29     30
 .........................................................................
   1  ****** ****** ****** ****** ****** ****** ****** ****** ****** ******
      ****** ****** ****** ****** ****** ****** ****** ****** ****** ******
      ****** ****** ****** ****** ****** ****** ****** ****** ****** ******
   2  ****** ****** ****** ****** ****** ****** ****** ****** ****** ******
      ****** ****** ****** ****** ****** ****** ****** ****** ****** ******
      ****** ****** ****** ****** ****** ****** ****** ****** ****** ******
   3  ****** ****** ****** ****** ****** ****** ****** ****** ****** ******
      ****** ****** ****** ****** ****** ****** ****** ****** ****** ******
      ****** ****** ****** ****** ****** ****** ****** ****** ****** ******
   4  ****** ****** ****** ****** ****** ****** ****** ****** ****** ******
      ****** ****** ****** ****** ****** ****** ****** ****** ****** ******
      ****** ****** ****** ****** ****** ****** ****** ****** ****** ******
   5  ****** ****** ****** ****** ****** ****** ****** ****** ****** ******
      ****** ****** ****** ****** ****** ****** ****** ****** ****** ******
      ****** ****** ****** ****** ****** ****** ****** ****** ****** ******
   6  ****** ****** ****** ****** ****** ****** ****** ****** ****** ******
      ****** ****** ****** ****** ****** ****** ****** ****** ****** ******
      ****** ****** ****** ****** ****** ****** ****** ****** ****** ******
   7  ****** ****** ****** ****** ****** ****** ****** ****** ****** ******
      ****** ****** ****** ****** ****** ****** ****** ****** ****** ******
      ****** ****** ****** ****** ****** ****** ****** ****** ****** ******
   8  ****** ****** ****** ****** ****** ****** ****** ****** ****** ******
      ****** ****** ****** ****** ****** ****** ****** ****** ****** ******
      ****** ****** ****** ****** ****** ****** ****** ****** ****** ******
   9  ****** ****** ****** ****** ****** ****** ****** ****** ****** ******
      ****** ****** ****** ****** ****** ****** ****** ****** ****** ******
      ****** ****** ****** ****** ****** ****** ****** ****** ****** ******
  10  ****** ****** ****** ****** ****** ****** ****** ****** ****** ******
      ****** ****** ****** ****** ****** ****** ****** ****** ****** ******
      ****** ****** ****** ****** ****** ****** ****** ****** ****** ******
  11  ****** ****** ****** ****** ****** ****** ****** ****** ****** ******
      ****** ****** ****** ****** ****** ****** ****** ****** ****** ******
      ****** ****** ****** ****** ****** ****** ****** ****** ****** ******
  12  ****** ****** ****** ****** ****** ****** ****** ****** ****** ******
      ****** ****** ****** ****** ****** ****** ****** ****** ****** ******
      ****** ****** ****** ****** ****** ****** ****** ****** ****** ******
  13  ****** ****** ****** ****** ****** ****** ****** ****** ****** ******
      ****** ****** ****** ****** ****** ****** ****** ****** ****** ******
      ****** ****** ****** ****** ****** ****** ****** ****** ****** ******
  14  ****** ****** ****** ****** ****** ****** ****** ****** ****** ******
      ****** ****** ****** ****** ****** ****** ****** ****** ****** ******
      ****** ****** ****** ****** ****** ****** ****** ****** ****** ******
  15  ****** ****** ****** ****** ****** ****** ****** ****** ****** ******
      ****** ****** ****** ****** ****** ****** ****** ****** ****** ******
      ****** ****** ****** ****** ****** ****** ****** ****** ****** ******
  16  ****** ****** ****** ****** ****** ****** ****** ****** ****** ******
      ****** ****** ****** ****** ****** ****** ****** ****** ****** ******
      ****** ****** ****** ****** ****** ****** ****** ****** ****** ******
  17  ****** ****** ****** ****** ****** ****** ****** ****** ****** ******
      ****** ****** ****** ****** ****** ****** ****** ****** ****** ******
      ****** ****** ****** ****** ****** ****** ****** ****** ****** ******
  18  ****** ****** ****** ****** ****** ****** ****** ****** ****** ******
      ****** ****** ****** ****** ****** ****** ****** ****** ****** ******
      ****** ****** ****** ****** ****** ****** ****** ****** ****** ******
  19  ****** ****** ****** ****** ****** ****** ****** ****** ****** ******
      ****** ****** ****** ****** ****** ****** ****** ****** ****** ******
      ****** ****** ****** ****** ****** ****** ****** ****** ****** ******
  20  ****** ****** ****** ****** ****** ****** ****** ****** ****** ******
      ****** ****** ****** ****** ****** ****** ****** ****** ****** ******
      ****** ****** ****** ****** ****** ****** ****** ****** ****** ******
  21  ****** ****** ****** ****** ****** ****** ****** ****** ****** ******
      ****** ****** ****** ****** ****** ****** ****** ****** ****** ******
      ****** ****** ****** ****** ****** ****** ****** ****** ****** ******
  22  ****** ****** ****** ****** ****** ****** ****** ****** ****** ******
      ****** ****** ****** ****** ****** ****** ****** ****** ****** ******
      ****** ****** ****** ****** ****** ****** ****** ****** ****** ******
  23  ****** ****** ****** ****** ****** ****** ****** ****** ****** ******
      ****** ****** ****** ****** ****** ****** ****** ****** ****** ******
      ****** ****** ****** ****** ****** ****** ****** ****** ****** ******
  24  ****** ****** ****** ****** ****** ****** ****** ****** ****** ******
      ****** ****** ****** ****** ****** ****** ****** ****** ****** ******
      ****** ****** ****** ****** ****** ****** ****** ****** ****** ******
  25  ****** ****** ****** ****** ****** ****** ****** ****** ****** ******
      ****** ****** ****** ****** ****** ****** ****** ****** ****** ******
      ****** ****** ****** ****** ****** ****** ****** ****** ****** ******

 HEAD WILL BE SAVED ON UNIT   51 AT END OF TIME STEP    1, STRESS PERIOD   10
1
  VOLUMETRIC BUDGET FOR ENTIRE MODEL AT END OF TIME STEP    1, STRESS PERIOD  10
  ------------------------------------------------------------------------------

     CUMULATIVE VOLUMES      L**3       RATES FOR THIS TIME STEP      L**3/T
     ------------------                 ------------------------

           IN:                                      IN:
           ---                                      ---
             STORAGE =    35310638.1835               STORAGE =           0.0000
       CONSTANT HEAD =    26139424.4072         CONSTANT HEAD =       32730.3470
               WELLS =           0.0000                 WELLS =           0.0000
            RECHARGE =    23901600.0000              RECHARGE =       55200.0000
      STREAM LEAKAGE =     6086368.0455        STREAM LEAKAGE =        6580.0992

            TOTAL IN =    91438030.6362              TOTAL IN =       94510.4462

          OUT:                                     OUT:
          ----                                     ----
             STORAGE =     2225902.5988               STORAGE =       15238.0084
       CONSTANT HEAD =           0.0000         CONSTANT HEAD =           0.0000
               WELLS =    23302552.7281                 WELLS =       25523.0588
            RECHARGE =           0.0000              RECHARGE =           0.0000
      STREAM LEAKAGE =    65909576.9421        STREAM LEAKAGE =       53749.3753

           TOTAL OUT =    91438032.2691             TOTAL OUT =       94510.4426

            IN - OUT =          -1.6329              IN - OUT =       3.6511E-03

 PERCENT DISCREPANCY =          -0.00     PERCENT DISCREPANCY =           0.00






         TIME SUMMARY AT END OF TIME STEP    1 IN STRESS PERIOD   10
                    SECONDS     MINUTES      HOURS       DAYS        YEARS
                    -----------------------------------------------------------
   TIME STEP LENGTH 7.86240E+06 1.31040E+05  2184.0      91.000     0.24914    
 STRESS PERIOD TIME 7.86240E+06 1.31040E+05  2184.0      91.000     0.24914    
         TOTAL TIME 7.88832E+07 1.31472E+06  21912.      913.00      2.4997    
1
1
                            STRESS PERIOD NO.   11, LENGTH =   91.00000    
                            -----------------------------------------------

                              NUMBER OF TIME STEPS =     1

                               MULTIPLIER FOR DELT =     1.500

                            INITIAL TIME STEP SIZE =   91.00000    

 WELL NO.  LAYER   ROW   COL   STRESS RATE         
 --------------------------------------------------
      1      1     14      6       0.000    
      2      1      3      9       0.000    
      3      1     20     10       0.000    
      4      1     14     20       0.000    
      5      1      4     17      -6818.    
      6      1     12     28      -9652.    
      7      1      7      8      -7590.    
      8      1     12      7      -1463.    

      8 WELLS

                 RECHARGE =   0.00000    

 REUSING STREAM SEGMENT DATA FROM LAST STRESS PERIOD
 
 SOLVING FOR HEAD 


     7 CALLS TO PCG ROUTINE FOR TIME STEP   1 IN STRESS PERIOD   11
    26 TOTAL ITERATIONS

 OUTPUT CONTROL FOR STRESS PERIOD   11   TIME STEP    1
    SAVE BUDGET
    SAVE HEAD FOR ALL LAYERS
    PRINT HEAD FOR ALL LAYERS
 UBDSV2 SAVING "STREAMFLOW OUT  " ON UNIT  50 AT TIME STEP  1, STRESS PERIOD  11



 STREAM LISTING     PERIOD     11   STEP        1

 LAYER ROW COL. STREAM  RCH.  FLOW INTO     FLOW TO   FLOW OUT OF   OVRLND.     DIRECT     STREAM       STREAM     STREAM     STREAM   STREAMBED  STREAMBED
                SEG.NO.  NO.  STRM. RCH.    AQUIFER    STRM. RCH.    RUNOFF     PRECIP       ET          HEAD       DEPTH      WIDTH   CONDCTNC.   GRADIENT

   1   13    1     1     1    1.0000E+05 -7.2794E+02   1.0073E+05  0.000E+00  0.000E+00  0.000E+00  4.84063E+01  1.450E-01  2.000E+01  2.000E+04 -3.640E-02
   1   13    2     1     2    1.0073E+05 -1.5172E+03   1.0225E+05  0.000E+00  0.000E+00  0.000E+00  4.79300E+01  1.459E-01  2.000E+01  2.000E+04 -7.586E-02
   1   14    3     1     3    1.0225E+05 -2.1703E+02   1.0246E+05  0.000E+00  0.000E+00  0.000E+00  4.74535E+01  1.467E-01  2.000E+01  2.000E+04 -1.085E-02
   1   15    4     1     4    1.0246E+05 -2.1138E+02   1.0267E+05  0.000E+00  0.000E+00  0.000E+00  4.69764E+01  1.469E-01  2.000E+01  2.000E+04 -1.057E-02
   1   16    5     1     5    1.0267E+05 -1.3300E+03   1.0400E+05  0.000E+00  0.000E+00  0.000E+00  4.64998E+01  1.475E-01  2.000E+01  2.000E+04 -6.650E-02
   1   16    6     1     6    1.0400E+05 -7.7136E+02   1.0477E+05  0.000E+00  0.000E+00  0.000E+00  4.60234E+01  1.484E-01  2.000E+01  2.000E+04 -3.857E-02
   1   16    7     1     7    1.0477E+05 -7.4058E+02   1.0552E+05  0.000E+00  0.000E+00  0.000E+00  4.55468E+01  1.491E-01  2.000E+01  2.000E+04 -3.703E-02
   1   16    8     1     8    1.0552E+05 -7.5518E+02   1.0627E+05  0.000E+00  0.000E+00  0.000E+00  4.50702E+01  1.497E-01  2.000E+01  2.000E+04 -3.776E-02
   1   16    9     1     9    1.0627E+05 -7.8350E+02   1.0705E+05  0.000E+00  0.000E+00  0.000E+00  4.45935E+01  1.504E-01  2.000E+01  2.000E+04 -3.918E-02
   1   16   10     1    10    1.0705E+05 -8.1499E+02   1.0787E+05  0.000E+00  0.000E+00  0.000E+00  4.41169E+01  1.510E-01  2.000E+01  2.000E+04 -4.075E-02
   1   16   11     1    11    1.0787E+05 -8.6333E+02   1.0873E+05  0.000E+00  0.000E+00  0.000E+00  4.36404E+01  1.517E-01  2.000E+01  2.000E+04 -4.317E-02
   1   16   12     1    12    1.0873E+05 -1.4403E+03   1.1017E+05  0.000E+00  0.000E+00  0.000E+00  4.31641E+01  1.527E-01  2.000E+01  2.000E+04 -7.201E-02
   1   15   13     1    13    1.1017E+05 -1.0617E+03   1.1123E+05  0.000E+00  0.000E+00  0.000E+00  4.26878E+01  1.538E-01  2.000E+01  2.000E+04 -5.309E-02
   1   14   14     1    14    1.1123E+05 -1.1013E+03   1.1234E+05  0.000E+00  0.000E+00  0.000E+00  4.22115E+01  1.547E-01  2.000E+01  2.000E+04 -5.506E-02
   1   13   15     1    15    1.1234E+05 -1.1761E+03   1.1351E+05  0.000E+00  0.000E+00  0.000E+00  4.17351E+01  1.556E-01  2.000E+01  2.000E+04 -5.880E-02
   1   12   16     1    16    1.1351E+05 -1.3805E+03   1.1489E+05  0.000E+00  0.000E+00  0.000E+00  4.12589E+01  1.566E-01  2.000E+01  2.000E+04 -6.902E-02
   1   12   17     1    17    1.1489E+05 -1.0459E+03   1.1594E+05  0.000E+00  0.000E+00  0.000E+00  4.07826E+01  1.576E-01  2.000E+01  2.000E+04 -5.229E-02
   1   12   18     1    18    1.1594E+05 -1.0667E+03   1.1700E+05  0.000E+00  0.000E+00  0.000E+00  4.03062E+01  1.585E-01  2.000E+01  2.000E+04 -5.334E-02
   1   12   19     1    19    1.1700E+05 -1.4567E+03   1.1846E+05  0.000E+00  0.000E+00  0.000E+00  3.98300E+01  1.595E-01  2.000E+01  2.000E+04 -7.283E-02
   1   13   20     1    20    1.1846E+05 -1.3297E+03   1.1979E+05  0.000E+00  0.000E+00  0.000E+00  3.93538E+01  1.607E-01  2.000E+01  2.000E+04 -6.648E-02
   1   14   21     1    21    1.1979E+05 -1.3831E+03   1.2117E+05  0.000E+00  0.000E+00  0.000E+00  3.88777E+01  1.618E-01  2.000E+01  2.000E+04 -6.915E-02
   1   14   22     1    22    1.2117E+05  4.9829E+03   1.1619E+05  0.000E+00  0.000E+00  0.000E+00  3.83989E+01  1.603E-01  2.000E+01  2.000E+04  2.491E-01
   1    9   30     2     1    5.0000E+04  6.5459E+02   4.9345E+04  0.000E+00  0.000E+00  0.000E+00  4.02404E+01  1.154E-01  2.000E+01  2.000E+04  3.273E-02
   1    9   29     2     2    4.9345E+04  4.4008E+02   4.8905E+04  0.000E+00  0.000E+00  0.000E+00  3.99896E+01  1.146E-01  2.000E+01  2.000E+04  2.200E-02
   1    9   28     2     3    4.8905E+04  2.3031E+02   4.8675E+04  0.000E+00  0.000E+00  0.000E+00  3.97392E+01  1.142E-01  2.000E+01  2.000E+04  1.152E-02
   1    9   27     2     4    4.8675E+04 -1.1183E+03   4.9793E+04  0.000E+00  0.000E+00  0.000E+00  3.94898E+01  1.148E-01  2.000E+01  2.000E+04 -5.592E-02
   1   10   26     2     5    4.9793E+04  3.6929E+02   4.9424E+04  0.000E+00  0.000E+00  0.000E+00  3.92403E+01  1.153E-01  2.000E+01  2.000E+04  1.846E-02
   1   11   25     2     6    4.9424E+04  3.1006E+02   4.9114E+04  0.000E+00  0.000E+00  0.000E+00  3.89898E+01  1.148E-01  2.000E+01  2.000E+04  1.550E-02
   1   12   24     2     7    4.9114E+04 -4.9865E+02   4.9613E+04  0.000E+00  0.000E+00  0.000E+00  3.87400E+01  1.150E-01  2.000E+01  2.000E+04 -2.493E-02
   1   13   23     2     8    4.9613E+04 -1.1602E+02   4.9729E+04  0.000E+00  0.000E+00  0.000E+00  3.84904E+01  1.154E-01  2.000E+01  2.000E+04 -5.801E-03
   1   14   22     2     9    4.9729E+04  1.7887E+03   4.7940E+04  0.000E+00  0.000E+00  0.000E+00  3.82392E+01  1.142E-01  2.000E+01  2.000E+04  8.944E-02
   1   14   22     3     1    1.6413E+05 -8.6026E+03   1.7273E+05  0.000E+00  0.000E+00  0.000E+00  3.77197E+01  1.641E-01  2.000E+01  2.000E+04 -4.301E-01
   1   15   23     3     2    1.7273E+05 -4.7136E+02   1.7321E+05  0.000E+00  0.000E+00  0.000E+00  3.68334E+01  1.668E-01  2.000E+01  2.000E+04 -2.357E-02
   1   15   24     3     3    1.7321E+05 -2.0217E+02   1.7341E+05  0.000E+00  0.000E+00  0.000E+00  3.59447E+01  1.670E-01  2.000E+01  2.000E+04 -1.011E-02
   1   15   25     3     4    1.7341E+05 -1.6595E+02   1.7357E+05  0.000E+00  0.000E+00  0.000E+00  3.50559E+01  1.671E-01  2.000E+01  2.000E+04 -8.297E-03
   1   15   26     3     5    1.7357E+05 -6.4347E+01   1.7364E+05  0.000E+00  0.000E+00  0.000E+00  3.41671E+01  1.671E-01  2.000E+01  2.000E+04 -3.217E-03
   1   16   27     3     6    1.7364E+05 -3.2489E+01   1.7367E+05  0.000E+00  0.000E+00  0.000E+00  3.32783E+01  1.672E-01  2.000E+01  2.000E+04 -1.624E-03
   1   17   28     3     7    1.7367E+05 -2.3842E+02   1.7391E+05  0.000E+00  0.000E+00  0.000E+00  3.23895E+01  1.672E-01  2.000E+01  2.000E+04 -1.192E-02
   1   18   29     3     8    1.7391E+05 -2.3280E+03   1.7624E+05  0.000E+00  0.000E+00  0.000E+00  3.15013E+01  1.680E-01  2.000E+01  2.000E+04 -1.164E-01
   1   18   30     3     9    1.7624E+05 -2.5623E+03   1.7880E+05  0.000E+00  0.000E+00  0.000E+00  3.06138E+01  1.694E-01  2.000E+01  2.000E+04 -1.281E-01



1
              HEAD IN LAYER   1 AT END OF TIME STEP   1 IN STRESS PERIOD   11
  ---------------------------------------------------------------------------

          1      2      3      4      5      6      7      8      9     10
         11     12     13     14     15     16     17     18     19     20
         21     22     23     24     25     26     27     28     29     30
 .........................................................................
   1  ****** ****** ****** ****** ****** ****** ****** ****** ****** ******
      ****** ****** ****** ****** ****** ****** ****** ****** ****** ******
      ****** ****** ****** ****** ****** ****** ****** ****** ****** ******
   2  ****** ****** ****** ****** ****** ****** ****** ****** ****** ******
      ****** ****** ****** ****** ****** ****** ****** ****** ****** ******
      ****** ****** ****** ****** ****** ****** ****** ****** ****** ******
   3  ****** ****** ****** ****** ****** ****** ****** ****** ****** ******
      ****** ****** ****** ****** ****** ****** ****** ****** ****** ******
      ****** ****** ****** ****** ****** ****** ****** ****** ****** ******
   4  ****** ****** ****** ****** ****** ****** ****** ****** ****** ******
      ****** ****** ****** ****** ****** ****** ****** ****** ****** ******
      ****** ****** ****** ****** ****** ****** ****** ****** ****** ******
   5  ****** ****** ****** ****** ****** ****** ****** ****** ****** ******
      ****** ****** ****** ****** ****** ****** ****** ****** ****** ******
      ****** ****** ****** ****** ****** ****** ****** ****** ****** ******
   6  ****** ****** ****** ****** ****** ****** ****** ****** ****** ******
      ****** ****** ****** ****** ****** ****** ****** ****** ****** ******
      ****** ****** ****** ****** ****** ****** ****** ****** ****** ******
   7  ****** ****** ****** ****** ****** ****** ****** ****** ****** ******
      ****** ****** ****** ****** ****** ****** ****** ****** ****** ******
      ****** ****** ****** ****** ****** ****** ****** ****** ****** ******
   8  ****** ****** ****** ****** ****** ****** ****** ****** ****** ******
      ****** ****** ****** ****** ****** ****** ****** ****** ****** ******
      ****** ****** ****** ****** ****** ****** ****** ****** ****** ******
   9  ****** ****** ****** ****** ****** ****** ****** ****** ****** ******
      ****** ****** ****** ****** ****** ****** ****** ****** ****** ******
      ****** ****** ****** ****** ****** ****** ****** ****** ****** ******
  10  ****** ****** ****** ****** ****** ****** ****** ****** ****** ******
      ****** ****** ****** ****** ****** ****** ****** ****** ****** ******
      ****** ****** ****** ****** ****** ****** ****** ****** ****** ******
  11  ****** ****** ****** ****** ****** ****** ****** ****** ****** ******
      ****** ****** ****** ****** ****** ****** ****** ****** ****** ******
      ****** ****** ****** ****** ****** ****** ****** ****** ****** ******
  12  ****** ****** ****** ****** ****** ****** ****** ****** ****** ******
      ****** ****** ****** ****** ****** ****** ****** ****** ****** ******
      ****** ****** ****** ****** ****** ****** ****** ****** ****** ******
  13  ****** ****** ****** ****** ****** ****** ****** ****** ****** ******
      ****** ****** ****** ****** ****** ****** ****** ****** ****** ******
      ****** ****** ****** ****** ****** ****** ****** ****** ****** ******
  14  ****** ****** ****** ****** ****** ****** ****** ****** ****** ******
      ****** ****** ****** ****** ****** ****** ****** ****** ****** ******
      ****** ****** ****** ****** ****** ****** ****** ****** ****** ******
  15  ****** ****** ****** ****** ****** ****** ****** ****** ****** ******
      ****** ****** ****** ****** ****** ****** ****** ****** ****** ******
      ****** ****** ****** ****** ****** ****** ****** ****** ****** ******
  16  ****** ****** ****** ****** ****** ****** ****** ****** ****** ******
      ****** ****** ****** ****** ****** ****** ****** ****** ****** ******
      ****** ****** ****** ****** ****** ****** ****** ****** ****** ******
  17  ****** ****** ****** ****** ****** ****** ****** ****** ****** ******
      ****** ****** ****** ****** ****** ****** ****** ****** ****** ******
      ****** ****** ****** ****** ****** ****** ****** ****** ****** ******
  18  ****** ****** ****** ****** ****** ****** ****** ****** ****** ******
      ****** ****** ****** ****** ****** ****** ****** ****** ****** ******
      ****** ****** ****** ****** ****** ****** ****** ****** ****** ******
  19  ****** ****** ****** ****** ****** ****** ****** ****** ****** ******
      ****** ****** ****** ****** ****** ****** ****** ****** ****** ******
      ****** ****** ****** ****** ****** ****** ****** ****** ****** ******
  20  ****** ****** ****** ****** ****** ****** ****** ****** ****** ******
      ****** ****** ****** ****** ****** ****** ****** ****** ****** ******
      ****** ****** ****** ****** ****** ****** ****** ****** ****** ******
  21  ****** ****** ****** ****** ****** ****** ****** ****** ****** ******
      ****** ****** ****** ****** ****** ****** ****** ****** ****** ******
      ****** ****** ****** ****** ****** ****** ****** ****** ****** ******
  22  ****** ****** ****** ****** ****** ****** ****** ****** ****** ******
      ****** ****** ****** ****** ****** ****** ****** ****** ****** ******
      ****** ****** ****** ****** ****** ****** ****** ****** ****** ******
  23  ****** ****** ****** ****** ****** ****** ****** ****** ****** ******
      ****** ****** ****** ****** ****** ****** ****** ****** ****** ******
      ****** ****** ****** ****** ****** ****** ****** ****** ****** ******
  24  ****** ****** ****** ****** ****** ****** ****** ****** ****** ******
      ****** ****** ****** ****** ****** ****** ****** ****** ****** ******
      ****** ****** ****** ****** ****** ****** ****** ****** ****** ******
  25  ****** ****** ****** ****** ****** ****** ****** ****** ****** ******
      ****** ****** ****** ****** ****** ****** ****** ****** ****** ******
      ****** ****** ****** ****** ****** ****** ****** ****** ****** ******

 HEAD WILL BE SAVED ON UNIT   51 AT END OF TIME STEP    1, STRESS PERIOD   11
1
  VOLUMETRIC BUDGET FOR ENTIRE MODEL AT END OF TIME STEP    1, STRESS PERIOD  11
  ------------------------------------------------------------------------------

     CUMULATIVE VOLUMES      L**3       RATES FOR THIS TIME STEP      L**3/T
     ------------------                 ------------------------

           IN:                                      IN:
           ---                                      ---
             STORAGE =    36973332.2905               STORAGE =       18271.3638
       CONSTANT HEAD =    29420035.0828         CONSTANT HEAD =       36050.6668
               WELLS =           0.0000                 WELLS =           0.0000
            RECHARGE =    23901600.0000              RECHARGE =           0.0000
      STREAM LEAKAGE =     6884974.2921        STREAM LEAKAGE =        8775.8928

            TOTAL IN =    97179941.6654              TOTAL IN =       63097.9234

          OUT:                                     OUT:
          ----                                     ----
             STORAGE =     2225902.5988               STORAGE =           0.0000
       CONSTANT HEAD =           0.0000         CONSTANT HEAD =           0.0000
               WELLS =    25625151.0833                 WELLS =       25523.0588
            RECHARGE =           0.0000              RECHARGE =           0.0000
      STREAM LEAKAGE =    69328890.0532        STREAM LEAKAGE =       37574.8694

           TOTAL OUT =    97179943.7353             TOTAL OUT =       63097.9282

            IN - OUT =          -2.0700              IN - OUT =      -4.8031E-03

 PERCENT DISCREPANCY =          -0.00     PERCENT DISCREPANCY =          -0.00






         TIME SUMMARY AT END OF TIME STEP    1 IN STRESS PERIOD   11
                    SECONDS     MINUTES      HOURS       DAYS        YEARS
                    -----------------------------------------------------------
   TIME STEP LENGTH 7.86240E+06 1.31040E+05  2184.0      91.000     0.24914    
 STRESS PERIOD TIME 7.86240E+06 1.31040E+05  2184.0      91.000     0.24914    
         TOTAL TIME 8.67456E+07 1.44576E+06  24096.      1004.0      2.7488    
1
1
                            STRESS PERIOD NO.   12, LENGTH =   91.00000    
                            -----------------------------------------------

                              NUMBER OF TIME STEPS =     1

                               MULTIPLIER FOR DELT =     1.500

                            INITIAL TIME STEP SIZE =   91.00000    

 WELL NO.  LAYER   ROW   COL   STRESS RATE         
 --------------------------------------------------
      1      1     14      6       0.000    
      2      1      3      9       0.000    
      3      1     20     10       0.000    
      4      1     14     20       0.000    
      5      1      4     17      -6818.    
      6      1     12     28      -9652.    
      7      1      7      8      -7590.    
      8      1     12      7      -1463.    

      8 WELLS

                 RECHARGE =  1.000000E-03

 REUSING STREAM SEGMENT DATA FROM LAST STRESS PERIOD
 
 SOLVING FOR HEAD 


     7 CALLS TO PCG ROUTINE FOR TIME STEP   1 IN STRESS PERIOD   12
    24 TOTAL ITERATIONS

 OUTPUT CONTROL FOR STRESS PERIOD   12   TIME STEP    1
    SAVE BUDGET
    SAVE HEAD FOR ALL LAYERS
    PRINT HEAD FOR ALL LAYERS
 UBDSV2 SAVING "STREAMFLOW OUT  " ON UNIT  50 AT TIME STEP  1, STRESS PERIOD  12



 STREAM LISTING     PERIOD     12   STEP        1

 LAYER ROW COL. STREAM  RCH.  FLOW INTO     FLOW TO   FLOW OUT OF   OVRLND.     DIRECT     STREAM       STREAM     STREAM     STREAM   STREAMBED  STREAMBED
                SEG.NO.  NO.  STRM. RCH.    AQUIFER    STRM. RCH.    RUNOFF     PRECIP       ET          HEAD       DEPTH      WIDTH   CONDCTNC.   GRADIENT

   1   13    1     1     1    1.0000E+05 -8.6382E+02   1.0086E+05  0.000E+00  0.000E+00  0.000E+00  4.84064E+01  1.450E-01  2.000E+01  2.000E+04 -4.319E-02
   1   13    2     1     2    1.0086E+05 -1.6623E+03   1.0253E+05  0.000E+00  0.000E+00  0.000E+00  4.79302E+01  1.461E-01  2.000E+01  2.000E+04 -8.311E-02
   1   14    3     1     3    1.0253E+05 -2.9395E+02   1.0282E+05  0.000E+00  0.000E+00  0.000E+00  4.74538E+01  1.470E-01  2.000E+01  2.000E+04 -1.470E-02
   1   15    4     1     4    1.0282E+05 -2.9240E+02   1.0311E+05  0.000E+00  0.000E+00  0.000E+00  4.69768E+01  1.472E-01  2.000E+01  2.000E+04 -1.462E-02
   1   16    5     1     5    1.0311E+05 -1.5390E+03   1.0465E+05  0.000E+00  0.000E+00  0.000E+00  4.65003E+01  1.480E-01  2.000E+01  2.000E+04 -7.695E-02
   1   16    6     1     6    1.0465E+05 -9.0067E+02   1.0555E+05  0.000E+00  0.000E+00  0.000E+00  4.60240E+01  1.490E-01  2.000E+01  2.000E+04 -4.503E-02
   1   16    7     1     7    1.0555E+05 -8.6469E+02   1.0642E+05  0.000E+00  0.000E+00  0.000E+00  4.55475E+01  1.498E-01  2.000E+01  2.000E+04 -4.323E-02
   1   16    8     1     8    1.0642E+05 -8.7829E+02   1.0730E+05  0.000E+00  0.000E+00  0.000E+00  4.50710E+01  1.505E-01  2.000E+01  2.000E+04 -4.391E-02
   1   16    9     1     9    1.0730E+05 -9.0721E+02   1.0820E+05  0.000E+00  0.000E+00  0.000E+00  4.45945E+01  1.513E-01  2.000E+01  2.000E+04 -4.536E-02
   1   16   10     1    10    1.0820E+05 -9.4032E+02   1.0914E+05  0.000E+00  0.000E+00  0.000E+00  4.41180E+01  1.521E-01  2.000E+01  2.000E+04 -4.702E-02
   1   16   11     1    11    1.0914E+05 -9.9124E+02   1.1013E+05  0.000E+00  0.000E+00  0.000E+00  4.36415E+01  1.529E-01  2.000E+01  2.000E+04 -4.956E-02
   1   16   12     1    12    1.1013E+05 -1.6410E+03   1.1177E+05  0.000E+00  0.000E+00  0.000E+00  4.31653E+01  1.540E-01  2.000E+01  2.000E+04 -8.205E-02
   1   15   13     1    13    1.1177E+05 -1.2758E+03   1.1305E+05  0.000E+00  0.000E+00  0.000E+00  4.26893E+01  1.552E-01  2.000E+01  2.000E+04 -6.379E-02
   1   14   14     1    14    1.1305E+05 -1.3148E+03   1.1437E+05  0.000E+00  0.000E+00  0.000E+00  4.22131E+01  1.562E-01  2.000E+01  2.000E+04 -6.574E-02
   1   13   15     1    15    1.1437E+05 -1.3813E+03   1.1575E+05  0.000E+00  0.000E+00  0.000E+00  4.17369E+01  1.574E-01  2.000E+01  2.000E+04 -6.907E-02
   1   12   16     1    16    1.1575E+05 -1.5577E+03   1.1730E+05  0.000E+00  0.000E+00  0.000E+00  4.12608E+01  1.586E-01  2.000E+01  2.000E+04 -7.788E-02
   1   12   17     1    17    1.1730E+05 -1.1964E+03   1.1850E+05  0.000E+00  0.000E+00  0.000E+00  4.07847E+01  1.597E-01  2.000E+01  2.000E+04 -5.982E-02
   1   12   18     1    18    1.1850E+05 -1.2199E+03   1.1972E+05  0.000E+00  0.000E+00  0.000E+00  4.03084E+01  1.607E-01  2.000E+01  2.000E+04 -6.100E-02
   1   12   19     1    19    1.1972E+05 -1.6464E+03   1.2137E+05  0.000E+00  0.000E+00  0.000E+00  3.98323E+01  1.618E-01  2.000E+01  2.000E+04 -8.232E-02
   1   13   20     1    20    1.2137E+05 -1.5391E+03   1.2291E+05  0.000E+00  0.000E+00  0.000E+00  3.93563E+01  1.631E-01  2.000E+01  2.000E+04 -7.695E-02
   1   14   21     1    21    1.2291E+05 -1.5771E+03   1.2448E+05  0.000E+00  0.000E+00  0.000E+00  3.88802E+01  1.643E-01  2.000E+01  2.000E+04 -7.886E-02
   1   14   22     1    22    1.2448E+05  4.9288E+03   1.1955E+05  0.000E+00  0.000E+00  0.000E+00  3.84016E+01  1.630E-01  2.000E+01  2.000E+04  2.464E-01
   1    9   30     2     1    5.0000E+04  4.7869E+02   4.9521E+04  0.000E+00  0.000E+00  0.000E+00  4.02405E+01  1.155E-01  2.000E+01  2.000E+04  2.393E-02
   1    9   29     2     2    4.9521E+04  2.6628E+02   4.9255E+04  0.000E+00  0.000E+00  0.000E+00  3.99900E+01  1.150E-01  2.000E+01  2.000E+04  1.331E-02
   1    9   28     2     3    4.9255E+04  6.0173E+01   4.9195E+04  0.000E+00  0.000E+00  0.000E+00  3.97398E+01  1.148E-01  2.000E+01  2.000E+04  3.009E-03
   1    9   27     2     4    4.9195E+04 -1.3259E+03   5.0521E+04  0.000E+00  0.000E+00  0.000E+00  3.94907E+01  1.157E-01  2.000E+01  2.000E+04 -6.630E-02
   1   10   26     2     5    5.0521E+04  1.4087E+02   5.0380E+04  0.000E+00  0.000E+00  0.000E+00  3.92415E+01  1.165E-01  2.000E+01  2.000E+04  7.043E-03
   1   11   25     2     6    5.0380E+04  8.5513E+01   5.0294E+04  0.000E+00  0.000E+00  0.000E+00  3.89913E+01  1.163E-01  2.000E+01  2.000E+04  4.276E-03
   1   12   24     2     7    5.0294E+04 -7.0345E+02   5.0998E+04  0.000E+00  0.000E+00  0.000E+00  3.87418E+01  1.168E-01  2.000E+01  2.000E+04 -3.517E-02
   1   13   23     2     8    5.0998E+04 -1.9342E+02   5.1191E+04  0.000E+00  0.000E+00  0.000E+00  3.84924E+01  1.174E-01  2.000E+01  2.000E+04 -9.671E-03
   1   14   22     2     9    5.1191E+04  1.7226E+03   4.9469E+04  0.000E+00  0.000E+00  0.000E+00  3.82413E+01  1.163E-01  2.000E+01  2.000E+04  8.613E-02
   1   14   22     3     1    1.6902E+05 -8.6532E+03   1.7768E+05  0.000E+00  0.000E+00  0.000E+00  3.77225E+01  1.670E-01  2.000E+01  2.000E+04 -4.327E-01
   1   15   23     3     2    1.7768E+05 -5.4347E+02   1.7822E+05  0.000E+00  0.000E+00  0.000E+00  3.68363E+01  1.696E-01  2.000E+01  2.000E+04 -2.717E-02
   1   15   24     3     3    1.7822E+05 -2.6731E+02   1.7849E+05  0.000E+00  0.000E+00  0.000E+00  3.59476E+01  1.699E-01  2.000E+01  2.000E+04 -1.337E-02
   1   15   25     3     4    1.7849E+05 -2.3236E+02   1.7872E+05  0.000E+00  0.000E+00  0.000E+00  3.50589E+01  1.700E-01  2.000E+01  2.000E+04 -1.162E-02
   1   15   26     3     5    1.7872E+05 -1.4186E+02   1.7886E+05  0.000E+00  0.000E+00  0.000E+00  3.41701E+01  1.701E-01  2.000E+01  2.000E+04 -7.093E-03
   1   16   27     3     6    1.7886E+05 -1.1933E+02   1.7898E+05  0.000E+00  0.000E+00  0.000E+00  3.32813E+01  1.702E-01  2.000E+01  2.000E+04 -5.967E-03
   1   17   28     3     7    1.7898E+05 -4.5935E+02   1.7944E+05  0.000E+00  0.000E+00  0.000E+00  3.23926E+01  1.703E-01  2.000E+01  2.000E+04 -2.297E-02
   1   18   29     3     8    1.7944E+05 -2.5290E+03   1.8197E+05  0.000E+00  0.000E+00  0.000E+00  3.15045E+01  1.712E-01  2.000E+01  2.000E+04 -1.265E-01
   1   18   30     3     9    1.8197E+05 -2.7307E+03   1.8470E+05  0.000E+00  0.000E+00  0.000E+00  3.06171E+01  1.727E-01  2.000E+01  2.000E+04 -1.365E-01



1
              HEAD IN LAYER   1 AT END OF TIME STEP   1 IN STRESS PERIOD   12
  ---------------------------------------------------------------------------

          1      2      3      4      5      6      7      8      9     10
         11     12     13     14     15     16     17     18     19     20
         21     22     23     24     25     26     27     28     29     30
 .........................................................................
   1  ****** ****** ****** ****** ****** ****** ****** ****** ****** ******
      ****** ****** ****** ****** ****** ****** ****** ****** ****** ******
      ****** ****** ****** ****** ****** ****** ****** ****** ****** ******
   2  ****** ****** ****** ****** ****** ****** ****** ****** ****** ******
      ****** ****** ****** ****** ****** ****** ****** ****** ****** ******
      ****** ****** ****** ****** ****** ****** ****** ****** ****** ******
   3  ****** ****** ****** ****** ****** ****** ****** ****** ****** ******
      ****** ****** ****** ****** ****** ****** ****** ****** ****** ******
      ****** ****** ****** ****** ****** ****** ****** ****** ****** ******
   4  ****** ****** ****** ****** ****** ****** ****** ****** ****** ******
      ****** ****** ****** ****** ****** ****** ****** ****** ****** ******
      ****** ****** ****** ****** ****** ****** ****** ****** ****** ******
   5  ****** ****** ****** ****** ****** ****** ****** ****** ****** ******
      ****** ****** ****** ****** ****** ****** ****** ****** ****** ******
      ****** ****** ****** ****** ****** ****** ****** ****** ****** ******
   6  ****** ****** ****** ****** ****** ****** ****** ****** ****** ******
      ****** ****** ****** ****** ****** ****** ****** ****** ****** ******
      ****** ****** ****** ****** ****** ****** ****** ****** ****** ******
   7  ****** ****** ****** ****** ****** ****** ****** ****** ****** ******
      ****** ****** ****** ****** ****** ****** ****** ****** ****** ******
      ****** ****** ****** ****** ****** ****** ****** ****** ****** ******
   8  ****** ****** ****** ****** ****** ****** ****** ****** ****** ******
      ****** ****** ****** ****** ****** ****** ****** ****** ****** ******
      ****** ****** ****** ****** ****** ****** ****** ****** ****** ******
   9  ****** ****** ****** ****** ****** ****** ****** ****** ****** ******
      ****** ****** ****** ****** ****** ****** ****** ****** ****** ******
      ****** ****** ****** ****** ****** ****** ****** ****** ****** ******
  10  ****** ****** ****** ****** ****** ****** ****** ****** ****** ******
      ****** ****** ****** ****** ****** ****** ****** ****** ****** ******
      ****** ****** ****** ****** ****** ****** ****** ****** ****** ******
  11  ****** ****** ****** ****** ****** ****** ****** ****** ****** ******
      ****** ****** ****** ****** ****** ****** ****** ****** ****** ******
      ****** ****** ****** ****** ****** ****** ****** ****** ****** ******
  12  ****** ****** ****** ****** ****** ****** ****** ****** ****** ******
      ****** ****** ****** ****** ****** ****** ****** ****** ****** ******
      ****** ****** ****** ****** ****** ****** ****** ****** ****** ******
  13  ****** ****** ****** ****** ****** ****** ****** ****** ****** ******
      ****** ****** ****** ****** ****** ****** ****** ****** ****** ******
      ****** ****** ****** ****** ****** ****** ****** ****** ****** ******
  14  ****** ****** ****** ****** ****** ****** ****** ****** ****** ******
      ****** ****** ****** ****** ****** ****** ****** ****** ****** ******
      ****** ****** ****** ****** ****** ****** ****** ****** ****** ******
  15  ****** ****** ****** ****** ****** ****** ****** ****** ****** ******
      ****** ****** ****** ****** ****** ****** ****** ****** ****** ******
      ****** ****** ****** ****** ****** ****** ****** ****** ****** ******
  16  ****** ****** ****** ****** ****** ****** ****** ****** ****** ******
      ****** ****** ****** ****** ****** ****** ****** ****** ****** ******
      ****** ****** ****** ****** ****** ****** ****** ****** ****** ******
  17  ****** ****** ****** ****** ****** ****** ****** ****** ****** ******
      ****** ****** ****** ****** ****** ****** ****** ****** ****** ******
      ****** ****** ****** ****** ****** ****** ****** ****** ****** ******
  18  ****** ****** ****** ****** ****** ****** ****** ****** ****** ******
      ****** ****** ****** ****** ****** ****** ****** ****** ****** ******
      ****** ****** ****** ****** ****** ****** ****** ****** ****** ******
  19  ****** ****** ****** ****** ****** ****** ****** ****** ****** ******
      ****** ****** ****** ****** ****** ****** ****** ****** ****** ******
      ****** ****** ****** ****** ****** ****** ****** ****** ****** ******
  20  ****** ****** ****** ****** ****** ****** ****** ****** ****** ******
      ****** ****** ****** ****** ****** ****** ****** ****** ****** ******
      ****** ****** ****** ****** ****** ****** ****** ****** ****** ******
  21  ****** ****** ****** ****** ****** ****** ****** ****** ****** ******
      ****** ****** ****** ****** ****** ****** ****** ****** ****** ******
      ****** ****** ****** ****** ****** ****** ****** ****** ****** ******
  22  ****** ****** ****** ****** ****** ****** ****** ****** ****** ******
      ****** ****** ****** ****** ****** ****** ****** ****** ****** ******
      ****** ****** ****** ****** ****** ****** ****** ****** ****** ******
  23  ****** ****** ****** ****** ****** ****** ****** ****** ****** ******
      ****** ****** ****** ****** ****** ****** ****** ****** ****** ******
      ****** ****** ****** ****** ****** ****** ****** ****** ****** ******
  24  ****** ****** ****** ****** ****** ****** ****** ****** ****** ******
      ****** ****** ****** ****** ****** ****** ****** ****** ****** ******
      ****** ****** ****** ****** ****** ****** ****** ****** ****** ******
  25  ****** ****** ****** ****** ****** ****** ****** ****** ****** ******
      ****** ****** ****** ****** ****** ****** ****** ****** ****** ******
      ****** ****** ****** ****** ****** ****** ****** ****** ****** ******

 HEAD WILL BE SAVED ON UNIT   51 AT END OF TIME STEP    1, STRESS PERIOD   12
1
  VOLUMETRIC BUDGET FOR ENTIRE MODEL AT END OF TIME STEP    1, STRESS PERIOD  12
  ------------------------------------------------------------------------------

     CUMULATIVE VOLUMES      L**3       RATES FOR THIS TIME STEP      L**3/T
     ------------------                 ------------------------

           IN:                                      IN:
           ---                                      ---
             STORAGE =    36982215.4598               STORAGE =          97.6172
       CONSTANT HEAD =    32639616.7233         CONSTANT HEAD =       35380.0180
               WELLS =           0.0000                 WELLS =           0.0000
            RECHARGE =    26413200.0000              RECHARGE =       27600.0000
      STREAM LEAKAGE =     7584120.7601        STREAM LEAKAGE =        7682.9282

            TOTAL IN =   103619152.9432              TOTAL IN =       70760.5635

          OUT:                                     OUT:
          ----                                     ----
             STORAGE =     2485687.2281               STORAGE =        2854.7761
       CONSTANT HEAD =           0.0000         CONSTANT HEAD =           0.0000
               WELLS =    27947749.4385                 WELLS =       25523.0588
            RECHARGE =           0.0000              RECHARGE =           0.0000
      STREAM LEAKAGE =    73185718.2682        STREAM LEAKAGE =       42382.7276

           TOTAL OUT =   103619154.9348             TOTAL OUT =       70760.5626

            IN - OUT =          -1.9916              IN - OUT =       8.6122E-04

 PERCENT DISCREPANCY =          -0.00     PERCENT DISCREPANCY =           0.00






         TIME SUMMARY AT END OF TIME STEP    1 IN STRESS PERIOD   12
                    SECONDS     MINUTES      HOURS       DAYS        YEARS
                    -----------------------------------------------------------
   TIME STEP LENGTH 7.86240E+06 1.31040E+05  2184.0      91.000     0.24914    
 STRESS PERIOD TIME 7.86240E+06 1.31040E+05  2184.0      91.000     0.24914    
         TOTAL TIME 9.46080E+07 1.57680E+06  26280.      1095.0      2.9979    
1

 Run end date and time (yyyy/mm/dd hh:mm:ss): 2019/03/03 20:47:52
 Elapsed run time:  0.086 Seconds

