                                  MODFLOW-2005     
      U.S. GEOLOGICAL SURVEY MODULAR FINITE-DIFFERENCE GROUND-WATER FLOW MODEL
                            VERSION 1.11.00 8/8/2013

 LIST FILE: supply2.lst
                         UNIT   10

 OPENING ..\data\supply.dis
 FILE TYPE:DIS   UNIT   11   STATUS:OLD    
 FORMAT:FORMATTED              ACCESS:SEQUENTIAL          

 OPENING ..\data\supply.ba6
 FILE TYPE:BAS6   UNIT   12   STATUS:OLD    
 FORMAT:FORMATTED              ACCESS:SEQUENTIAL          

 OPENING ..\data\supply.bc6
 FILE TYPE:BCF6   UNIT   13   STATUS:OLD    
 FORMAT:FORMATTED              ACCESS:SEQUENTIAL          

 OPENING ..\data\supply.rch
 FILE TYPE:RCH   UNIT   15   STATUS:OLD    
 FORMAT:FORMATTED              ACCESS:SEQUENTIAL          

 OPENING ..\data\supply2.sfr
 FILE TYPE:SFR   UNIT   16   STATUS:OLD    
 FORMAT:FORMATTED              ACCESS:SEQUENTIAL          

 OPENING ..\data\supply.oc
 FILE TYPE:OC   UNIT   17   STATUS:OLD    
 FORMAT:FORMATTED              ACCESS:SEQUENTIAL          

 OPENING ..\data\supply.pcg
 FILE TYPE:PCG   UNIT   18   STATUS:OLD    
 FORMAT:FORMATTED              ACCESS:SEQUENTIAL          

 OPENING supply2.wel
 FILE TYPE:WEL   UNIT   19   STATUS:OLD    
 FORMAT:FORMATTED              ACCESS:SEQUENTIAL          

 OPENING supply2sf.cbc
 FILE TYPE:DATA(BINARY)   UNIT   50   STATUS:UNKNOWN
 FORMAT:BINARY                 ACCESS:SEQUENTIAL          

 OPENING supply2hd.bhd
 FILE TYPE:DATA(BINARY)   UNIT   51   STATUS:UNKNOWN
 FORMAT:BINARY                 ACCESS:SEQUENTIAL          

 BAS -- BASIC PACKAGE, VERSION 7, 5/2/2005 INPUT READ FROM UNIT   12
 
 MODFLOW was compiled using uniform precision
 Precision of REAL and DOUBLE PRECISION variables:          15

 DISCRETIZATION INPUT DATA READ FROM UNIT   11
    1 LAYERS        25 ROWS        30 COLUMNS
   12 STRESS PERIOD(S) IN SIMULATION
 MODEL TIME UNIT IS DAYS
 MODEL LENGTH UNIT IS UNDEFINED
  Confining bed flag for each layer:
   0

                     DELR =   200.000    

                     DELC =   200.000    

 TOP ELEVATION OF LAYER 1 =  100.0000    

   MODEL LAYER BOTTOM EL. =   0.00000     FOR LAYER   1


 STRESS PERIOD     LENGTH       TIME STEPS     MULTIPLIER FOR DELT    SS FLAG
 ----------------------------------------------------------------------------
        1         92.00000          1                    1.500         TR
        2         91.00000          1                    1.500         TR
        3         91.00000          1                    1.500         TR
        4         91.00000          1                    1.500         TR
        5         92.00000          1                    1.500         TR
        6         91.00000          1                    1.500         TR
        7         91.00000          1                    1.500         TR
        8         91.00000          1                    1.500         TR
        9         92.00000          1                    1.500         TR
       10         91.00000          1                    1.500         TR
       11         91.00000          1                    1.500         TR
       12         91.00000          1                    1.500         TR

 TRANSIENT SIMULATION



 
 #MODOFC transient water supply sample problem                                   
 #                                                                               
 THE FREE FORMAT OPTION HAS BEEN SELECTED



                     BOUNDARY ARRAY FOR LAYER   1
 READING ON UNIT   12 WITH FORMAT: (20I4)              

 AQUIFER HEAD WILL BE SET TO   0.0000     AT ALL NO-FLOW NODES (IBOUND=0).



                       INITIAL HEAD FOR LAYER   1
 READING ON UNIT   12 WITH FORMAT: (10F13.0)           

 OUTPUT CONTROL IS SPECIFIED ONLY AT TIME STEPS FOR WHICH OUTPUT IS DESIRED
 COMPACT CELL-BY-CELL BUDGET FILES WILL BE WRITTEN
 HEAD PRINT FORMAT CODE IS  18    DRAWDOWN PRINT FORMAT CODE IS   0
 HEADS WILL BE SAVED ON UNIT   51    DRAWDOWNS WILL BE SAVED ON UNIT    0

 BCF -- BLOCK-CENTERED FLOW PACKAGE, VERSION 7, 5/2/2005
         INPUT READ FROM UNIT 13
 TRANSIENT SIMULATION
 HEAD AT CELLS THAT CONVERT TO DRY=   0.0000    
 WETTING CAPABILITY IS NOT ACTIVE
      LAYER  LAYER-TYPE CODE     INTERBLOCK T
      --------------------------------------------
         1            0          0 -- HARMONIC    

 COLUMN TO ROW ANISOTROPY =  1.000000    

     PRIMARY STORAGE COEF =  5.000000E-02 FOR LAYER   1

     TRANSMIS. ALONG ROWS =   500.000     FOR LAYER   1

 WEL -- WELL PACKAGE, VERSION 7, 5/2/2005 INPUT READ FROM UNIT   19
 # Well package input file written by MMProc
 No named parameters
 MAXIMUM OF      6 ACTIVE WELLS AT ONE TIME


     0 Well parameters

 RCH -- RECHARGE PACKAGE, VERSION 7, 5/2/2005 INPUT READ FROM UNIT   15
 No named parameters
 OPTION 1 -- RECHARGE TO TOP LAYER


     0 Recharge parameters

 SFR7 -- STREAMFLOW ROUTING PACKAGE, VERSION 1.0.7, 2013-01-15
         INPUT READ FROM UNIT  16
 #  Supply2 test problem for GWM-VI
 #  The eighth entry in the first data line is ISTCB2 -
 #    Setting this to a negative number indicates that
 #    streamflows out of the reach will be saved to a
 #    binary file.  The absolute value of ISTCB2 is the
 #    unit to which unformatted flows will be written.
 #
 No named parameters
 Segment information will not be 
 read by reach
 No named parameters
 No specifed inflow files


 NUMBER OF STREAM REACHES IS   40

 NUMBER OF STREAM SEGMENTS IS    3

 NUMBER OF STREAM PARAMETERS IS    0

 NUMBER OF STREAM SEGMENTS DEFINED USING PARAMETERS IS              0

 MAXIMUM ERROR FOR STREAM LEAKAGE RATES IS  1.00E-04

 CONSTANT FOR MANNINGS EQUATION IS  1.2839E+05





   STREAM NETWORK DESCRIPTION: 

   LAYER    ROW    COL   SEGMENT   REACH     LENGTH
                          NUMBER   NUMBER    IN CELL        
   --------------------------------------------------
      1     13      1       1        1    2.0000E+02
      1     13      2       1        2    2.0000E+02
      1     14      3       1        3    2.0000E+02
      1     15      4       1        4    2.0000E+02
      1     16      5       1        5    2.0000E+02
      1     16      6       1        6    2.0000E+02
      1     16      7       1        7    2.0000E+02
      1     16      8       1        8    2.0000E+02
      1     16      9       1        9    2.0000E+02
      1     16     10       1       10    2.0000E+02
      1     16     11       1       11    2.0000E+02
      1     16     12       1       12    2.0000E+02
      1     15     13       1       13    2.0000E+02
      1     14     14       1       14    2.0000E+02
      1     13     15       1       15    2.0000E+02
      1     12     16       1       16    2.0000E+02
      1     12     17       1       17    2.0000E+02
      1     12     18       1       18    2.0000E+02
      1     12     19       1       19    2.0000E+02
      1     13     20       1       20    2.0000E+02
      1     14     21       1       21    2.0000E+02
      1     14     22       1       22    2.0000E+02
      1      9     30       2        1    2.0000E+02
      1      9     29       2        2    2.0000E+02
      1      9     28       2        3    2.0000E+02
      1      9     27       2        4    2.0000E+02
      1     10     26       2        5    2.0000E+02
      1     11     25       2        6    2.0000E+02
      1     12     24       2        7    2.0000E+02
      1     13     23       2        8    2.0000E+02
      1     14     22       2        9    2.0000E+02
      1     14     22       3        1    2.0000E+02
      1     15     23       3        2    2.0000E+02
      1     15     24       3        3    2.0000E+02
      1     15     25       3        4    2.0000E+02
      1     15     26       3        5    2.0000E+02
      1     16     27       3        6    2.0000E+02
      1     17     28       3        7    2.0000E+02
      1     18     29       3        8    2.0000E+02
      1     18     30       3        9    2.0000E+02




 PCG -- CONJUGATE-GRADIENT SOLUTION PACKAGE, VERSION 7, 5/2/2005
 MAXIMUM OF    500 CALLS OF SOLUTION ROUTINE
 MAXIMUM OF      5 INTERNAL ITERATIONS PER CALL TO SOLUTION ROUTINE
 MATRIX PRECONDITIONING TYPE :    1



                                    SOLUTION BY THE CONJUGATE-GRADIENT METHOD
                                   -------------------------------------------
                    MAXIMUM NUMBER OF CALLS TO PCG ROUTINE =      500
                        MAXIMUM ITERATIONS PER CALL TO PCG =        5
                               MATRIX PRECONDITIONING TYPE =        1
        RELAXATION FACTOR (ONLY USED WITH PRECOND. TYPE 1) =    0.10000E+01
 PARAMETER OF POLYNOMIAL PRECOND. = 2 (2) OR IS CALCULATED :        0
                         HEAD CHANGE CRITERION FOR CLOSURE =    0.10000E-05
                     RESIDUAL CHANGE CRITERION FOR CLOSURE =    0.10000E+01
            PCG HEAD AND RESIDUAL CHANGE PRINTOUT INTERVAL =        1
     PRINTING FROM SOLVER IS LIMITED(1) OR SUPPRESSED (>1) =        1
                            STEADY-STATE DAMPING PARAMETER =    0.10000E+01
                               TRANSIENT DAMPING PARAMETER =    0.10000E+01
1
                            STRESS PERIOD NO.    1, LENGTH =   92.00000    
                            -----------------------------------------------

                              NUMBER OF TIME STEPS =     1

                               MULTIPLIER FOR DELT =     1.500

                            INITIAL TIME STEP SIZE =   92.00000    

 WELL NO.  LAYER   ROW   COL   STRESS RATE         
 --------------------------------------------------
      1      1     23     10     -0.1134E+05
      2      1     17      3     -0.1036E+05
      3      1     23     22     -0.1145E+05

      3 WELLS

                 RECHARGE =  5.000000E-04



 CLASSIFICATION & COUNT OF STREAM SEGMENTS BASED ON SOURCE OF INFLOW:

                HEADWATER     DIVERSION     RECEIVES TRIBUTARY FLOW
                ---------     ---------     -----------------------
                     2              0               1



                    INPUT DATA FOR EACH STREAM SEGMENT
 ---------------------------------------------------------------------------------------------

 SEGMENT    SEG.     INFLOW   OVERLAND   STREAM    STREAM   ICALC  OUTFLOW  DIVERSION PRIORITY
    NO.    LENGTH     RATE     RUNOFF      ET       PPT.    METH.  TO SEG.  FROM SEG.    NO.

      1  4.400E+03 1.000E+05 0.000E+00 0.000E+00 0.000E+00    1        3        0        0
      2  1.800E+03 5.000E+04 0.000E+00 0.000E+00 0.000E+00    1        3        0        0
      3  1.800E+03 0.000E+00 0.000E+00 0.000E+00 0.000E+00    1        0        0        0


         STREAMBED PROPERTIES AND STREAM DIMENSIONS

 SEGMENT     BED HYD. COND.      BED THICKNESS     ELEV.-TOP OF BED     WIDTH OF STREAM     DEPTH OF STREAM    STREAM ROUGHNESS
    No.     UPPER     LOWER     UPPER     LOWER     UPPER     LOWER     UPPER     LOWER     UPPER     LOWER   CHANNEL      BANK

     1  5.000E+00 5.000E+00 1.000E+00 1.000E+00 4.850E+01 3.800E+01 2.000E+01 2.000E+01                     5.000E-02
     2  5.000E+00 5.000E+00 1.000E+00 1.000E+00 4.025E+01 3.800E+01 2.000E+01 2.000E+01                     5.000E-02
     3  5.000E+00 5.000E+00 1.000E+00 1.000E+00 3.800E+01 3.000E+01 2.000E+01 2.000E+01                     5.000E-02



 
 SOLVING FOR HEAD 


     8 CALLS TO PCG ROUTINE FOR TIME STEP   1 IN STRESS PERIOD    1
    34 TOTAL ITERATIONS

 OUTPUT CONTROL FOR STRESS PERIOD    1   TIME STEP    1
    SAVE BUDGET
    SAVE HEAD FOR ALL LAYERS
    PRINT HEAD FOR ALL LAYERS
 UBDSV2 SAVING "STREAMFLOW OUT  " ON UNIT  50 AT TIME STEP  1, STRESS PERIOD   1



 STREAM LISTING     PERIOD      1   STEP        1

 LAYER ROW COL. STREAM  RCH.  FLOW INTO     FLOW TO   FLOW OUT OF   OVRLND.     DIRECT     STREAM       STREAM     STREAM     STREAM   STREAMBED  STREAMBED
                SEG.NO.  NO.  STRM. RCH.    AQUIFER    STRM. RCH.    RUNOFF     PRECIP       ET          HEAD       DEPTH      WIDTH   CONDCTNC.   GRADIENT

   1   13    1     1     1    1.0000E+05 -5.3094E+03   1.0531E+05  0.000E+00  0.000E+00  0.000E+00  4.84083E+01  1.469E-01  2.000E+01  2.000E+04 -2.655E-01
   1   13    2     1     2    1.0531E+05 -8.2324E+03   1.1354E+05  0.000E+00  0.000E+00  0.000E+00  4.79368E+01  1.527E-01  2.000E+01  2.000E+04 -4.116E-01
   1   14    3     1     3    1.1354E+05 -6.7722E+03   1.2031E+05  0.000E+00  0.000E+00  0.000E+00  4.74657E+01  1.589E-01  2.000E+01  2.000E+04 -3.386E-01
   1   15    4     1     4    1.2031E+05 -5.9223E+03   1.2624E+05  0.000E+00  0.000E+00  0.000E+00  4.69935E+01  1.640E-01  2.000E+01  2.000E+04 -2.961E-01
   1   16    5     1     5    1.2624E+05 -5.5773E+03   1.3181E+05  0.000E+00  0.000E+00  0.000E+00  4.65208E+01  1.685E-01  2.000E+01  2.000E+04 -2.789E-01
   1   16    6     1     6    1.3181E+05 -5.4766E+03   1.3729E+05  0.000E+00  0.000E+00  0.000E+00  4.60478E+01  1.728E-01  2.000E+01  2.000E+04 -2.738E-01
   1   16    7     1     7    1.3729E+05 -5.8189E+03   1.4311E+05  0.000E+00  0.000E+00  0.000E+00  4.55749E+01  1.772E-01  2.000E+01  2.000E+04 -2.909E-01
   1   16    8     1     8    1.4311E+05 -5.9810E+03   1.4909E+05  0.000E+00  0.000E+00  0.000E+00  4.51021E+01  1.816E-01  2.000E+01  2.000E+04 -2.991E-01
   1   16    9     1     9    1.4909E+05 -6.0312E+03   1.5512E+05  0.000E+00  0.000E+00  0.000E+00  4.46292E+01  1.860E-01  2.000E+01  2.000E+04 -3.016E-01
   1   16   10     1    10    1.5512E+05 -6.0035E+03   1.6112E+05  0.000E+00  0.000E+00  0.000E+00  4.41563E+01  1.904E-01  2.000E+01  2.000E+04 -3.002E-01
   1   16   11     1    11    1.6112E+05 -5.9426E+03   1.6707E+05  0.000E+00  0.000E+00  0.000E+00  4.36833E+01  1.947E-01  2.000E+01  2.000E+04 -2.971E-01
   1   16   12     1    12    1.6707E+05 -7.7121E+03   1.7478E+05  0.000E+00  0.000E+00  0.000E+00  4.32109E+01  1.995E-01  2.000E+01  2.000E+04 -3.856E-01
   1   15   13     1    13    1.7478E+05 -8.1333E+03   1.8291E+05  0.000E+00  0.000E+00  0.000E+00  4.27391E+01  2.050E-01  2.000E+01  2.000E+04 -4.067E-01
   1   14   14     1    14    1.8291E+05 -8.4098E+03   1.9132E+05  0.000E+00  0.000E+00  0.000E+00  4.22675E+01  2.107E-01  2.000E+01  2.000E+04 -4.205E-01
   1   13   15     1    15    1.9132E+05 -8.6553E+03   1.9998E+05  0.000E+00  0.000E+00  0.000E+00  4.17959E+01  2.164E-01  2.000E+01  2.000E+04 -4.328E-01
   1   12   16     1    16    1.9998E+05 -9.4511E+03   2.0943E+05  0.000E+00  0.000E+00  0.000E+00  4.13246E+01  2.223E-01  2.000E+01  2.000E+04 -4.726E-01
   1   12   17     1    17    2.0943E+05 -6.6590E+03   2.1609E+05  0.000E+00  0.000E+00  0.000E+00  4.08525E+01  2.275E-01  2.000E+01  2.000E+04 -3.329E-01
   1   12   18     1    18    2.1609E+05 -6.4838E+03   2.2257E+05  0.000E+00  0.000E+00  0.000E+00  4.03795E+01  2.317E-01  2.000E+01  2.000E+04 -3.242E-01
   1   12   19     1    19    2.2257E+05 -8.1660E+03   2.3074E+05  0.000E+00  0.000E+00  0.000E+00  3.99068E+01  2.363E-01  2.000E+01  2.000E+04 -4.083E-01
   1   13   20     1    20    2.3074E+05 -6.7225E+03   2.3746E+05  0.000E+00  0.000E+00  0.000E+00  3.94342E+01  2.410E-01  2.000E+01  2.000E+04 -3.361E-01
   1   14   21     1    21    2.3746E+05 -5.5701E+03   2.4303E+05  0.000E+00  0.000E+00  0.000E+00  3.89607E+01  2.447E-01  2.000E+01  2.000E+04 -2.785E-01
   1   14   22     1    22    2.4303E+05  4.3289E+03   2.3870E+05  0.000E+00  0.000E+00  0.000E+00  3.84838E+01  2.451E-01  2.000E+01  2.000E+04  2.164E-01
   1    9   30     2     1    5.0000E+04 -5.5715E+03   5.5572E+04  0.000E+00  0.000E+00  0.000E+00  4.02447E+01  1.197E-01  2.000E+01  2.000E+04 -2.786E-01
   1    9   29     2     2    5.5572E+04 -5.8705E+03   6.1442E+04  0.000E+00  0.000E+00  0.000E+00  4.00023E+01  1.273E-01  2.000E+01  2.000E+04 -2.935E-01
   1    9   28     2     3    6.1442E+04 -6.1947E+03   6.7637E+04  0.000E+00  0.000E+00  0.000E+00  3.97600E+01  1.350E-01  2.000E+01  2.000E+04 -3.097E-01
   1    9   27     2     4    6.7637E+04 -9.5879E+03   7.7225E+04  0.000E+00  0.000E+00  0.000E+00  3.95197E+01  1.447E-01  2.000E+01  2.000E+04 -4.794E-01
   1   10   26     2     5    7.7225E+04 -7.7189E+03   8.4944E+04  0.000E+00  0.000E+00  0.000E+00  3.92799E+01  1.549E-01  2.000E+01  2.000E+04 -3.859E-01
   1   11   25     2     6    8.4944E+04 -6.5937E+03   9.1537E+04  0.000E+00  0.000E+00  0.000E+00  3.90379E+01  1.629E-01  2.000E+01  2.000E+04 -3.297E-01
   1   12   24     2     7    9.1537E+04 -5.3356E+03   9.6873E+04  0.000E+00  0.000E+00  0.000E+00  3.87944E+01  1.694E-01  2.000E+01  2.000E+04 -2.668E-01
   1   13   23     2     8    9.6873E+04 -3.7934E+03   1.0067E+05  0.000E+00  0.000E+00  0.000E+00  3.85493E+01  1.743E-01  2.000E+01  2.000E+04 -1.897E-01
   1   14   22     2     9    1.0067E+05  6.7297E+02   9.9993E+04  0.000E+00  0.000E+00  0.000E+00  3.83010E+01  1.760E-01  2.000E+01  2.000E+04  3.365E-02
   1   14   22     3     1    3.3869E+05 -9.2034E+03   3.4790E+05  0.000E+00  0.000E+00  0.000E+00  3.78072E+01  2.516E-01  2.000E+01  2.000E+04 -4.602E-01
   1   15   23     3     2    3.4790E+05 -5.8734E+03   3.5377E+05  0.000E+00  0.000E+00  0.000E+00  3.69216E+01  2.549E-01  2.000E+01  2.000E+04 -2.937E-01
   1   15   24     3     3    3.5377E+05 -4.2722E+03   3.5804E+05  0.000E+00  0.000E+00  0.000E+00  3.60349E+01  2.571E-01  2.000E+01  2.000E+04 -2.136E-01
   1   15   25     3     4    3.5804E+05 -4.2856E+03   3.6233E+05  0.000E+00  0.000E+00  0.000E+00  3.51478E+01  2.590E-01  2.000E+01  2.000E+04 -2.143E-01
   1   15   26     3     5    3.6233E+05 -5.6286E+03   3.6796E+05  0.000E+00  0.000E+00  0.000E+00  3.42611E+01  2.611E-01  2.000E+01  2.000E+04 -2.814E-01
   1   16   27     3     6    3.6796E+05 -7.1907E+03   3.7515E+05  0.000E+00  0.000E+00  0.000E+00  3.33749E+01  2.638E-01  2.000E+01  2.000E+04 -3.595E-01
   1   17   28     3     7    3.7515E+05 -7.9591E+03   3.8311E+05  0.000E+00  0.000E+00  0.000E+00  3.24893E+01  2.670E-01  2.000E+01  2.000E+04 -3.980E-01
   1   18   29     3     8    3.8311E+05 -8.9979E+03   3.9211E+05  0.000E+00  0.000E+00  0.000E+00  3.16039E+01  2.706E-01  2.000E+01  2.000E+04 -4.499E-01
   1   18   30     3     9    3.9211E+05 -7.4852E+03   3.9959E+05  0.000E+00  0.000E+00  0.000E+00  3.07185E+01  2.740E-01  2.000E+01  2.000E+04 -3.743E-01



1
              HEAD IN LAYER   1 AT END OF TIME STEP   1 IN STRESS PERIOD    1
  ---------------------------------------------------------------------------

          1      2      3      4      5      6      7      8      9     10
         11     12     13     14     15     16     17     18     19     20
         21     22     23     24     25     26     27     28     29     30
 .........................................................................
   1  ****** ****** ****** ****** ****** ****** ****** ****** ****** ******
      ****** ****** ****** ****** ****** ****** ****** ****** ****** ******
      ****** ****** ****** ****** ****** ****** ****** ****** ****** ******
   2  ****** ****** ****** ****** ****** ****** ****** ****** ****** ******
      ****** ****** ****** ****** ****** ****** ****** ****** ****** ******
      ****** ****** ****** ****** ****** ****** ****** ****** ****** ******
   3  ****** ****** ****** ****** ****** ****** ****** ****** ****** ******
      ****** ****** ****** ****** ****** ****** ****** ****** ****** ******
      ****** ****** ****** ****** ****** ****** ****** ****** ****** ******
   4  ****** ****** ****** ****** ****** ****** ****** ****** ****** ******
      ****** ****** ****** ****** ****** ****** ****** ****** ****** ******
      ****** ****** ****** ****** ****** ****** ****** ****** ****** ******
   5  ****** ****** ****** ****** ****** ****** ****** ****** ****** ******
      ****** ****** ****** ****** ****** ****** ****** ****** ****** ******
      ****** ****** ****** ****** ****** ****** ****** ****** ****** ******
   6  ****** ****** ****** ****** ****** ****** ****** ****** ****** ******
      ****** ****** ****** ****** ****** ****** ****** ****** ****** ******
      ****** ****** ****** ****** ****** ****** ****** ****** ****** ******
   7  ****** ****** ****** ****** ****** ****** ****** ****** ****** ******
      ****** ****** ****** ****** ****** ****** ****** ****** ****** ******
      ****** ****** ****** ****** ****** ****** ****** ****** ****** ******
   8  ****** ****** ****** ****** ****** ****** ****** ****** ****** ******
      ****** ****** ****** ****** ****** ****** ****** ****** ****** ******
      ****** ****** ****** ****** ****** ****** ****** ****** ****** ******
   9  ****** ****** ****** ****** ****** ****** ****** ****** ****** ******
      ****** ****** ****** ****** ****** ****** ****** ****** ****** ******
      ****** ****** ****** ****** ****** ****** ****** ****** ****** ******
  10  ****** ****** ****** ****** ****** ****** ****** ****** ****** ******
      ****** ****** ****** ****** ****** ****** ****** ****** ****** ******
      ****** ****** ****** ****** ****** ****** ****** ****** ****** ******
  11  ****** ****** ****** ****** ****** ****** ****** ****** ****** ******
      ****** ****** ****** ****** ****** ****** ****** ****** ****** ******
      ****** ****** ****** ****** ****** ****** ****** ****** ****** ******
  12  ****** ****** ****** ****** ****** ****** ****** ****** ****** ******
      ****** ****** ****** ****** ****** ****** ****** ****** ****** ******
      ****** ****** ****** ****** ****** ****** ****** ****** ****** ******
  13  ****** ****** ****** ****** ****** ****** ****** ****** ****** ******
      ****** ****** ****** ****** ****** ****** ****** ****** ****** ******
      ****** ****** ****** ****** ****** ****** ****** ****** ****** ******
  14  ****** ****** ****** ****** ****** ****** ****** ****** ****** ******
      ****** ****** ****** ****** ****** ****** ****** ****** ****** ******
      ****** ****** ****** ****** ****** ****** ****** ****** ****** ******
  15  ****** ****** ****** ****** ****** ****** ****** ****** ****** ******
      ****** ****** ****** ****** ****** ****** ****** ****** ****** ******
      ****** ****** ****** ****** ****** ****** ****** ****** ****** ******
  16  ****** ****** ****** ****** ****** ****** ****** ****** ****** ******
      ****** ****** ****** ****** ****** ****** ****** ****** ****** ******
      ****** ****** ****** ****** ****** ****** ****** ****** ****** ******
  17  ****** ****** ****** ****** ****** ****** ****** ****** ****** ******
      ****** ****** ****** ****** ****** ****** ****** ****** ****** ******
      ****** ****** ****** ****** ****** ****** ****** ****** ****** ******
  18  ****** ****** ****** ****** ****** ****** ****** ****** ****** ******
      ****** ****** ****** ****** ****** ****** ****** ****** ****** ******
      ****** ****** ****** ****** ****** ****** ****** ****** ****** ******
  19  ****** ****** ****** ****** ****** ****** ****** ****** ****** ******
      ****** ****** ****** ****** ****** ****** ****** ****** ****** ******
      ****** ****** ****** ****** ****** ****** ****** ****** ****** ******
  20  ****** ****** ****** ****** ****** ****** ****** ****** ****** ******
      ****** ****** ****** ****** ****** ****** ****** ****** ****** ******
      ****** ****** ****** ****** ****** ****** ****** ****** ****** ******
  21  ****** ****** ****** ****** ****** ****** ****** ****** ****** ******
      ****** ****** ****** ****** ****** ****** ****** ****** ****** ******
      ****** ****** ****** ****** ****** ****** ****** ****** ****** ******
  22  ****** ****** ****** ****** ****** ****** ****** ****** ****** ******
      ****** ****** ****** ****** ****** ****** ****** ****** ****** ******
      ****** ****** ****** ****** ****** ****** ****** ****** ****** ******
  23  ****** ****** ****** ****** ****** ****** ****** ****** ****** ******
      ****** ****** ****** ****** ****** ****** ****** ****** ****** ******
      ****** ****** ****** ****** ****** ****** ****** ****** ****** ******
  24  ****** ****** ****** ****** ****** ****** ****** ****** ****** ******
      ****** ****** ****** ****** ****** ****** ****** ****** ****** ******
      ****** ****** ****** ****** ****** ****** ****** ****** ****** ******
  25  ****** ****** ****** ****** ****** ****** ****** ****** ****** ******
      ****** ****** ****** ****** ****** ****** ****** ****** ****** ******
      ****** ****** ****** ****** ****** ****** ****** ****** ****** ******

 HEAD WILL BE SAVED ON UNIT   51 AT END OF TIME STEP    1, STRESS PERIOD    1
1
  VOLUMETRIC BUDGET FOR ENTIRE MODEL AT END OF TIME STEP    1, STRESS PERIOD   1
  ------------------------------------------------------------------------------

     CUMULATIVE VOLUMES      L**3       RATES FOR THIS TIME STEP      L**3/T
     ------------------                 ------------------------

           IN:                                      IN:
           ---                                      ---
             STORAGE =    16024217.8673               STORAGE =      174176.2812
       CONSTANT HEAD =     8717837.1547         CONSTANT HEAD =       94759.0995
               WELLS =           0.0000                 WELLS =           0.0000
            RECHARGE =     1269600.0000              RECHARGE =       13800.0000
      STREAM LEAKAGE =      460171.3857        STREAM LEAKAGE =        5001.8629

            TOTAL IN =    26471826.4077              TOTAL IN =      287737.2436

          OUT:                                     OUT:
          ----                                     ----
             STORAGE =           0.0000               STORAGE =           0.0000
       CONSTANT HEAD =           0.0000         CONSTANT HEAD =           0.0000
               WELLS =     3049306.4787                 WELLS =       33144.6356
            RECHARGE =           0.0000              RECHARGE =           0.0000
      STREAM LEAKAGE =    23422520.0673        STREAM LEAKAGE =      254592.6094

           TOTAL OUT =    26471826.5460             TOTAL OUT =      287737.2451

            IN - OUT =          -0.1383              IN - OUT =      -1.5035E-03

 PERCENT DISCREPANCY =          -0.00     PERCENT DISCREPANCY =          -0.00






         TIME SUMMARY AT END OF TIME STEP    1 IN STRESS PERIOD    1
                    SECONDS     MINUTES      HOURS       DAYS        YEARS
                    -----------------------------------------------------------
   TIME STEP LENGTH 7.94880E+06 1.32480E+05  2208.0      92.000     0.25188    
 STRESS PERIOD TIME 7.94880E+06 1.32480E+05  2208.0      92.000     0.25188    
         TOTAL TIME 7.94880E+06 1.32480E+05  2208.0      92.000     0.25188    
1
1
                            STRESS PERIOD NO.    2, LENGTH =   91.00000    
                            -----------------------------------------------

                              NUMBER OF TIME STEPS =     1

                               MULTIPLIER FOR DELT =     1.500

                            INITIAL TIME STEP SIZE =   91.00000    

 WELL NO.  LAYER   ROW   COL   STRESS RATE         
 --------------------------------------------------
      1      1     23     10     -0.1134E+05
      2      1     17      3     -0.1036E+05
      3      1     23     22     -0.1145E+05

      3 WELLS

                 RECHARGE =  2.000000E-03

 REUSING STREAM SEGMENT DATA FROM LAST STRESS PERIOD
 
 SOLVING FOR HEAD 


     7 CALLS TO PCG ROUTINE FOR TIME STEP   1 IN STRESS PERIOD    2
    27 TOTAL ITERATIONS

 OUTPUT CONTROL FOR STRESS PERIOD    2   TIME STEP    1
    SAVE BUDGET
    SAVE HEAD FOR ALL LAYERS
    PRINT HEAD FOR ALL LAYERS
 UBDSV2 SAVING "STREAMFLOW OUT  " ON UNIT  50 AT TIME STEP  1, STRESS PERIOD   2



 STREAM LISTING     PERIOD      2   STEP        1

 LAYER ROW COL. STREAM  RCH.  FLOW INTO     FLOW TO   FLOW OUT OF   OVRLND.     DIRECT     STREAM       STREAM     STREAM     STREAM   STREAMBED  STREAMBED
                SEG.NO.  NO.  STRM. RCH.    AQUIFER    STRM. RCH.    RUNOFF     PRECIP       ET          HEAD       DEPTH      WIDTH   CONDCTNC.   GRADIENT

   1   13    1     1     1    1.0000E+05 -3.2841E+03   1.0328E+05  0.000E+00  0.000E+00  0.000E+00  4.84074E+01  1.461E-01  2.000E+01  2.000E+04 -1.642E-01
   1   13    2     1     2    1.0328E+05 -5.7360E+03   1.0902E+05  0.000E+00  0.000E+00  0.000E+00  4.79340E+01  1.499E-01  2.000E+01  2.000E+04 -2.868E-01
   1   14    3     1     3    1.0902E+05 -3.8357E+03   1.1286E+05  0.000E+00  0.000E+00  0.000E+00  4.74608E+01  1.539E-01  2.000E+01  2.000E+04 -1.918E-01
   1   15    4     1     4    1.1286E+05 -2.9265E+03   1.1578E+05  0.000E+00  0.000E+00  0.000E+00  4.69863E+01  1.567E-01  2.000E+01  2.000E+04 -1.463E-01
   1   16    5     1     5    1.1578E+05 -2.9105E+03   1.1869E+05  0.000E+00  0.000E+00  0.000E+00  4.65114E+01  1.591E-01  2.000E+01  2.000E+04 -1.455E-01
   1   16    6     1     6    1.1869E+05 -3.4381E+03   1.2213E+05  0.000E+00  0.000E+00  0.000E+00  4.60367E+01  1.617E-01  2.000E+01  2.000E+04 -1.719E-01
   1   16    7     1     7    1.2213E+05 -3.7763E+03   1.2591E+05  0.000E+00  0.000E+00  0.000E+00  4.55623E+01  1.646E-01  2.000E+01  2.000E+04 -1.888E-01
   1   16    8     1     8    1.2591E+05 -3.9306E+03   1.2984E+05  0.000E+00  0.000E+00  0.000E+00  4.50881E+01  1.676E-01  2.000E+01  2.000E+04 -1.965E-01
   1   16    9     1     9    1.2984E+05 -3.9812E+03   1.3382E+05  0.000E+00  0.000E+00  0.000E+00  4.46139E+01  1.707E-01  2.000E+01  2.000E+04 -1.991E-01
   1   16   10     1    10    1.3382E+05 -3.9663E+03   1.3779E+05  0.000E+00  0.000E+00  0.000E+00  4.41397E+01  1.738E-01  2.000E+01  2.000E+04 -1.983E-01
   1   16   11     1    11    1.3779E+05 -3.9301E+03   1.4172E+05  0.000E+00  0.000E+00  0.000E+00  4.36655E+01  1.768E-01  2.000E+01  2.000E+04 -1.965E-01
   1   16   12     1    12    1.4172E+05 -5.2036E+03   1.4692E+05  0.000E+00  0.000E+00  0.000E+00  4.31916E+01  1.803E-01  2.000E+01  2.000E+04 -2.602E-01
   1   15   13     1    13    1.4692E+05 -5.2217E+03   1.5214E+05  0.000E+00  0.000E+00  0.000E+00  4.27182E+01  1.841E-01  2.000E+01  2.000E+04 -2.611E-01
   1   14   14     1    14    1.5214E+05 -5.3979E+03   1.5754E+05  0.000E+00  0.000E+00  0.000E+00  4.22449E+01  1.880E-01  2.000E+01  2.000E+04 -2.699E-01
   1   13   15     1    15    1.5754E+05 -5.6970E+03   1.6324E+05  0.000E+00  0.000E+00  0.000E+00  4.17716E+01  1.921E-01  2.000E+01  2.000E+04 -2.849E-01
   1   12   16     1    16    1.6324E+05 -6.8597E+03   1.7010E+05  0.000E+00  0.000E+00  0.000E+00  4.12988E+01  1.965E-01  2.000E+01  2.000E+04 -3.430E-01
   1   12   17     1    17    1.7010E+05 -4.5679E+03   1.7466E+05  0.000E+00  0.000E+00  0.000E+00  4.08255E+01  2.005E-01  2.000E+01  2.000E+04 -2.284E-01
   1   12   18     1    18    1.7466E+05 -4.3982E+03   1.7906E+05  0.000E+00  0.000E+00  0.000E+00  4.03514E+01  2.037E-01  2.000E+01  2.000E+04 -2.199E-01
   1   12   19     1    19    1.7906E+05 -5.6507E+03   1.8471E+05  0.000E+00  0.000E+00  0.000E+00  3.98776E+01  2.071E-01  2.000E+01  2.000E+04 -2.825E-01
   1   13   20     1    20    1.8471E+05 -4.0387E+03   1.8875E+05  0.000E+00  0.000E+00  0.000E+00  3.94036E+01  2.104E-01  2.000E+01  2.000E+04 -2.019E-01
   1   14   21     1    21    1.8875E+05 -3.2059E+03   1.9196E+05  0.000E+00  0.000E+00  0.000E+00  3.89288E+01  2.128E-01  2.000E+01  2.000E+04 -1.603E-01
   1   14   22     1    22    1.9196E+05  4.8697E+03   1.8709E+05  0.000E+00  0.000E+00  0.000E+00  3.84509E+01  2.123E-01  2.000E+01  2.000E+04  2.435E-01
   1    9   30     2     1    5.0000E+04 -3.4583E+03   5.3458E+04  0.000E+00  0.000E+00  0.000E+00  4.02433E+01  1.183E-01  2.000E+01  2.000E+04 -1.729E-01
   1    9   29     2     2    5.3458E+04 -3.7824E+03   5.7241E+04  0.000E+00  0.000E+00  0.000E+00  3.99982E+01  1.232E-01  2.000E+01  2.000E+04 -1.891E-01
   1    9   28     2     3    5.7241E+04 -4.1582E+03   6.1399E+04  0.000E+00  0.000E+00  0.000E+00  3.97534E+01  1.284E-01  2.000E+01  2.000E+04 -2.079E-01
   1    9   27     2     4    6.1399E+04 -7.1649E+03   6.8564E+04  0.000E+00  0.000E+00  0.000E+00  3.95106E+01  1.356E-01  2.000E+01  2.000E+04 -3.582E-01
   1   10   26     2     5    6.8564E+04 -4.8356E+03   7.3399E+04  0.000E+00  0.000E+00  0.000E+00  3.92680E+01  1.430E-01  2.000E+01  2.000E+04 -2.418E-01
   1   11   25     2     6    7.3399E+04 -3.7400E+03   7.7139E+04  0.000E+00  0.000E+00  0.000E+00  3.90231E+01  1.481E-01  2.000E+01  2.000E+04 -1.870E-01
   1   12   24     2     7    7.7139E+04 -2.7500E+03   7.9889E+04  0.000E+00  0.000E+00  0.000E+00  3.87769E+01  1.519E-01  2.000E+01  2.000E+04 -1.375E-01
   1   13   23     2     8    7.9889E+04 -1.7108E+03   8.1600E+04  0.000E+00  0.000E+00  0.000E+00  3.85295E+01  1.545E-01  2.000E+01  2.000E+04 -8.554E-02
   1   14   22     2     9    8.1600E+04  1.4437E+03   8.0157E+04  0.000E+00  0.000E+00  0.000E+00  3.82796E+01  1.546E-01  2.000E+01  2.000E+04  7.218E-02
   1   14   22     3     1    2.6724E+05 -8.6658E+03   2.7591E+05  0.000E+00  0.000E+00  0.000E+00  3.77741E+01  2.186E-01  2.000E+01  2.000E+04 -4.333E-01
   1   15   23     3     2    2.7591E+05 -3.7118E+03   2.7962E+05  0.000E+00  0.000E+00  0.000E+00  3.68882E+01  2.216E-01  2.000E+01  2.000E+04 -1.856E-01
   1   15   24     3     3    2.7962E+05 -2.5327E+03   2.8215E+05  0.000E+00  0.000E+00  0.000E+00  3.60008E+01  2.231E-01  2.000E+01  2.000E+04 -1.266E-01
   1   15   25     3     4    2.8215E+05 -2.4210E+03   2.8457E+05  0.000E+00  0.000E+00  0.000E+00  3.51131E+01  2.242E-01  2.000E+01  2.000E+04 -1.210E-01
   1   15   26     3     5    2.8457E+05 -3.0016E+03   2.8758E+05  0.000E+00  0.000E+00  0.000E+00  3.42255E+01  2.255E-01  2.000E+01  2.000E+04 -1.501E-01
   1   16   27     3     6    2.8758E+05 -4.1136E+03   2.9169E+05  0.000E+00  0.000E+00  0.000E+00  3.33383E+01  2.272E-01  2.000E+01  2.000E+04 -2.057E-01
   1   17   28     3     7    2.9169E+05 -4.9287E+03   2.9662E+05  0.000E+00  0.000E+00  0.000E+00  3.24515E+01  2.293E-01  2.000E+01  2.000E+04 -2.464E-01
   1   18   29     3     8    2.9662E+05 -6.5017E+03   3.0312E+05  0.000E+00  0.000E+00  0.000E+00  3.15653E+01  2.320E-01  2.000E+01  2.000E+04 -3.251E-01
   1   18   30     3     9    3.0312E+05 -5.3888E+03   3.0851E+05  0.000E+00  0.000E+00  0.000E+00  3.06792E+01  2.347E-01  2.000E+01  2.000E+04 -2.694E-01



1
              HEAD IN LAYER   1 AT END OF TIME STEP   1 IN STRESS PERIOD    2
  ---------------------------------------------------------------------------

          1      2      3      4      5      6      7      8      9     10
         11     12     13     14     15     16     17     18     19     20
         21     22     23     24     25     26     27     28     29     30
 .........................................................................
   1  ****** ****** ****** ****** ****** ****** ****** ****** ****** ******
      ****** ****** ****** ****** ****** ****** ****** ****** ****** ******
      ****** ****** ****** ****** ****** ****** ****** ****** ****** ******
   2  ****** ****** ****** ****** ****** ****** ****** ****** ****** ******
      ****** ****** ****** ****** ****** ****** ****** ****** ****** ******
      ****** ****** ****** ****** ****** ****** ****** ****** ****** ******
   3  ****** ****** ****** ****** ****** ****** ****** ****** ****** ******
      ****** ****** ****** ****** ****** ****** ****** ****** ****** ******
      ****** ****** ****** ****** ****** ****** ****** ****** ****** ******
   4  ****** ****** ****** ****** ****** ****** ****** ****** ****** ******
      ****** ****** ****** ****** ****** ****** ****** ****** ****** ******
      ****** ****** ****** ****** ****** ****** ****** ****** ****** ******
   5  ****** ****** ****** ****** ****** ****** ****** ****** ****** ******
      ****** ****** ****** ****** ****** ****** ****** ****** ****** ******
      ****** ****** ****** ****** ****** ****** ****** ****** ****** ******
   6  ****** ****** ****** ****** ****** ****** ****** ****** ****** ******
      ****** ****** ****** ****** ****** ****** ****** ****** ****** ******
      ****** ****** ****** ****** ****** ****** ****** ****** ****** ******
   7  ****** ****** ****** ****** ****** ****** ****** ****** ****** ******
      ****** ****** ****** ****** ****** ****** ****** ****** ****** ******
      ****** ****** ****** ****** ****** ****** ****** ****** ****** ******
   8  ****** ****** ****** ****** ****** ****** ****** ****** ****** ******
      ****** ****** ****** ****** ****** ****** ****** ****** ****** ******
      ****** ****** ****** ****** ****** ****** ****** ****** ****** ******
   9  ****** ****** ****** ****** ****** ****** ****** ****** ****** ******
      ****** ****** ****** ****** ****** ****** ****** ****** ****** ******
      ****** ****** ****** ****** ****** ****** ****** ****** ****** ******
  10  ****** ****** ****** ****** ****** ****** ****** ****** ****** ******
      ****** ****** ****** ****** ****** ****** ****** ****** ****** ******
      ****** ****** ****** ****** ****** ****** ****** ****** ****** ******
  11  ****** ****** ****** ****** ****** ****** ****** ****** ****** ******
      ****** ****** ****** ****** ****** ****** ****** ****** ****** ******
      ****** ****** ****** ****** ****** ****** ****** ****** ****** ******
  12  ****** ****** ****** ****** ****** ****** ****** ****** ****** ******
      ****** ****** ****** ****** ****** ****** ****** ****** ****** ******
      ****** ****** ****** ****** ****** ****** ****** ****** ****** ******
  13  ****** ****** ****** ****** ****** ****** ****** ****** ****** ******
      ****** ****** ****** ****** ****** ****** ****** ****** ****** ******
      ****** ****** ****** ****** ****** ****** ****** ****** ****** ******
  14  ****** ****** ****** ****** ****** ****** ****** ****** ****** ******
      ****** ****** ****** ****** ****** ****** ****** ****** ****** ******
      ****** ****** ****** ****** ****** ****** ****** ****** ****** ******
  15  ****** ****** ****** ****** ****** ****** ****** ****** ****** ******
      ****** ****** ****** ****** ****** ****** ****** ****** ****** ******
      ****** ****** ****** ****** ****** ****** ****** ****** ****** ******
  16  ****** ****** ****** ****** ****** ****** ****** ****** ****** ******
      ****** ****** ****** ****** ****** ****** ****** ****** ****** ******
      ****** ****** ****** ****** ****** ****** ****** ****** ****** ******
  17  ****** ****** ****** ****** ****** ****** ****** ****** ****** ******
      ****** ****** ****** ****** ****** ****** ****** ****** ****** ******
      ****** ****** ****** ****** ****** ****** ****** ****** ****** ******
  18  ****** ****** ****** ****** ****** ****** ****** ****** ****** ******
      ****** ****** ****** ****** ****** ****** ****** ****** ****** ******
      ****** ****** ****** ****** ****** ****** ****** ****** ****** ******
  19  ****** ****** ****** ****** ****** ****** ****** ****** ****** ******
      ****** ****** ****** ****** ****** ****** ****** ****** ****** ******
      ****** ****** ****** ****** ****** ****** ****** ****** ****** ******
  20  ****** ****** ****** ****** ****** ****** ****** ****** ****** ******
      ****** ****** ****** ****** ****** ****** ****** ****** ****** ******
      ****** ****** ****** ****** ****** ****** ****** ****** ****** ******
  21  ****** ****** ****** ****** ****** ****** ****** ****** ****** ******
      ****** ****** ****** ****** ****** ****** ****** ****** ****** ******
      ****** ****** ****** ****** ****** ****** ****** ****** ****** ******
  22  ****** ****** ****** ****** ****** ****** ****** ****** ****** ******
      ****** ****** ****** ****** ****** ****** ****** ****** ****** ******
      ****** ****** ****** ****** ****** ****** ****** ****** ****** ******
  23  ****** ****** ****** ****** ****** ****** ****** ****** ****** ******
      ****** ****** ****** ****** ****** ****** ****** ****** ****** ******
      ****** ****** ****** ****** ****** ****** ****** ****** ****** ******
  24  ****** ****** ****** ****** ****** ****** ****** ****** ****** ******
      ****** ****** ****** ****** ****** ****** ****** ****** ****** ******
      ****** ****** ****** ****** ****** ****** ****** ****** ****** ******
  25  ****** ****** ****** ****** ****** ****** ****** ****** ****** ******
      ****** ****** ****** ****** ****** ****** ****** ****** ****** ******
      ****** ****** ****** ****** ****** ****** ****** ****** ****** ******

 HEAD WILL BE SAVED ON UNIT   51 AT END OF TIME STEP    1, STRESS PERIOD    2
1
  VOLUMETRIC BUDGET FOR ENTIRE MODEL AT END OF TIME STEP    1, STRESS PERIOD   2
  ------------------------------------------------------------------------------

     CUMULATIVE VOLUMES      L**3       RATES FOR THIS TIME STEP      L**3/T
     ------------------                 ------------------------

           IN:                                      IN:
           ---                                      ---
             STORAGE =    18648084.0428               STORAGE =       28833.6942
       CONSTANT HEAD =    18511268.2481         CONSTANT HEAD =      107620.1219
               WELLS =           0.0000                 WELLS =           0.0000
            RECHARGE =     6292800.0000              RECHARGE =       55200.0000
      STREAM LEAKAGE =     1034689.2209        STREAM LEAKAGE =        6313.3828

            TOTAL IN =    44486841.5119              TOTAL IN =      197967.1989

          OUT:                                     OUT:
          ----                                     ----
             STORAGE =           0.0000               STORAGE =           0.0000
       CONSTANT HEAD =           0.0000         CONSTANT HEAD =           0.0000
               WELLS =     6065468.3217                 WELLS =       33144.6356
            RECHARGE =           0.0000              RECHARGE =           0.0000
      STREAM LEAKAGE =    38421373.7939        STREAM LEAKAGE =      164822.5684

           TOTAL OUT =    44486842.1157             TOTAL OUT =      197967.2041

            IN - OUT =          -0.6038              IN - OUT =      -5.1151E-03

 PERCENT DISCREPANCY =          -0.00     PERCENT DISCREPANCY =          -0.00






         TIME SUMMARY AT END OF TIME STEP    1 IN STRESS PERIOD    2
                    SECONDS     MINUTES      HOURS       DAYS        YEARS
                    -----------------------------------------------------------
   TIME STEP LENGTH 7.86240E+06 1.31040E+05  2184.0      91.000     0.24914    
 STRESS PERIOD TIME 7.86240E+06 1.31040E+05  2184.0      91.000     0.24914    
         TOTAL TIME 1.58112E+07 2.63520E+05  4392.0      183.00     0.50103    
1
1
                            STRESS PERIOD NO.    3, LENGTH =   91.00000    
                            -----------------------------------------------

                              NUMBER OF TIME STEPS =     1

                               MULTIPLIER FOR DELT =     1.500

                            INITIAL TIME STEP SIZE =   91.00000    

 WELL NO.  LAYER   ROW   COL   STRESS RATE         
 --------------------------------------------------
      1      1     23     10     -0.1134E+05
      2      1     17      3     -0.1036E+05
      3      1     23     22     -0.1145E+05

      3 WELLS

                 RECHARGE =   0.00000    

 REUSING STREAM SEGMENT DATA FROM LAST STRESS PERIOD
 
 SOLVING FOR HEAD 


     7 CALLS TO PCG ROUTINE FOR TIME STEP   1 IN STRESS PERIOD    3
    27 TOTAL ITERATIONS

 OUTPUT CONTROL FOR STRESS PERIOD    3   TIME STEP    1
    SAVE BUDGET
    SAVE HEAD FOR ALL LAYERS
    PRINT HEAD FOR ALL LAYERS
 UBDSV2 SAVING "STREAMFLOW OUT  " ON UNIT  50 AT TIME STEP  1, STRESS PERIOD   3



 STREAM LISTING     PERIOD      3   STEP        1

 LAYER ROW COL. STREAM  RCH.  FLOW INTO     FLOW TO   FLOW OUT OF   OVRLND.     DIRECT     STREAM       STREAM     STREAM     STREAM   STREAMBED  STREAMBED
                SEG.NO.  NO.  STRM. RCH.    AQUIFER    STRM. RCH.    RUNOFF     PRECIP       ET          HEAD       DEPTH      WIDTH   CONDCTNC.   GRADIENT

   1   13    1     1     1    1.0000E+05 -2.3475E+03   1.0235E+05  0.000E+00  0.000E+00  0.000E+00  4.84070E+01  1.457E-01  2.000E+01  2.000E+04 -1.174E-01
   1   13    2     1     2    1.0235E+05 -4.4699E+03   1.0682E+05  0.000E+00  0.000E+00  0.000E+00  4.79327E+01  1.486E-01  2.000E+01  2.000E+04 -2.235E-01
   1   14    3     1     3    1.0682E+05 -2.5498E+03   1.0937E+05  0.000E+00  0.000E+00  0.000E+00  4.74584E+01  1.516E-01  2.000E+01  2.000E+04 -1.275E-01
   1   15    4     1     4    1.0937E+05 -1.6481E+03   1.1102E+05  0.000E+00  0.000E+00  0.000E+00  4.69829E+01  1.533E-01  2.000E+01  2.000E+04 -8.241E-02
   1   16    5     1     5    1.1102E+05 -1.7296E+03   1.1274E+05  0.000E+00  0.000E+00  0.000E+00  4.65070E+01  1.547E-01  2.000E+01  2.000E+04 -8.648E-02
   1   16    6     1     6    1.1274E+05 -2.5308E+03   1.1528E+05  0.000E+00  0.000E+00  0.000E+00  4.60315E+01  1.565E-01  2.000E+01  2.000E+04 -1.265E-01
   1   16    7     1     7    1.1528E+05 -2.8550E+03   1.1813E+05  0.000E+00  0.000E+00  0.000E+00  4.55564E+01  1.587E-01  2.000E+01  2.000E+04 -1.428E-01
   1   16    8     1     8    1.1813E+05 -3.0004E+03   1.2113E+05  0.000E+00  0.000E+00  0.000E+00  4.50815E+01  1.611E-01  2.000E+01  2.000E+04 -1.500E-01
   1   16    9     1     9    1.2113E+05 -3.0520E+03   1.2418E+05  0.000E+00  0.000E+00  0.000E+00  4.46067E+01  1.635E-01  2.000E+01  2.000E+04 -1.526E-01
   1   16   10     1    10    1.2418E+05 -3.0477E+03   1.2723E+05  0.000E+00  0.000E+00  0.000E+00  4.41318E+01  1.659E-01  2.000E+01  2.000E+04 -1.524E-01
   1   16   11     1    11    1.2723E+05 -3.0268E+03   1.3026E+05  0.000E+00  0.000E+00  0.000E+00  4.36570E+01  1.683E-01  2.000E+01  2.000E+04 -1.513E-01
   1   16   12     1    12    1.3026E+05 -4.0197E+03   1.3428E+05  0.000E+00  0.000E+00  0.000E+00  4.31824E+01  1.711E-01  2.000E+01  2.000E+04 -2.010E-01
   1   15   13     1    13    1.3428E+05 -3.9216E+03   1.3820E+05  0.000E+00  0.000E+00  0.000E+00  4.27082E+01  1.741E-01  2.000E+01  2.000E+04 -1.961E-01
   1   14   14     1    14    1.3820E+05 -4.0653E+03   1.4226E+05  0.000E+00  0.000E+00  0.000E+00  4.22340E+01  1.772E-01  2.000E+01  2.000E+04 -2.033E-01
   1   13   15     1    15    1.4226E+05 -4.3936E+03   1.4666E+05  0.000E+00  0.000E+00  0.000E+00  4.17599E+01  1.804E-01  2.000E+01  2.000E+04 -2.197E-01
   1   12   16     1    16    1.4666E+05 -5.6116E+03   1.5227E+05  0.000E+00  0.000E+00  0.000E+00  4.12864E+01  1.841E-01  2.000E+01  2.000E+04 -2.806E-01
   1   12   17     1    17    1.5227E+05 -3.6659E+03   1.5594E+05  0.000E+00  0.000E+00  0.000E+00  4.08125E+01  1.875E-01  2.000E+01  2.000E+04 -1.833E-01
   1   12   18     1    18    1.5594E+05 -3.5170E+03   1.5945E+05  0.000E+00  0.000E+00  0.000E+00  4.03378E+01  1.901E-01  2.000E+01  2.000E+04 -1.759E-01
   1   12   19     1    19    1.5945E+05 -4.5779E+03   1.6403E+05  0.000E+00  0.000E+00  0.000E+00  3.98635E+01  1.930E-01  2.000E+01  2.000E+04 -2.289E-01
   1   13   20     1    20    1.6403E+05 -3.0079E+03   1.6704E+05  0.000E+00  0.000E+00  0.000E+00  3.93889E+01  1.957E-01  2.000E+01  2.000E+04 -1.504E-01
   1   14   21     1    21    1.6704E+05 -2.2313E+03   1.6927E+05  0.000E+00  0.000E+00  0.000E+00  3.89135E+01  1.976E-01  2.000E+01  2.000E+04 -1.116E-01
   1   14   22     1    22    1.6927E+05  5.0270E+03   1.6424E+05  0.000E+00  0.000E+00  0.000E+00  3.84352E+01  1.966E-01  2.000E+01  2.000E+04  2.514E-01
   1    9   30     2     1    5.0000E+04 -2.6915E+03   5.2692E+04  0.000E+00  0.000E+00  0.000E+00  4.02427E+01  1.177E-01  2.000E+01  2.000E+04 -1.346E-01
   1    9   29     2     2    5.2692E+04 -3.0257E+03   5.5717E+04  0.000E+00  0.000E+00  0.000E+00  3.99966E+01  1.216E-01  2.000E+01  2.000E+04 -1.513E-01
   1    9   28     2     3    5.5717E+04 -3.4126E+03   5.9130E+04  0.000E+00  0.000E+00  0.000E+00  3.97509E+01  1.259E-01  2.000E+01  2.000E+04 -1.706E-01
   1    9   27     2     4    5.9130E+04 -6.1578E+03   6.5288E+04  0.000E+00  0.000E+00  0.000E+00  3.95071E+01  1.321E-01  2.000E+01  2.000E+04 -3.079E-01
   1   10   26     2     5    6.5288E+04 -3.7704E+03   6.9058E+04  0.000E+00  0.000E+00  0.000E+00  3.92633E+01  1.383E-01  2.000E+01  2.000E+04 -1.885E-01
   1   11   25     2     6    6.9058E+04 -2.7246E+03   7.1783E+04  0.000E+00  0.000E+00  0.000E+00  3.90173E+01  1.423E-01  2.000E+01  2.000E+04 -1.362E-01
   1   12   24     2     7    7.1783E+04 -1.8787E+03   7.3661E+04  0.000E+00  0.000E+00  0.000E+00  3.87701E+01  1.451E-01  2.000E+01  2.000E+04 -9.394E-02
   1   13   23     2     8    7.3661E+04 -1.0672E+03   7.4728E+04  0.000E+00  0.000E+00  0.000E+00  3.85218E+01  1.468E-01  2.000E+01  2.000E+04 -5.336E-02
   1   14   22     2     9    7.4728E+04  1.7507E+03   7.2978E+04  0.000E+00  0.000E+00  0.000E+00  3.82714E+01  1.464E-01  2.000E+01  2.000E+04  8.754E-02
   1   14   22     3     1    2.3722E+05 -8.4923E+03   2.4571E+05  0.000E+00  0.000E+00  0.000E+00  3.77593E+01  2.037E-01  2.000E+01  2.000E+04 -4.246E-01
   1   15   23     3     2    2.4571E+05 -2.8118E+03   2.4852E+05  0.000E+00  0.000E+00  0.000E+00  3.68732E+01  2.066E-01  2.000E+01  2.000E+04 -1.406E-01
   1   15   24     3     3    2.4852E+05 -1.9216E+03   2.5045E+05  0.000E+00  0.000E+00  0.000E+00  3.59855E+01  2.077E-01  2.000E+01  2.000E+04 -9.608E-02
   1   15   25     3     4    2.5045E+05 -1.8127E+03   2.5226E+05  0.000E+00  0.000E+00  0.000E+00  3.50976E+01  2.087E-01  2.000E+01  2.000E+04 -9.063E-02
   1   15   26     3     5    2.5226E+05 -2.1774E+03   2.5444E+05  0.000E+00  0.000E+00  0.000E+00  3.42097E+01  2.097E-01  2.000E+01  2.000E+04 -1.089E-01
   1   16   27     3     6    2.5444E+05 -3.0617E+03   2.5750E+05  0.000E+00  0.000E+00  0.000E+00  3.33221E+01  2.110E-01  2.000E+01  2.000E+04 -1.531E-01
   1   17   28     3     7    2.5750E+05 -3.8668E+03   2.6136E+05  0.000E+00  0.000E+00  0.000E+00  3.24349E+01  2.127E-01  2.000E+01  2.000E+04 -1.933E-01
   1   18   29     3     8    2.6136E+05 -5.5370E+03   2.6690E+05  0.000E+00  0.000E+00  0.000E+00  3.15483E+01  2.150E-01  2.000E+01  2.000E+04 -2.768E-01
   1   18   30     3     9    2.6690E+05 -4.6715E+03   2.7157E+05  0.000E+00  0.000E+00  0.000E+00  3.06619E+01  2.175E-01  2.000E+01  2.000E+04 -2.336E-01



1
              HEAD IN LAYER   1 AT END OF TIME STEP   1 IN STRESS PERIOD    3
  ---------------------------------------------------------------------------

          1      2      3      4      5      6      7      8      9     10
         11     12     13     14     15     16     17     18     19     20
         21     22     23     24     25     26     27     28     29     30
 .........................................................................
   1  ****** ****** ****** ****** ****** ****** ****** ****** ****** ******
      ****** ****** ****** ****** ****** ****** ****** ****** ****** ******
      ****** ****** ****** ****** ****** ****** ****** ****** ****** ******
   2  ****** ****** ****** ****** ****** ****** ****** ****** ****** ******
      ****** ****** ****** ****** ****** ****** ****** ****** ****** ******
      ****** ****** ****** ****** ****** ****** ****** ****** ****** ******
   3  ****** ****** ****** ****** ****** ****** ****** ****** ****** ******
      ****** ****** ****** ****** ****** ****** ****** ****** ****** ******
      ****** ****** ****** ****** ****** ****** ****** ****** ****** ******
   4  ****** ****** ****** ****** ****** ****** ****** ****** ****** ******
      ****** ****** ****** ****** ****** ****** ****** ****** ****** ******
      ****** ****** ****** ****** ****** ****** ****** ****** ****** ******
   5  ****** ****** ****** ****** ****** ****** ****** ****** ****** ******
      ****** ****** ****** ****** ****** ****** ****** ****** ****** ******
      ****** ****** ****** ****** ****** ****** ****** ****** ****** ******
   6  ****** ****** ****** ****** ****** ****** ****** ****** ****** ******
      ****** ****** ****** ****** ****** ****** ****** ****** ****** ******
      ****** ****** ****** ****** ****** ****** ****** ****** ****** ******
   7  ****** ****** ****** ****** ****** ****** ****** ****** ****** ******
      ****** ****** ****** ****** ****** ****** ****** ****** ****** ******
      ****** ****** ****** ****** ****** ****** ****** ****** ****** ******
   8  ****** ****** ****** ****** ****** ****** ****** ****** ****** ******
      ****** ****** ****** ****** ****** ****** ****** ****** ****** ******
      ****** ****** ****** ****** ****** ****** ****** ****** ****** ******
   9  ****** ****** ****** ****** ****** ****** ****** ****** ****** ******
      ****** ****** ****** ****** ****** ****** ****** ****** ****** ******
      ****** ****** ****** ****** ****** ****** ****** ****** ****** ******
  10  ****** ****** ****** ****** ****** ****** ****** ****** ****** ******
      ****** ****** ****** ****** ****** ****** ****** ****** ****** ******
      ****** ****** ****** ****** ****** ****** ****** ****** ****** ******
  11  ****** ****** ****** ****** ****** ****** ****** ****** ****** ******
      ****** ****** ****** ****** ****** ****** ****** ****** ****** ******
      ****** ****** ****** ****** ****** ****** ****** ****** ****** ******
  12  ****** ****** ****** ****** ****** ****** ****** ****** ****** ******
      ****** ****** ****** ****** ****** ****** ****** ****** ****** ******
      ****** ****** ****** ****** ****** ****** ****** ****** ****** ******
  13  ****** ****** ****** ****** ****** ****** ****** ****** ****** ******
      ****** ****** ****** ****** ****** ****** ****** ****** ****** ******
      ****** ****** ****** ****** ****** ****** ****** ****** ****** ******
  14  ****** ****** ****** ****** ****** ****** ****** ****** ****** ******
      ****** ****** ****** ****** ****** ****** ****** ****** ****** ******
      ****** ****** ****** ****** ****** ****** ****** ****** ****** ******
  15  ****** ****** ****** ****** ****** ****** ****** ****** ****** ******
      ****** ****** ****** ****** ****** ****** ****** ****** ****** ******
      ****** ****** ****** ****** ****** ****** ****** ****** ****** ******
  16  ****** ****** ****** ****** ****** ****** ****** ****** ****** ******
      ****** ****** ****** ****** ****** ****** ****** ****** ****** ******
      ****** ****** ****** ****** ****** ****** ****** ****** ****** ******
  17  ****** ****** ****** ****** ****** ****** ****** ****** ****** ******
      ****** ****** ****** ****** ****** ****** ****** ****** ****** ******
      ****** ****** ****** ****** ****** ****** ****** ****** ****** ******
  18  ****** ****** ****** ****** ****** ****** ****** ****** ****** ******
      ****** ****** ****** ****** ****** ****** ****** ****** ****** ******
      ****** ****** ****** ****** ****** ****** ****** ****** ****** ******
  19  ****** ****** ****** ****** ****** ****** ****** ****** ****** ******
      ****** ****** ****** ****** ****** ****** ****** ****** ****** ******
      ****** ****** ****** ****** ****** ****** ****** ****** ****** ******
  20  ****** ****** ****** ****** ****** ****** ****** ****** ****** ******
      ****** ****** ****** ****** ****** ****** ****** ****** ****** ******
      ****** ****** ****** ****** ****** ****** ****** ****** ****** ******
  21  ****** ****** ****** ****** ****** ****** ****** ****** ****** ******
      ****** ****** ****** ****** ****** ****** ****** ****** ****** ******
      ****** ****** ****** ****** ****** ****** ****** ****** ****** ******
  22  ****** ****** ****** ****** ****** ****** ****** ****** ****** ******
      ****** ****** ****** ****** ****** ****** ****** ****** ****** ******
      ****** ****** ****** ****** ****** ****** ****** ****** ****** ******
  23  ****** ****** ****** ****** ****** ****** ****** ****** ****** ******
      ****** ****** ****** ****** ****** ****** ****** ****** ****** ******
      ****** ****** ****** ****** ****** ****** ****** ****** ****** ******
  24  ****** ****** ****** ****** ****** ****** ****** ****** ****** ******
      ****** ****** ****** ****** ****** ****** ****** ****** ****** ******
      ****** ****** ****** ****** ****** ****** ****** ****** ****** ******
  25  ****** ****** ****** ****** ****** ****** ****** ****** ****** ******
      ****** ****** ****** ****** ****** ****** ****** ****** ****** ******
      ****** ****** ****** ****** ****** ****** ****** ****** ****** ******

 HEAD WILL BE SAVED ON UNIT   51 AT END OF TIME STEP    1, STRESS PERIOD    3
1
  VOLUMETRIC BUDGET FOR ENTIRE MODEL AT END OF TIME STEP    1, STRESS PERIOD   3
  ------------------------------------------------------------------------------

     CUMULATIVE VOLUMES      L**3       RATES FOR THIS TIME STEP      L**3/T
     ------------------                 ------------------------

           IN:                                      IN:
           ---                                      ---
             STORAGE =    20904787.2108               STORAGE =       24798.9359
       CONSTANT HEAD =    30333857.3475         CONSTANT HEAD =      129918.5615
               WELLS =           0.0000                 WELLS =           0.0000
            RECHARGE =     6292800.0000              RECHARGE =           0.0000
      STREAM LEAKAGE =     1651463.0438        STREAM LEAKAGE =        6777.7343

            TOTAL IN =    59182907.6021              TOTAL IN =      161495.2318

          OUT:                                     OUT:
          ----                                     ----
             STORAGE =           0.0000               STORAGE =           0.0000
       CONSTANT HEAD =           0.0000         CONSTANT HEAD =           0.0000
               WELLS =     9081630.1648                 WELLS =       33144.6356
            RECHARGE =           0.0000              RECHARGE =           0.0000
      STREAM LEAKAGE =    50101278.2795        STREAM LEAKAGE =      128350.5987

           TOTAL OUT =    59182908.4443             TOTAL OUT =      161495.2344

            IN - OUT =          -0.8422              IN - OUT =      -2.6194E-03

 PERCENT DISCREPANCY =          -0.00     PERCENT DISCREPANCY =          -0.00






         TIME SUMMARY AT END OF TIME STEP    1 IN STRESS PERIOD    3
                    SECONDS     MINUTES      HOURS       DAYS        YEARS
                    -----------------------------------------------------------
   TIME STEP LENGTH 7.86240E+06 1.31040E+05  2184.0      91.000     0.24914    
 STRESS PERIOD TIME 7.86240E+06 1.31040E+05  2184.0      91.000     0.24914    
         TOTAL TIME 2.36736E+07 3.94560E+05  6576.0      274.00     0.75017    
1
1
                            STRESS PERIOD NO.    4, LENGTH =   91.00000    
                            -----------------------------------------------

                              NUMBER OF TIME STEPS =     1

                               MULTIPLIER FOR DELT =     1.500

                            INITIAL TIME STEP SIZE =   91.00000    

 WELL NO.  LAYER   ROW   COL   STRESS RATE         
 --------------------------------------------------
      1      1     23     10     -0.1134E+05
      2      1     17      3     -0.1036E+05
      3      1     23     22     -0.1145E+05

      3 WELLS

                 RECHARGE =  1.000000E-03

 REUSING STREAM SEGMENT DATA FROM LAST STRESS PERIOD
 
 SOLVING FOR HEAD 


     6 CALLS TO PCG ROUTINE FOR TIME STEP   1 IN STRESS PERIOD    4
    21 TOTAL ITERATIONS

 OUTPUT CONTROL FOR STRESS PERIOD    4   TIME STEP    1
    SAVE BUDGET
    SAVE HEAD FOR ALL LAYERS
    PRINT HEAD FOR ALL LAYERS
 UBDSV2 SAVING "STREAMFLOW OUT  " ON UNIT  50 AT TIME STEP  1, STRESS PERIOD   4



 STREAM LISTING     PERIOD      4   STEP        1

 LAYER ROW COL. STREAM  RCH.  FLOW INTO     FLOW TO   FLOW OUT OF   OVRLND.     DIRECT     STREAM       STREAM     STREAM     STREAM   STREAMBED  STREAMBED
                SEG.NO.  NO.  STRM. RCH.    AQUIFER    STRM. RCH.    RUNOFF     PRECIP       ET          HEAD       DEPTH      WIDTH   CONDCTNC.   GRADIENT

   1   13    1     1     1    1.0000E+05 -2.3656E+03   1.0237E+05  0.000E+00  0.000E+00  0.000E+00  4.84070E+01  1.457E-01  2.000E+01  2.000E+04 -1.183E-01
   1   13    2     1     2    1.0237E+05 -4.4600E+03   1.0683E+05  0.000E+00  0.000E+00  0.000E+00  4.79327E+01  1.486E-01  2.000E+01  2.000E+04 -2.230E-01
   1   14    3     1     3    1.0683E+05 -2.5885E+03   1.0941E+05  0.000E+00  0.000E+00  0.000E+00  4.74584E+01  1.516E-01  2.000E+01  2.000E+04 -1.294E-01
   1   15    4     1     4    1.0941E+05 -1.7004E+03   1.1111E+05  0.000E+00  0.000E+00  0.000E+00  4.69829E+01  1.534E-01  2.000E+01  2.000E+04 -8.502E-02
   1   16    5     1     5    1.1111E+05 -1.7851E+03   1.1290E+05  0.000E+00  0.000E+00  0.000E+00  4.65071E+01  1.548E-01  2.000E+01  2.000E+04 -8.925E-02
   1   16    6     1     6    1.1290E+05 -2.5764E+03   1.1548E+05  0.000E+00  0.000E+00  0.000E+00  4.60316E+01  1.566E-01  2.000E+01  2.000E+04 -1.288E-01
   1   16    7     1     7    1.1548E+05 -2.8986E+03   1.1837E+05  0.000E+00  0.000E+00  0.000E+00  4.55566E+01  1.589E-01  2.000E+01  2.000E+04 -1.449E-01
   1   16    8     1     8    1.1837E+05 -3.0429E+03   1.2142E+05  0.000E+00  0.000E+00  0.000E+00  4.50817E+01  1.613E-01  2.000E+01  2.000E+04 -1.521E-01
   1   16    9     1     9    1.2142E+05 -3.0946E+03   1.2451E+05  0.000E+00  0.000E+00  0.000E+00  4.46069E+01  1.638E-01  2.000E+01  2.000E+04 -1.547E-01
   1   16   10     1    10    1.2451E+05 -3.0915E+03   1.2760E+05  0.000E+00  0.000E+00  0.000E+00  4.41321E+01  1.662E-01  2.000E+01  2.000E+04 -1.546E-01
   1   16   11     1    11    1.2760E+05 -3.0721E+03   1.3068E+05  0.000E+00  0.000E+00  0.000E+00  4.36573E+01  1.686E-01  2.000E+01  2.000E+04 -1.536E-01
   1   16   12     1    12    1.3068E+05 -4.0688E+03   1.3474E+05  0.000E+00  0.000E+00  0.000E+00  4.31828E+01  1.714E-01  2.000E+01  2.000E+04 -2.034E-01
   1   15   13     1    13    1.3474E+05 -3.9689E+03   1.3871E+05  0.000E+00  0.000E+00  0.000E+00  4.27086E+01  1.745E-01  2.000E+01  2.000E+04 -1.984E-01
   1   14   14     1    14    1.3871E+05 -4.1062E+03   1.4282E+05  0.000E+00  0.000E+00  0.000E+00  4.22344E+01  1.776E-01  2.000E+01  2.000E+04 -2.053E-01
   1   13   15     1    15    1.4282E+05 -4.4302E+03   1.4725E+05  0.000E+00  0.000E+00  0.000E+00  4.17603E+01  1.808E-01  2.000E+01  2.000E+04 -2.215E-01
   1   12   16     1    16    1.4725E+05 -5.6209E+03   1.5287E+05  0.000E+00  0.000E+00  0.000E+00  4.12868E+01  1.845E-01  2.000E+01  2.000E+04 -2.810E-01
   1   12   17     1    17    1.5287E+05 -3.7046E+03   1.5658E+05  0.000E+00  0.000E+00  0.000E+00  4.08130E+01  1.880E-01  2.000E+01  2.000E+04 -1.852E-01
   1   12   18     1    18    1.5658E+05 -3.5639E+03   1.6014E+05  0.000E+00  0.000E+00  0.000E+00  4.03383E+01  1.906E-01  2.000E+01  2.000E+04 -1.782E-01
   1   12   19     1    19    1.6014E+05 -4.6403E+03   1.6478E+05  0.000E+00  0.000E+00  0.000E+00  3.98640E+01  1.935E-01  2.000E+01  2.000E+04 -2.320E-01
   1   13   20     1    20    1.6478E+05 -3.0999E+03   1.6788E+05  0.000E+00  0.000E+00  0.000E+00  3.93895E+01  1.963E-01  2.000E+01  2.000E+04 -1.550E-01
   1   14   21     1    21    1.6788E+05 -2.3011E+03   1.7018E+05  0.000E+00  0.000E+00  0.000E+00  3.89141E+01  1.982E-01  2.000E+01  2.000E+04 -1.151E-01
   1   14   22     1    22    1.7018E+05  4.9934E+03   1.6519E+05  0.000E+00  0.000E+00  0.000E+00  3.84359E+01  1.973E-01  2.000E+01  2.000E+04  2.497E-01
   1    9   30     2     1    5.0000E+04 -2.8039E+03   5.2804E+04  0.000E+00  0.000E+00  0.000E+00  4.02428E+01  1.178E-01  2.000E+01  2.000E+04 -1.402E-01
   1    9   29     2     2    5.2804E+04 -3.1364E+03   5.5940E+04  0.000E+00  0.000E+00  0.000E+00  3.99968E+01  1.218E-01  2.000E+01  2.000E+04 -1.568E-01
   1    9   28     2     3    5.5940E+04 -3.5192E+03   5.9460E+04  0.000E+00  0.000E+00  0.000E+00  3.97513E+01  1.263E-01  2.000E+01  2.000E+04 -1.760E-01
   1    9   27     2     4    5.9460E+04 -6.2686E+03   6.5728E+04  0.000E+00  0.000E+00  0.000E+00  3.95076E+01  1.326E-01  2.000E+01  2.000E+04 -3.134E-01
   1   10   26     2     5    6.5728E+04 -3.8995E+03   6.9628E+04  0.000E+00  0.000E+00  0.000E+00  3.92639E+01  1.389E-01  2.000E+01  2.000E+04 -1.950E-01
   1   11   25     2     6    6.9628E+04 -2.8546E+03   7.2482E+04  0.000E+00  0.000E+00  0.000E+00  3.90181E+01  1.431E-01  2.000E+01  2.000E+04 -1.427E-01
   1   12   24     2     7    7.2482E+04 -2.0059E+03   7.4488E+04  0.000E+00  0.000E+00  0.000E+00  3.87710E+01  1.460E-01  2.000E+01  2.000E+04 -1.003E-01
   1   13   23     2     8    7.4488E+04 -1.1817E+03   7.5670E+04  0.000E+00  0.000E+00  0.000E+00  3.85229E+01  1.479E-01  2.000E+01  2.000E+04 -5.909E-02
   1   14   22     2     9    7.5670E+04  1.7266E+03   7.3943E+04  0.000E+00  0.000E+00  0.000E+00  3.82725E+01  1.475E-01  2.000E+01  2.000E+04  8.633E-02
   1   14   22     3     1    2.3913E+05 -8.5196E+03   2.4765E+05  0.000E+00  0.000E+00  0.000E+00  3.77602E+01  2.047E-01  2.000E+01  2.000E+04 -4.260E-01
   1   15   23     3     2    2.4765E+05 -2.8805E+03   2.5053E+05  0.000E+00  0.000E+00  0.000E+00  3.68742E+01  2.075E-01  2.000E+01  2.000E+04 -1.440E-01
   1   15   24     3     3    2.5053E+05 -2.0017E+03   2.5253E+05  0.000E+00  0.000E+00  0.000E+00  3.59865E+01  2.088E-01  2.000E+01  2.000E+04 -1.001E-01
   1   15   25     3     4    2.5253E+05 -1.9056E+03   2.5444E+05  0.000E+00  0.000E+00  0.000E+00  3.50986E+01  2.097E-01  2.000E+01  2.000E+04 -9.528E-02
   1   15   26     3     5    2.5444E+05 -2.3048E+03   2.5674E+05  0.000E+00  0.000E+00  0.000E+00  3.42108E+01  2.108E-01  2.000E+01  2.000E+04 -1.152E-01
   1   16   27     3     6    2.5674E+05 -3.1970E+03   2.5994E+05  0.000E+00  0.000E+00  0.000E+00  3.33232E+01  2.121E-01  2.000E+01  2.000E+04 -1.598E-01
   1   17   28     3     7    2.5994E+05 -4.0018E+03   2.6394E+05  0.000E+00  0.000E+00  0.000E+00  3.24361E+01  2.139E-01  2.000E+01  2.000E+04 -2.001E-01
   1   18   29     3     8    2.6394E+05 -5.6564E+03   2.6960E+05  0.000E+00  0.000E+00  0.000E+00  3.15496E+01  2.163E-01  2.000E+01  2.000E+04 -2.828E-01
   1   18   30     3     9    2.6960E+05 -4.7792E+03   2.7438E+05  0.000E+00  0.000E+00  0.000E+00  3.06632E+01  2.188E-01  2.000E+01  2.000E+04 -2.390E-01



1
              HEAD IN LAYER   1 AT END OF TIME STEP   1 IN STRESS PERIOD    4
  ---------------------------------------------------------------------------

          1      2      3      4      5      6      7      8      9     10
         11     12     13     14     15     16     17     18     19     20
         21     22     23     24     25     26     27     28     29     30
 .........................................................................
   1  ****** ****** ****** ****** ****** ****** ****** ****** ****** ******
      ****** ****** ****** ****** ****** ****** ****** ****** ****** ******
      ****** ****** ****** ****** ****** ****** ****** ****** ****** ******
   2  ****** ****** ****** ****** ****** ****** ****** ****** ****** ******
      ****** ****** ****** ****** ****** ****** ****** ****** ****** ******
      ****** ****** ****** ****** ****** ****** ****** ****** ****** ******
   3  ****** ****** ****** ****** ****** ****** ****** ****** ****** ******
      ****** ****** ****** ****** ****** ****** ****** ****** ****** ******
      ****** ****** ****** ****** ****** ****** ****** ****** ****** ******
   4  ****** ****** ****** ****** ****** ****** ****** ****** ****** ******
      ****** ****** ****** ****** ****** ****** ****** ****** ****** ******
      ****** ****** ****** ****** ****** ****** ****** ****** ****** ******
   5  ****** ****** ****** ****** ****** ****** ****** ****** ****** ******
      ****** ****** ****** ****** ****** ****** ****** ****** ****** ******
      ****** ****** ****** ****** ****** ****** ****** ****** ****** ******
   6  ****** ****** ****** ****** ****** ****** ****** ****** ****** ******
      ****** ****** ****** ****** ****** ****** ****** ****** ****** ******
      ****** ****** ****** ****** ****** ****** ****** ****** ****** ******
   7  ****** ****** ****** ****** ****** ****** ****** ****** ****** ******
      ****** ****** ****** ****** ****** ****** ****** ****** ****** ******
      ****** ****** ****** ****** ****** ****** ****** ****** ****** ******
   8  ****** ****** ****** ****** ****** ****** ****** ****** ****** ******
      ****** ****** ****** ****** ****** ****** ****** ****** ****** ******
      ****** ****** ****** ****** ****** ****** ****** ****** ****** ******
   9  ****** ****** ****** ****** ****** ****** ****** ****** ****** ******
      ****** ****** ****** ****** ****** ****** ****** ****** ****** ******
      ****** ****** ****** ****** ****** ****** ****** ****** ****** ******
  10  ****** ****** ****** ****** ****** ****** ****** ****** ****** ******
      ****** ****** ****** ****** ****** ****** ****** ****** ****** ******
      ****** ****** ****** ****** ****** ****** ****** ****** ****** ******
  11  ****** ****** ****** ****** ****** ****** ****** ****** ****** ******
      ****** ****** ****** ****** ****** ****** ****** ****** ****** ******
      ****** ****** ****** ****** ****** ****** ****** ****** ****** ******
  12  ****** ****** ****** ****** ****** ****** ****** ****** ****** ******
      ****** ****** ****** ****** ****** ****** ****** ****** ****** ******
      ****** ****** ****** ****** ****** ****** ****** ****** ****** ******
  13  ****** ****** ****** ****** ****** ****** ****** ****** ****** ******
      ****** ****** ****** ****** ****** ****** ****** ****** ****** ******
      ****** ****** ****** ****** ****** ****** ****** ****** ****** ******
  14  ****** ****** ****** ****** ****** ****** ****** ****** ****** ******
      ****** ****** ****** ****** ****** ****** ****** ****** ****** ******
      ****** ****** ****** ****** ****** ****** ****** ****** ****** ******
  15  ****** ****** ****** ****** ****** ****** ****** ****** ****** ******
      ****** ****** ****** ****** ****** ****** ****** ****** ****** ******
      ****** ****** ****** ****** ****** ****** ****** ****** ****** ******
  16  ****** ****** ****** ****** ****** ****** ****** ****** ****** ******
      ****** ****** ****** ****** ****** ****** ****** ****** ****** ******
      ****** ****** ****** ****** ****** ****** ****** ****** ****** ******
  17  ****** ****** ****** ****** ****** ****** ****** ****** ****** ******
      ****** ****** ****** ****** ****** ****** ****** ****** ****** ******
      ****** ****** ****** ****** ****** ****** ****** ****** ****** ******
  18  ****** ****** ****** ****** ****** ****** ****** ****** ****** ******
      ****** ****** ****** ****** ****** ****** ****** ****** ****** ******
      ****** ****** ****** ****** ****** ****** ****** ****** ****** ******
  19  ****** ****** ****** ****** ****** ****** ****** ****** ****** ******
      ****** ****** ****** ****** ****** ****** ****** ****** ****** ******
      ****** ****** ****** ****** ****** ****** ****** ****** ****** ******
  20  ****** ****** ****** ****** ****** ****** ****** ****** ****** ******
      ****** ****** ****** ****** ****** ****** ****** ****** ****** ******
      ****** ****** ****** ****** ****** ****** ****** ****** ****** ******
  21  ****** ****** ****** ****** ****** ****** ****** ****** ****** ******
      ****** ****** ****** ****** ****** ****** ****** ****** ****** ******
      ****** ****** ****** ****** ****** ****** ****** ****** ****** ******
  22  ****** ****** ****** ****** ****** ****** ****** ****** ****** ******
      ****** ****** ****** ****** ****** ****** ****** ****** ****** ******
      ****** ****** ****** ****** ****** ****** ****** ****** ****** ******
  23  ****** ****** ****** ****** ****** ****** ****** ****** ****** ******
      ****** ****** ****** ****** ****** ****** ****** ****** ****** ******
      ****** ****** ****** ****** ****** ****** ****** ****** ****** ******
  24  ****** ****** ****** ****** ****** ****** ****** ****** ****** ******
      ****** ****** ****** ****** ****** ****** ****** ****** ****** ******
      ****** ****** ****** ****** ****** ****** ****** ****** ****** ******
  25  ****** ****** ****** ****** ****** ****** ****** ****** ****** ******
      ****** ****** ****** ****** ****** ****** ****** ****** ****** ******
      ****** ****** ****** ****** ****** ****** ****** ****** ****** ******

 HEAD WILL BE SAVED ON UNIT   51 AT END OF TIME STEP    1, STRESS PERIOD    4
1
  VOLUMETRIC BUDGET FOR ENTIRE MODEL AT END OF TIME STEP    1, STRESS PERIOD   4
  ------------------------------------------------------------------------------

     CUMULATIVE VOLUMES      L**3       RATES FOR THIS TIME STEP      L**3/T
     ------------------                 ------------------------

           IN:                                      IN:
           ---                                      ---
             STORAGE =    21010709.0090               STORAGE =        1163.9758
       CONSTANT HEAD =    42079504.7177         CONSTANT HEAD =      129073.0480
               WELLS =           0.0000                 WELLS =           0.0000
            RECHARGE =     8804400.0000              RECHARGE =       27600.0000
      STREAM LEAKAGE =     2262983.4201        STREAM LEAKAGE =        6720.0041

            TOTAL IN =    74157597.1468              TOTAL IN =      164557.0280

          OUT:                                     OUT:
          ----                                     ----
             STORAGE =       28726.9618               STORAGE =         315.6809
       CONSTANT HEAD =           0.0000         CONSTANT HEAD =           0.0000
               WELLS =    12097792.0078                 WELLS =       33144.6356
            RECHARGE =           0.0000              RECHARGE =           0.0000
      STREAM LEAKAGE =    62031078.8432        STREAM LEAKAGE =      131096.7095

           TOTAL OUT =    74157597.8129             TOTAL OUT =      164557.0260

            IN - OUT =          -0.6661              IN - OUT =       1.9349E-03

 PERCENT DISCREPANCY =          -0.00     PERCENT DISCREPANCY =           0.00






         TIME SUMMARY AT END OF TIME STEP    1 IN STRESS PERIOD    4
                    SECONDS     MINUTES      HOURS       DAYS        YEARS
                    -----------------------------------------------------------
   TIME STEP LENGTH 7.86240E+06 1.31040E+05  2184.0      91.000     0.24914    
 STRESS PERIOD TIME 7.86240E+06 1.31040E+05  2184.0      91.000     0.24914    
         TOTAL TIME 3.15360E+07 5.25600E+05  8760.0      365.00     0.99932    
1
1
                            STRESS PERIOD NO.    5, LENGTH =   92.00000    
                            -----------------------------------------------

                              NUMBER OF TIME STEPS =     1

                               MULTIPLIER FOR DELT =     1.500

                            INITIAL TIME STEP SIZE =   92.00000    

 WELL NO.  LAYER   ROW   COL   STRESS RATE         
 --------------------------------------------------
      1      1     23     10     -0.1134E+05
      2      1     17      3     -0.1036E+05
      3      1     23     22     -0.1145E+05

      3 WELLS

                 RECHARGE =  5.000000E-04

 REUSING STREAM SEGMENT DATA FROM LAST STRESS PERIOD
 
 SOLVING FOR HEAD 


     6 CALLS TO PCG ROUTINE FOR TIME STEP   1 IN STRESS PERIOD    5
    23 TOTAL ITERATIONS

 OUTPUT CONTROL FOR STRESS PERIOD    5   TIME STEP    1
    SAVE BUDGET
    SAVE HEAD FOR ALL LAYERS
    PRINT HEAD FOR ALL LAYERS
 UBDSV2 SAVING "STREAMFLOW OUT  " ON UNIT  50 AT TIME STEP  1, STRESS PERIOD   5



 STREAM LISTING     PERIOD      5   STEP        1

 LAYER ROW COL. STREAM  RCH.  FLOW INTO     FLOW TO   FLOW OUT OF   OVRLND.     DIRECT     STREAM       STREAM     STREAM     STREAM   STREAMBED  STREAMBED
                SEG.NO.  NO.  STRM. RCH.    AQUIFER    STRM. RCH.    RUNOFF     PRECIP       ET          HEAD       DEPTH      WIDTH   CONDCTNC.   GRADIENT

   1   13    1     1     1    1.0000E+05 -2.1908E+03   1.0219E+05  0.000E+00  0.000E+00  0.000E+00  4.84070E+01  1.456E-01  2.000E+01  2.000E+04 -1.095E-01
   1   13    2     1     2    1.0219E+05 -4.2186E+03   1.0641E+05  0.000E+00  0.000E+00  0.000E+00  4.79324E+01  1.484E-01  2.000E+01  2.000E+04 -2.109E-01
   1   14    3     1     3    1.0641E+05 -2.3620E+03   1.0877E+05  0.000E+00  0.000E+00  0.000E+00  4.74580E+01  1.511E-01  2.000E+01  2.000E+04 -1.181E-01
   1   15    4     1     4    1.0877E+05 -1.4841E+03   1.1026E+05  0.000E+00  0.000E+00  0.000E+00  4.69823E+01  1.528E-01  2.000E+01  2.000E+04 -7.420E-02
   1   16    5     1     5    1.1026E+05 -1.5947E+03   1.1185E+05  0.000E+00  0.000E+00  0.000E+00  4.65063E+01  1.540E-01  2.000E+01  2.000E+04 -7.973E-02
   1   16    6     1     6    1.1185E+05 -2.4216E+03   1.1427E+05  0.000E+00  0.000E+00  0.000E+00  4.60307E+01  1.557E-01  2.000E+01  2.000E+04 -1.211E-01
   1   16    7     1     7    1.1427E+05 -2.7398E+03   1.1701E+05  0.000E+00  0.000E+00  0.000E+00  4.55556E+01  1.578E-01  2.000E+01  2.000E+04 -1.370E-01
   1   16    8     1     8    1.1701E+05 -2.8822E+03   1.1989E+05  0.000E+00  0.000E+00  0.000E+00  4.50806E+01  1.601E-01  2.000E+01  2.000E+04 -1.441E-01
   1   16    9     1     9    1.1989E+05 -2.9340E+03   1.2283E+05  0.000E+00  0.000E+00  0.000E+00  4.46057E+01  1.625E-01  2.000E+01  2.000E+04 -1.467E-01
   1   16   10     1    10    1.2283E+05 -2.9331E+03   1.2576E+05  0.000E+00  0.000E+00  0.000E+00  4.41307E+01  1.648E-01  2.000E+01  2.000E+04 -1.467E-01
   1   16   11     1    11    1.2576E+05 -2.9171E+03   1.2868E+05  0.000E+00  0.000E+00  0.000E+00  4.36558E+01  1.671E-01  2.000E+01  2.000E+04 -1.459E-01
   1   16   12     1    12    1.2868E+05 -3.8728E+03   1.3255E+05  0.000E+00  0.000E+00  0.000E+00  4.31812E+01  1.698E-01  2.000E+01  2.000E+04 -1.936E-01
   1   15   13     1    13    1.3255E+05 -3.7480E+03   1.3630E+05  0.000E+00  0.000E+00  0.000E+00  4.27068E+01  1.727E-01  2.000E+01  2.000E+04 -1.874E-01
   1   14   14     1    14    1.3630E+05 -3.8776E+03   1.4018E+05  0.000E+00  0.000E+00  0.000E+00  4.22325E+01  1.757E-01  2.000E+01  2.000E+04 -1.939E-01
   1   13   15     1    15    1.4018E+05 -4.2027E+03   1.4438E+05  0.000E+00  0.000E+00  0.000E+00  4.17583E+01  1.787E-01  2.000E+01  2.000E+04 -2.101E-01
   1   12   16     1    16    1.4438E+05 -5.3959E+03   1.4978E+05  0.000E+00  0.000E+00  0.000E+00  4.12846E+01  1.823E-01  2.000E+01  2.000E+04 -2.698E-01
   1   12   17     1    17    1.4978E+05 -3.5471E+03   1.5332E+05  0.000E+00  0.000E+00  0.000E+00  4.08106E+01  1.856E-01  2.000E+01  2.000E+04 -1.774E-01
   1   12   18     1    18    1.5332E+05 -3.4125E+03   1.5673E+05  0.000E+00  0.000E+00  0.000E+00  4.03359E+01  1.882E-01  2.000E+01  2.000E+04 -1.706E-01
   1   12   19     1    19    1.5673E+05 -4.4590E+03   1.6119E+05  0.000E+00  0.000E+00  0.000E+00  3.98615E+01  1.910E-01  2.000E+01  2.000E+04 -2.229E-01
   1   13   20     1    20    1.6119E+05 -2.9307E+03   1.6412E+05  0.000E+00  0.000E+00  0.000E+00  3.93869E+01  1.937E-01  2.000E+01  2.000E+04 -1.465E-01
   1   14   21     1    21    1.6412E+05 -2.1447E+03   1.6627E+05  0.000E+00  0.000E+00  0.000E+00  3.89114E+01  1.955E-01  2.000E+01  2.000E+04 -1.072E-01
   1   14   22     1    22    1.6627E+05  5.0185E+03   1.6125E+05  0.000E+00  0.000E+00  0.000E+00  3.84331E+01  1.945E-01  2.000E+01  2.000E+04  2.509E-01
   1    9   30     2     1    5.0000E+04 -2.6885E+03   5.2689E+04  0.000E+00  0.000E+00  0.000E+00  4.02427E+01  1.177E-01  2.000E+01  2.000E+04 -1.344E-01
   1    9   29     2     2    5.2689E+04 -3.0214E+03   5.5710E+04  0.000E+00  0.000E+00  0.000E+00  3.99966E+01  1.216E-01  2.000E+01  2.000E+04 -1.511E-01
   1    9   28     2     3    5.5710E+04 -3.4034E+03   5.9113E+04  0.000E+00  0.000E+00  0.000E+00  3.97509E+01  1.259E-01  2.000E+01  2.000E+04 -1.702E-01
   1    9   27     2     4    5.9113E+04 -6.1075E+03   6.5221E+04  0.000E+00  0.000E+00  0.000E+00  3.95070E+01  1.320E-01  2.000E+01  2.000E+04 -3.054E-01
   1   10   26     2     5    6.5221E+04 -3.7336E+03   6.8954E+04  0.000E+00  0.000E+00  0.000E+00  3.92632E+01  1.382E-01  2.000E+01  2.000E+04 -1.867E-01
   1   11   25     2     6    6.8954E+04 -2.6951E+03   7.1650E+04  0.000E+00  0.000E+00  0.000E+00  3.90172E+01  1.422E-01  2.000E+01  2.000E+04 -1.348E-01
   1   12   24     2     7    7.1650E+04 -1.8641E+03   7.3514E+04  0.000E+00  0.000E+00  0.000E+00  3.87699E+01  1.449E-01  2.000E+01  2.000E+04 -9.321E-02
   1   13   23     2     8    7.3514E+04 -1.0708E+03   7.4584E+04  0.000E+00  0.000E+00  0.000E+00  3.85217E+01  1.467E-01  2.000E+01  2.000E+04 -5.354E-02
   1   14   22     2     9    7.4584E+04  1.7810E+03   7.2803E+04  0.000E+00  0.000E+00  0.000E+00  3.82712E+01  1.462E-01  2.000E+01  2.000E+04  8.905E-02
   1   14   22     3     1    2.3405E+05 -8.4904E+03   2.4254E+05  0.000E+00  0.000E+00  0.000E+00  3.77577E+01  2.021E-01  2.000E+01  2.000E+04 -4.245E-01
   1   15   23     3     2    2.4254E+05 -2.7360E+03   2.4528E+05  0.000E+00  0.000E+00  0.000E+00  3.68716E+01  2.049E-01  2.000E+01  2.000E+04 -1.368E-01
   1   15   24     3     3    2.4528E+05 -1.9015E+03   2.4718E+05  0.000E+00  0.000E+00  0.000E+00  3.59839E+01  2.061E-01  2.000E+01  2.000E+04 -9.507E-02
   1   15   25     3     4    2.4718E+05 -1.8082E+03   2.4899E+05  0.000E+00  0.000E+00  0.000E+00  3.50959E+01  2.070E-01  2.000E+01  2.000E+04 -9.041E-02
   1   15   26     3     5    2.4899E+05 -2.1845E+03   2.5117E+05  0.000E+00  0.000E+00  0.000E+00  3.42080E+01  2.080E-01  2.000E+01  2.000E+04 -1.092E-01
   1   16   27     3     6    2.5117E+05 -3.0429E+03   2.5422E+05  0.000E+00  0.000E+00  0.000E+00  3.33205E+01  2.093E-01  2.000E+01  2.000E+04 -1.521E-01
   1   17   28     3     7    2.5422E+05 -3.8444E+03   2.5806E+05  0.000E+00  0.000E+00  0.000E+00  3.24333E+01  2.111E-01  2.000E+01  2.000E+04 -1.922E-01
   1   18   29     3     8    2.5806E+05 -5.5080E+03   2.6357E+05  0.000E+00  0.000E+00  0.000E+00  3.15467E+01  2.134E-01  2.000E+01  2.000E+04 -2.754E-01
   1   18   30     3     9    2.6357E+05 -4.6697E+03   2.6824E+05  0.000E+00  0.000E+00  0.000E+00  3.06603E+01  2.158E-01  2.000E+01  2.000E+04 -2.335E-01



1
              HEAD IN LAYER   1 AT END OF TIME STEP   1 IN STRESS PERIOD    5
  ---------------------------------------------------------------------------

          1      2      3      4      5      6      7      8      9     10
         11     12     13     14     15     16     17     18     19     20
         21     22     23     24     25     26     27     28     29     30
 .........................................................................
   1  ****** ****** ****** ****** ****** ****** ****** ****** ****** ******
      ****** ****** ****** ****** ****** ****** ****** ****** ****** ******
      ****** ****** ****** ****** ****** ****** ****** ****** ****** ******
   2  ****** ****** ****** ****** ****** ****** ****** ****** ****** ******
      ****** ****** ****** ****** ****** ****** ****** ****** ****** ******
      ****** ****** ****** ****** ****** ****** ****** ****** ****** ******
   3  ****** ****** ****** ****** ****** ****** ****** ****** ****** ******
      ****** ****** ****** ****** ****** ****** ****** ****** ****** ******
      ****** ****** ****** ****** ****** ****** ****** ****** ****** ******
   4  ****** ****** ****** ****** ****** ****** ****** ****** ****** ******
      ****** ****** ****** ****** ****** ****** ****** ****** ****** ******
      ****** ****** ****** ****** ****** ****** ****** ****** ****** ******
   5  ****** ****** ****** ****** ****** ****** ****** ****** ****** ******
      ****** ****** ****** ****** ****** ****** ****** ****** ****** ******
      ****** ****** ****** ****** ****** ****** ****** ****** ****** ******
   6  ****** ****** ****** ****** ****** ****** ****** ****** ****** ******
      ****** ****** ****** ****** ****** ****** ****** ****** ****** ******
      ****** ****** ****** ****** ****** ****** ****** ****** ****** ******
   7  ****** ****** ****** ****** ****** ****** ****** ****** ****** ******
      ****** ****** ****** ****** ****** ****** ****** ****** ****** ******
      ****** ****** ****** ****** ****** ****** ****** ****** ****** ******
   8  ****** ****** ****** ****** ****** ****** ****** ****** ****** ******
      ****** ****** ****** ****** ****** ****** ****** ****** ****** ******
      ****** ****** ****** ****** ****** ****** ****** ****** ****** ******
   9  ****** ****** ****** ****** ****** ****** ****** ****** ****** ******
      ****** ****** ****** ****** ****** ****** ****** ****** ****** ******
      ****** ****** ****** ****** ****** ****** ****** ****** ****** ******
  10  ****** ****** ****** ****** ****** ****** ****** ****** ****** ******
      ****** ****** ****** ****** ****** ****** ****** ****** ****** ******
      ****** ****** ****** ****** ****** ****** ****** ****** ****** ******
  11  ****** ****** ****** ****** ****** ****** ****** ****** ****** ******
      ****** ****** ****** ****** ****** ****** ****** ****** ****** ******
      ****** ****** ****** ****** ****** ****** ****** ****** ****** ******
  12  ****** ****** ****** ****** ****** ****** ****** ****** ****** ******
      ****** ****** ****** ****** ****** ****** ****** ****** ****** ******
      ****** ****** ****** ****** ****** ****** ****** ****** ****** ******
  13  ****** ****** ****** ****** ****** ****** ****** ****** ****** ******
      ****** ****** ****** ****** ****** ****** ****** ****** ****** ******
      ****** ****** ****** ****** ****** ****** ****** ****** ****** ******
  14  ****** ****** ****** ****** ****** ****** ****** ****** ****** ******
      ****** ****** ****** ****** ****** ****** ****** ****** ****** ******
      ****** ****** ****** ****** ****** ****** ****** ****** ****** ******
  15  ****** ****** ****** ****** ****** ****** ****** ****** ****** ******
      ****** ****** ****** ****** ****** ****** ****** ****** ****** ******
      ****** ****** ****** ****** ****** ****** ****** ****** ****** ******
  16  ****** ****** ****** ****** ****** ****** ****** ****** ****** ******
      ****** ****** ****** ****** ****** ****** ****** ****** ****** ******
      ****** ****** ****** ****** ****** ****** ****** ****** ****** ******
  17  ****** ****** ****** ****** ****** ****** ****** ****** ****** ******
      ****** ****** ****** ****** ****** ****** ****** ****** ****** ******
      ****** ****** ****** ****** ****** ****** ****** ****** ****** ******
  18  ****** ****** ****** ****** ****** ****** ****** ****** ****** ******
      ****** ****** ****** ****** ****** ****** ****** ****** ****** ******
      ****** ****** ****** ****** ****** ****** ****** ****** ****** ******
  19  ****** ****** ****** ****** ****** ****** ****** ****** ****** ******
      ****** ****** ****** ****** ****** ****** ****** ****** ****** ******
      ****** ****** ****** ****** ****** ****** ****** ****** ****** ******
  20  ****** ****** ****** ****** ****** ****** ****** ****** ****** ******
      ****** ****** ****** ****** ****** ****** ****** ****** ****** ******
      ****** ****** ****** ****** ****** ****** ****** ****** ****** ******
  21  ****** ****** ****** ****** ****** ****** ****** ****** ****** ******
      ****** ****** ****** ****** ****** ****** ****** ****** ****** ******
      ****** ****** ****** ****** ****** ****** ****** ****** ****** ******
  22  ****** ****** ****** ****** ****** ****** ****** ****** ****** ******
      ****** ****** ****** ****** ****** ****** ****** ****** ****** ******
      ****** ****** ****** ****** ****** ****** ****** ****** ****** ******
  23  ****** ****** ****** ****** ****** ****** ****** ****** ****** ******
      ****** ****** ****** ****** ****** ****** ****** ****** ****** ******
      ****** ****** ****** ****** ****** ****** ****** ****** ****** ******
  24  ****** ****** ****** ****** ****** ****** ****** ****** ****** ******
      ****** ****** ****** ****** ****** ****** ****** ****** ****** ******
      ****** ****** ****** ****** ****** ****** ****** ****** ****** ******
  25  ****** ****** ****** ****** ****** ****** ****** ****** ****** ******
      ****** ****** ****** ****** ****** ****** ****** ****** ****** ******
      ****** ****** ****** ****** ****** ****** ****** ****** ****** ******

 HEAD WILL BE SAVED ON UNIT   51 AT END OF TIME STEP    1, STRESS PERIOD    5
1
  VOLUMETRIC BUDGET FOR ENTIRE MODEL AT END OF TIME STEP    1, STRESS PERIOD   5
  ------------------------------------------------------------------------------

     CUMULATIVE VOLUMES      L**3       RATES FOR THIS TIME STEP      L**3/T
     ------------------                 ------------------------

           IN:                                      IN:
           ---                                      ---
             STORAGE =    21408274.6824               STORAGE =        4321.3660
       CONSTANT HEAD =    54339679.8267         CONSTANT HEAD =      133262.7729
               WELLS =           0.0000                 WELLS =           0.0000
            RECHARGE =    10074000.0000              RECHARGE =       13800.0000
      STREAM LEAKAGE =     2888543.8447        STREAM LEAKAGE =        6799.5698

            TOTAL IN =    88710498.3538              TOTAL IN =      158183.7088

          OUT:                                     OUT:
          ----                                     ----
             STORAGE =       28726.9618               STORAGE =           0.0000
       CONSTANT HEAD =           0.0000         CONSTANT HEAD =           0.0000
               WELLS =    15147098.4865                 WELLS =       33144.6356
            RECHARGE =           0.0000              RECHARGE =           0.0000
      STREAM LEAKAGE =    73534673.6416        STREAM LEAKAGE =      125039.0739

           TOTAL OUT =    88710499.0900             TOTAL OUT =      158183.7095

            IN - OUT =          -0.7362              IN - OUT =      -7.6180E-04

 PERCENT DISCREPANCY =          -0.00     PERCENT DISCREPANCY =          -0.00






         TIME SUMMARY AT END OF TIME STEP    1 IN STRESS PERIOD    5
                    SECONDS     MINUTES      HOURS       DAYS        YEARS
                    -----------------------------------------------------------
   TIME STEP LENGTH 7.94880E+06 1.32480E+05  2208.0      92.000     0.25188    
 STRESS PERIOD TIME 7.94880E+06 1.32480E+05  2208.0      92.000     0.25188    
         TOTAL TIME 3.94848E+07 6.58080E+05  10968.      457.00      1.2512    
1
1
                            STRESS PERIOD NO.    6, LENGTH =   91.00000    
                            -----------------------------------------------

                              NUMBER OF TIME STEPS =     1

                               MULTIPLIER FOR DELT =     1.500

                            INITIAL TIME STEP SIZE =   91.00000    

 WELL NO.  LAYER   ROW   COL   STRESS RATE         
 --------------------------------------------------
      1      1     23     10     -0.1134E+05
      2      1     17      3     -0.1036E+05
      3      1     23     22     -0.1145E+05

      3 WELLS

                 RECHARGE =  2.000000E-03

 REUSING STREAM SEGMENT DATA FROM LAST STRESS PERIOD
 
 SOLVING FOR HEAD 


     7 CALLS TO PCG ROUTINE FOR TIME STEP   1 IN STRESS PERIOD    6
    26 TOTAL ITERATIONS

 OUTPUT CONTROL FOR STRESS PERIOD    6   TIME STEP    1
    SAVE BUDGET
    SAVE HEAD FOR ALL LAYERS
    PRINT HEAD FOR ALL LAYERS
 UBDSV2 SAVING "STREAMFLOW OUT  " ON UNIT  50 AT TIME STEP  1, STRESS PERIOD   6



 STREAM LISTING     PERIOD      6   STEP        1

 LAYER ROW COL. STREAM  RCH.  FLOW INTO     FLOW TO   FLOW OUT OF   OVRLND.     DIRECT     STREAM       STREAM     STREAM     STREAM   STREAMBED  STREAMBED
                SEG.NO.  NO.  STRM. RCH.    AQUIFER    STRM. RCH.    RUNOFF     PRECIP       ET          HEAD       DEPTH      WIDTH   CONDCTNC.   GRADIENT

   1   13    1     1     1    1.0000E+05 -2.5901E+03   1.0259E+05  0.000E+00  0.000E+00  0.000E+00  4.84071E+01  1.458E-01  2.000E+01  2.000E+04 -1.295E-01
   1   13    2     1     2    1.0259E+05 -4.7440E+03   1.0733E+05  0.000E+00  0.000E+00  0.000E+00  4.79330E+01  1.489E-01  2.000E+01  2.000E+04 -2.372E-01
   1   14    3     1     3    1.0733E+05 -2.9009E+03   1.1023E+05  0.000E+00  0.000E+00  0.000E+00  4.74590E+01  1.521E-01  2.000E+01  2.000E+04 -1.450E-01
   1   15    4     1     4    1.1023E+05 -2.0200E+03   1.1225E+05  0.000E+00  0.000E+00  0.000E+00  4.69837E+01  1.542E-01  2.000E+01  2.000E+04 -1.010E-01
   1   16    5     1     5    1.1225E+05 -2.0921E+03   1.1435E+05  0.000E+00  0.000E+00  0.000E+00  4.65082E+01  1.559E-01  2.000E+01  2.000E+04 -1.046E-01
   1   16    6     1     6    1.1435E+05 -2.8131E+03   1.1716E+05  0.000E+00  0.000E+00  0.000E+00  4.60329E+01  1.579E-01  2.000E+01  2.000E+04 -1.407E-01
   1   16    7     1     7    1.1716E+05 -3.1369E+03   1.2030E+05  0.000E+00  0.000E+00  0.000E+00  4.55581E+01  1.603E-01  2.000E+01  2.000E+04 -1.568E-01
   1   16    8     1     8    1.2030E+05 -3.2827E+03   1.2358E+05  0.000E+00  0.000E+00  0.000E+00  4.50834E+01  1.629E-01  2.000E+01  2.000E+04 -1.641E-01
   1   16    9     1     9    1.2358E+05 -3.3345E+03   1.2691E+05  0.000E+00  0.000E+00  0.000E+00  4.46088E+01  1.656E-01  2.000E+01  2.000E+04 -1.667E-01
   1   16   10     1    10    1.2691E+05 -3.3302E+03   1.3024E+05  0.000E+00  0.000E+00  0.000E+00  4.41341E+01  1.682E-01  2.000E+01  2.000E+04 -1.665E-01
   1   16   11     1    11    1.3024E+05 -3.3093E+03   1.3355E+05  0.000E+00  0.000E+00  0.000E+00  4.36594E+01  1.708E-01  2.000E+01  2.000E+04 -1.655E-01
   1   16   12     1    12    1.3355E+05 -4.3785E+03   1.3793E+05  0.000E+00  0.000E+00  0.000E+00  4.31851E+01  1.738E-01  2.000E+01  2.000E+04 -2.189E-01
   1   15   13     1    13    1.3793E+05 -4.2959E+03   1.4223E+05  0.000E+00  0.000E+00  0.000E+00  4.27112E+01  1.771E-01  2.000E+01  2.000E+04 -2.148E-01
   1   14   14     1    14    1.4223E+05 -4.4349E+03   1.4666E+05  0.000E+00  0.000E+00  0.000E+00  4.22372E+01  1.804E-01  2.000E+01  2.000E+04 -2.217E-01
   1   13   15     1    15    1.4666E+05 -4.7503E+03   1.5141E+05  0.000E+00  0.000E+00  0.000E+00  4.17633E+01  1.838E-01  2.000E+01  2.000E+04 -2.375E-01
   1   12   16     1    16    1.5141E+05 -5.9185E+03   1.5733E+05  0.000E+00  0.000E+00  0.000E+00  4.12900E+01  1.877E-01  2.000E+01  2.000E+04 -2.959E-01
   1   12   17     1    17    1.5733E+05 -3.9382E+03   1.6127E+05  0.000E+00  0.000E+00  0.000E+00  4.08163E+01  1.913E-01  2.000E+01  2.000E+04 -1.969E-01
   1   12   18     1    18    1.6127E+05 -3.7976E+03   1.6507E+05  0.000E+00  0.000E+00  0.000E+00  4.03418E+01  1.940E-01  2.000E+01  2.000E+04 -1.899E-01
   1   12   19     1    19    1.6507E+05 -4.9289E+03   1.7000E+05  0.000E+00  0.000E+00  0.000E+00  3.98676E+01  1.971E-01  2.000E+01  2.000E+04 -2.464E-01
   1   13   20     1    20    1.7000E+05 -3.3905E+03   1.7339E+05  0.000E+00  0.000E+00  0.000E+00  3.93932E+01  2.001E-01  2.000E+01  2.000E+04 -1.695E-01
   1   14   21     1    21    1.7339E+05 -2.5680E+03   1.7596E+05  0.000E+00  0.000E+00  0.000E+00  3.89181E+01  2.021E-01  2.000E+01  2.000E+04 -1.284E-01
   1   14   22     1    22    1.7596E+05  4.9385E+03   1.7102E+05  0.000E+00  0.000E+00  0.000E+00  3.84400E+01  2.013E-01  2.000E+01  2.000E+04  2.469E-01
   1    9   30     2     1    5.0000E+04 -3.0456E+03   5.3046E+04  0.000E+00  0.000E+00  0.000E+00  4.02430E+01  1.180E-01  2.000E+01  2.000E+04 -1.523E-01
   1    9   29     2     2    5.3046E+04 -3.3756E+03   5.6421E+04  0.000E+00  0.000E+00  0.000E+00  3.99973E+01  1.223E-01  2.000E+01  2.000E+04 -1.688E-01
   1    9   28     2     3    5.6421E+04 -3.7554E+03   6.0177E+04  0.000E+00  0.000E+00  0.000E+00  3.97520E+01  1.270E-01  2.000E+01  2.000E+04 -1.878E-01
   1    9   27     2     4    6.0177E+04 -6.5771E+03   6.6754E+04  0.000E+00  0.000E+00  0.000E+00  3.95087E+01  1.337E-01  2.000E+01  2.000E+04 -3.289E-01
   1   10   26     2     5    6.6754E+04 -4.2197E+03   7.0973E+04  0.000E+00  0.000E+00  0.000E+00  3.92654E+01  1.404E-01  2.000E+01  2.000E+04 -2.110E-01
   1   11   25     2     6    7.0973E+04 -3.1601E+03   7.4134E+04  0.000E+00  0.000E+00  0.000E+00  3.90199E+01  1.449E-01  2.000E+01  2.000E+04 -1.580E-01
   1   12   24     2     7    7.4134E+04 -2.2752E+03   7.6409E+04  0.000E+00  0.000E+00  0.000E+00  3.87731E+01  1.481E-01  2.000E+01  2.000E+04 -1.138E-01
   1   13   23     2     8    7.6409E+04 -1.3915E+03   7.7800E+04  0.000E+00  0.000E+00  0.000E+00  3.85253E+01  1.503E-01  2.000E+01  2.000E+04 -6.957E-02
   1   14   22     2     9    7.7800E+04  1.6415E+03   7.6159E+04  0.000E+00  0.000E+00  0.000E+00  3.82751E+01  1.501E-01  2.000E+01  2.000E+04  8.208E-02
   1   14   22     3     1    2.4718E+05 -8.5749E+03   2.5575E+05  0.000E+00  0.000E+00  0.000E+00  3.77643E+01  2.087E-01  2.000E+01  2.000E+04 -4.287E-01
   1   15   23     3     2    2.5575E+05 -3.1317E+03   2.5888E+05  0.000E+00  0.000E+00  0.000E+00  3.68783E+01  2.116E-01  2.000E+01  2.000E+04 -1.566E-01
   1   15   24     3     3    2.5888E+05 -2.1882E+03   2.6107E+05  0.000E+00  0.000E+00  0.000E+00  3.59907E+01  2.129E-01  2.000E+01  2.000E+04 -1.094E-01
   1   15   25     3     4    2.6107E+05 -2.0958E+03   2.6317E+05  0.000E+00  0.000E+00  0.000E+00  3.51029E+01  2.140E-01  2.000E+01  2.000E+04 -1.048E-01
   1   15   26     3     5    2.6317E+05 -2.5556E+03   2.6572E+05  0.000E+00  0.000E+00  0.000E+00  3.42151E+01  2.151E-01  2.000E+01  2.000E+04 -1.278E-01
   1   16   27     3     6    2.6572E+05 -3.5082E+03   2.6923E+05  0.000E+00  0.000E+00  0.000E+00  3.33277E+01  2.166E-01  2.000E+01  2.000E+04 -1.754E-01
   1   17   28     3     7    2.6923E+05 -4.3195E+03   2.7355E+05  0.000E+00  0.000E+00  0.000E+00  3.24407E+01  2.185E-01  2.000E+01  2.000E+04 -2.160E-01
   1   18   29     3     8    2.7355E+05 -5.9538E+03   2.7950E+05  0.000E+00  0.000E+00  0.000E+00  3.15543E+01  2.210E-01  2.000E+01  2.000E+04 -2.977E-01
   1   18   30     3     9    2.7950E+05 -5.0062E+03   2.8451E+05  0.000E+00  0.000E+00  0.000E+00  3.06680E+01  2.236E-01  2.000E+01  2.000E+04 -2.503E-01



1
              HEAD IN LAYER   1 AT END OF TIME STEP   1 IN STRESS PERIOD    6
  ---------------------------------------------------------------------------

          1      2      3      4      5      6      7      8      9     10
         11     12     13     14     15     16     17     18     19     20
         21     22     23     24     25     26     27     28     29     30
 .........................................................................
   1  ****** ****** ****** ****** ****** ****** ****** ****** ****** ******
      ****** ****** ****** ****** ****** ****** ****** ****** ****** ******
      ****** ****** ****** ****** ****** ****** ****** ****** ****** ******
   2  ****** ****** ****** ****** ****** ****** ****** ****** ****** ******
      ****** ****** ****** ****** ****** ****** ****** ****** ****** ******
      ****** ****** ****** ****** ****** ****** ****** ****** ****** ******
   3  ****** ****** ****** ****** ****** ****** ****** ****** ****** ******
      ****** ****** ****** ****** ****** ****** ****** ****** ****** ******
      ****** ****** ****** ****** ****** ****** ****** ****** ****** ******
   4  ****** ****** ****** ****** ****** ****** ****** ****** ****** ******
      ****** ****** ****** ****** ****** ****** ****** ****** ****** ******
      ****** ****** ****** ****** ****** ****** ****** ****** ****** ******
   5  ****** ****** ****** ****** ****** ****** ****** ****** ****** ******
      ****** ****** ****** ****** ****** ****** ****** ****** ****** ******
      ****** ****** ****** ****** ****** ****** ****** ****** ****** ******
   6  ****** ****** ****** ****** ****** ****** ****** ****** ****** ******
      ****** ****** ****** ****** ****** ****** ****** ****** ****** ******
      ****** ****** ****** ****** ****** ****** ****** ****** ****** ******
   7  ****** ****** ****** ****** ****** ****** ****** ****** ****** ******
      ****** ****** ****** ****** ****** ****** ****** ****** ****** ******
      ****** ****** ****** ****** ****** ****** ****** ****** ****** ******
   8  ****** ****** ****** ****** ****** ****** ****** ****** ****** ******
      ****** ****** ****** ****** ****** ****** ****** ****** ****** ******
      ****** ****** ****** ****** ****** ****** ****** ****** ****** ******
   9  ****** ****** ****** ****** ****** ****** ****** ****** ****** ******
      ****** ****** ****** ****** ****** ****** ****** ****** ****** ******
      ****** ****** ****** ****** ****** ****** ****** ****** ****** ******
  10  ****** ****** ****** ****** ****** ****** ****** ****** ****** ******
      ****** ****** ****** ****** ****** ****** ****** ****** ****** ******
      ****** ****** ****** ****** ****** ****** ****** ****** ****** ******
  11  ****** ****** ****** ****** ****** ****** ****** ****** ****** ******
      ****** ****** ****** ****** ****** ****** ****** ****** ****** ******
      ****** ****** ****** ****** ****** ****** ****** ****** ****** ******
  12  ****** ****** ****** ****** ****** ****** ****** ****** ****** ******
      ****** ****** ****** ****** ****** ****** ****** ****** ****** ******
      ****** ****** ****** ****** ****** ****** ****** ****** ****** ******
  13  ****** ****** ****** ****** ****** ****** ****** ****** ****** ******
      ****** ****** ****** ****** ****** ****** ****** ****** ****** ******
      ****** ****** ****** ****** ****** ****** ****** ****** ****** ******
  14  ****** ****** ****** ****** ****** ****** ****** ****** ****** ******
      ****** ****** ****** ****** ****** ****** ****** ****** ****** ******
      ****** ****** ****** ****** ****** ****** ****** ****** ****** ******
  15  ****** ****** ****** ****** ****** ****** ****** ****** ****** ******
      ****** ****** ****** ****** ****** ****** ****** ****** ****** ******
      ****** ****** ****** ****** ****** ****** ****** ****** ****** ******
  16  ****** ****** ****** ****** ****** ****** ****** ****** ****** ******
      ****** ****** ****** ****** ****** ****** ****** ****** ****** ******
      ****** ****** ****** ****** ****** ****** ****** ****** ****** ******
  17  ****** ****** ****** ****** ****** ****** ****** ****** ****** ******
      ****** ****** ****** ****** ****** ****** ****** ****** ****** ******
      ****** ****** ****** ****** ****** ****** ****** ****** ****** ******
  18  ****** ****** ****** ****** ****** ****** ****** ****** ****** ******
      ****** ****** ****** ****** ****** ****** ****** ****** ****** ******
      ****** ****** ****** ****** ****** ****** ****** ****** ****** ******
  19  ****** ****** ****** ****** ****** ****** ****** ****** ****** ******
      ****** ****** ****** ****** ****** ****** ****** ****** ****** ******
      ****** ****** ****** ****** ****** ****** ****** ****** ****** ******
  20  ****** ****** ****** ****** ****** ****** ****** ****** ****** ******
      ****** ****** ****** ****** ****** ****** ****** ****** ****** ******
      ****** ****** ****** ****** ****** ****** ****** ****** ****** ******
  21  ****** ****** ****** ****** ****** ****** ****** ****** ****** ******
      ****** ****** ****** ****** ****** ****** ****** ****** ****** ******
      ****** ****** ****** ****** ****** ****** ****** ****** ****** ******
  22  ****** ****** ****** ****** ****** ****** ****** ****** ****** ******
      ****** ****** ****** ****** ****** ****** ****** ****** ****** ******
      ****** ****** ****** ****** ****** ****** ****** ****** ****** ******
  23  ****** ****** ****** ****** ****** ****** ****** ****** ****** ******
      ****** ****** ****** ****** ****** ****** ****** ****** ****** ******
      ****** ****** ****** ****** ****** ****** ****** ****** ****** ******
  24  ****** ****** ****** ****** ****** ****** ****** ****** ****** ******
      ****** ****** ****** ****** ****** ****** ****** ****** ****** ******
      ****** ****** ****** ****** ****** ****** ****** ****** ****** ******
  25  ****** ****** ****** ****** ****** ****** ****** ****** ****** ******
      ****** ****** ****** ****** ****** ****** ****** ****** ****** ******
      ****** ****** ****** ****** ****** ****** ****** ****** ****** ******

 HEAD WILL BE SAVED ON UNIT   51 AT END OF TIME STEP    1, STRESS PERIOD    6
1
  VOLUMETRIC BUDGET FOR ENTIRE MODEL AT END OF TIME STEP    1, STRESS PERIOD   6
  ------------------------------------------------------------------------------

     CUMULATIVE VOLUMES      L**3       RATES FOR THIS TIME STEP      L**3/T
     ------------------                 ------------------------

           IN:                                      IN:
           ---                                      ---
             STORAGE =    21408274.6824               STORAGE =           0.0000
       CONSTANT HEAD =    65495261.6018         CONSTANT HEAD =      122588.8107
               WELLS =           0.0000                 WELLS =           0.0000
            RECHARGE =    15097200.0000              RECHARGE =       55200.0000
      STREAM LEAKAGE =     3487328.8391        STREAM LEAKAGE =        6580.0549

            TOTAL IN =   105488065.1233              TOTAL IN =      184368.8656

          OUT:                                     OUT:
          ----                                     ----
             STORAGE =      951011.7963               STORAGE =       10134.9982
       CONSTANT HEAD =           0.0000         CONSTANT HEAD =           0.0000
               WELLS =    18163260.3296                 WELLS =       33144.6356
            RECHARGE =           0.0000              RECHARGE =           0.0000
      STREAM LEAKAGE =    86373793.5819        STREAM LEAKAGE =      141089.2301

           TOTAL OUT =   105488065.7078             TOTAL OUT =      184368.8639

            IN - OUT =          -0.5845              IN - OUT =       1.6669E-03

 PERCENT DISCREPANCY =          -0.00     PERCENT DISCREPANCY =           0.00






         TIME SUMMARY AT END OF TIME STEP    1 IN STRESS PERIOD    6
                    SECONDS     MINUTES      HOURS       DAYS        YEARS
                    -----------------------------------------------------------
   TIME STEP LENGTH 7.86240E+06 1.31040E+05  2184.0      91.000     0.24914    
 STRESS PERIOD TIME 7.86240E+06 1.31040E+05  2184.0      91.000     0.24914    
         TOTAL TIME 4.73472E+07 7.89120E+05  13152.      548.00      1.5003    
1
1
                            STRESS PERIOD NO.    7, LENGTH =   91.00000    
                            -----------------------------------------------

                              NUMBER OF TIME STEPS =     1

                               MULTIPLIER FOR DELT =     1.500

                            INITIAL TIME STEP SIZE =   91.00000    

 WELL NO.  LAYER   ROW   COL   STRESS RATE         
 --------------------------------------------------
      1      1     23     10     -0.1039E+05
      2      1     17      3      -9136.    
      3      1     23     22     -0.1057E+05

      3 WELLS

                 RECHARGE =   0.00000    

 REUSING STREAM SEGMENT DATA FROM LAST STRESS PERIOD
 
 SOLVING FOR HEAD 


     7 CALLS TO PCG ROUTINE FOR TIME STEP   1 IN STRESS PERIOD    7
    26 TOTAL ITERATIONS

 OUTPUT CONTROL FOR STRESS PERIOD    7   TIME STEP    1
    SAVE BUDGET
    SAVE HEAD FOR ALL LAYERS
    PRINT HEAD FOR ALL LAYERS
 UBDSV2 SAVING "STREAMFLOW OUT  " ON UNIT  50 AT TIME STEP  1, STRESS PERIOD   7



 STREAM LISTING     PERIOD      7   STEP        1

 LAYER ROW COL. STREAM  RCH.  FLOW INTO     FLOW TO   FLOW OUT OF   OVRLND.     DIRECT     STREAM       STREAM     STREAM     STREAM   STREAMBED  STREAMBED
                SEG.NO.  NO.  STRM. RCH.    AQUIFER    STRM. RCH.    RUNOFF     PRECIP       ET          HEAD       DEPTH      WIDTH   CONDCTNC.   GRADIENT

   1   13    1     1     1    1.0000E+05 -2.1485E+03   1.0215E+05  0.000E+00  0.000E+00  0.000E+00  4.84069E+01  1.456E-01  2.000E+01  2.000E+04 -1.074E-01
   1   13    2     1     2    1.0215E+05 -4.1392E+03   1.0629E+05  0.000E+00  0.000E+00  0.000E+00  4.79324E+01  1.483E-01  2.000E+01  2.000E+04 -2.070E-01
   1   14    3     1     3    1.0629E+05 -2.3652E+03   1.0865E+05  0.000E+00  0.000E+00  0.000E+00  4.74579E+01  1.510E-01  2.000E+01  2.000E+04 -1.183E-01
   1   15    4     1     4    1.0865E+05 -1.5693E+03   1.1022E+05  0.000E+00  0.000E+00  0.000E+00  4.69822E+01  1.527E-01  2.000E+01  2.000E+04 -7.846E-02
   1   16    5     1     5    1.1022E+05 -1.7085E+03   1.1193E+05  0.000E+00  0.000E+00  0.000E+00  4.65063E+01  1.541E-01  2.000E+01  2.000E+04 -8.543E-02
   1   16    6     1     6    1.1193E+05 -2.3912E+03   1.1432E+05  0.000E+00  0.000E+00  0.000E+00  4.60308E+01  1.558E-01  2.000E+01  2.000E+04 -1.196E-01
   1   16    7     1     7    1.1432E+05 -2.6832E+03   1.1701E+05  0.000E+00  0.000E+00  0.000E+00  4.55556E+01  1.578E-01  2.000E+01  2.000E+04 -1.342E-01
   1   16    8     1     8    1.1701E+05 -2.8151E+03   1.1982E+05  0.000E+00  0.000E+00  0.000E+00  4.50805E+01  1.601E-01  2.000E+01  2.000E+04 -1.408E-01
   1   16    9     1     9    1.1982E+05 -2.8627E+03   1.2268E+05  0.000E+00  0.000E+00  0.000E+00  4.46056E+01  1.624E-01  2.000E+01  2.000E+04 -1.431E-01
   1   16   10     1    10    1.2268E+05 -2.8602E+03   1.2554E+05  0.000E+00  0.000E+00  0.000E+00  4.41306E+01  1.647E-01  2.000E+01  2.000E+04 -1.430E-01
   1   16   11     1    11    1.2554E+05 -2.8441E+03   1.2839E+05  0.000E+00  0.000E+00  0.000E+00  4.36556E+01  1.669E-01  2.000E+01  2.000E+04 -1.422E-01
   1   16   12     1    12    1.2839E+05 -3.7833E+03   1.3217E+05  0.000E+00  0.000E+00  0.000E+00  4.31809E+01  1.695E-01  2.000E+01  2.000E+04 -1.892E-01
   1   15   13     1    13    1.3217E+05 -3.6331E+03   1.3580E+05  0.000E+00  0.000E+00  0.000E+00  4.27065E+01  1.724E-01  2.000E+01  2.000E+04 -1.817E-01
   1   14   14     1    14    1.3580E+05 -3.7561E+03   1.3956E+05  0.000E+00  0.000E+00  0.000E+00  4.22321E+01  1.752E-01  2.000E+01  2.000E+04 -1.878E-01
   1   13   15     1    15    1.3956E+05 -4.0808E+03   1.4364E+05  0.000E+00  0.000E+00  0.000E+00  4.17578E+01  1.782E-01  2.000E+01  2.000E+04 -2.040E-01
   1   12   16     1    16    1.4364E+05 -5.2806E+03   1.4892E+05  0.000E+00  0.000E+00  0.000E+00  4.12840E+01  1.817E-01  2.000E+01  2.000E+04 -2.640E-01
   1   12   17     1    17    1.4892E+05 -3.4602E+03   1.5238E+05  0.000E+00  0.000E+00  0.000E+00  4.08100E+01  1.850E-01  2.000E+01  2.000E+04 -1.730E-01
   1   12   18     1    18    1.5238E+05 -3.3271E+03   1.5571E+05  0.000E+00  0.000E+00  0.000E+00  4.03352E+01  1.875E-01  2.000E+01  2.000E+04 -1.664E-01
   1   12   19     1    19    1.5571E+05 -4.3547E+03   1.6006E+05  0.000E+00  0.000E+00  0.000E+00  3.98607E+01  1.903E-01  2.000E+01  2.000E+04 -2.177E-01
   1   13   20     1    20    1.6006E+05 -2.8275E+03   1.6289E+05  0.000E+00  0.000E+00  0.000E+00  3.93860E+01  1.928E-01  2.000E+01  2.000E+04 -1.414E-01
   1   14   21     1    21    1.6289E+05 -2.0576E+03   1.6495E+05  0.000E+00  0.000E+00  0.000E+00  3.89105E+01  1.946E-01  2.000E+01  2.000E+04 -1.029E-01
   1   14   22     1    22    1.6495E+05  5.0430E+03   1.5991E+05  0.000E+00  0.000E+00  0.000E+00  3.84322E+01  1.935E-01  2.000E+01  2.000E+04  2.521E-01
   1    9   30     2     1    5.0000E+04 -2.6030E+03   5.2603E+04  0.000E+00  0.000E+00  0.000E+00  4.02427E+01  1.177E-01  2.000E+01  2.000E+04 -1.301E-01
   1    9   29     2     2    5.2603E+04 -2.9366E+03   5.5540E+04  0.000E+00  0.000E+00  0.000E+00  3.99964E+01  1.214E-01  2.000E+01  2.000E+04 -1.468E-01
   1    9   28     2     3    5.5540E+04 -3.3197E+03   5.8859E+04  0.000E+00  0.000E+00  0.000E+00  3.97506E+01  1.256E-01  2.000E+01  2.000E+04 -1.660E-01
   1    9   27     2     4    5.8859E+04 -6.0020E+03   6.4861E+04  0.000E+00  0.000E+00  0.000E+00  3.95066E+01  1.316E-01  2.000E+01  2.000E+04 -3.001E-01
   1   10   26     2     5    6.4861E+04 -3.6189E+03   6.8480E+04  0.000E+00  0.000E+00  0.000E+00  3.92627E+01  1.377E-01  2.000E+01  2.000E+04 -1.809E-01
   1   11   25     2     6    6.8480E+04 -2.5828E+03   7.1063E+04  0.000E+00  0.000E+00  0.000E+00  3.90165E+01  1.415E-01  2.000E+01  2.000E+04 -1.291E-01
   1   12   24     2     7    7.1063E+04 -1.7615E+03   7.2824E+04  0.000E+00  0.000E+00  0.000E+00  3.87691E+01  1.441E-01  2.000E+01  2.000E+04 -8.807E-02
   1   13   23     2     8    7.2824E+04 -9.8712E+02   7.3812E+04  0.000E+00  0.000E+00  0.000E+00  3.85208E+01  1.458E-01  2.000E+01  2.000E+04 -4.936E-02
   1   14   22     2     9    7.3812E+04  1.8057E+03   7.2006E+04  0.000E+00  0.000E+00  0.000E+00  3.82703E+01  1.453E-01  2.000E+01  2.000E+04  9.029E-02
   1   14   22     3     1    2.3191E+05 -8.4689E+03   2.4038E+05  0.000E+00  0.000E+00  0.000E+00  3.77566E+01  2.010E-01  2.000E+01  2.000E+04 -4.234E-01
   1   15   23     3     2    2.4038E+05 -2.6602E+03   2.4304E+05  0.000E+00  0.000E+00  0.000E+00  3.68705E+01  2.038E-01  2.000E+01  2.000E+04 -1.330E-01
   1   15   24     3     3    2.4304E+05 -1.8391E+03   2.4488E+05  0.000E+00  0.000E+00  0.000E+00  3.59827E+01  2.050E-01  2.000E+01  2.000E+04 -9.195E-02
   1   15   25     3     4    2.4488E+05 -1.7415E+03   2.4662E+05  0.000E+00  0.000E+00  0.000E+00  3.50948E+01  2.059E-01  2.000E+01  2.000E+04 -8.708E-02
   1   15   26     3     5    2.4662E+05 -2.0940E+03   2.4871E+05  0.000E+00  0.000E+00  0.000E+00  3.42068E+01  2.068E-01  2.000E+01  2.000E+04 -1.047E-01
   1   16   27     3     6    2.4871E+05 -2.9381E+03   2.5165E+05  0.000E+00  0.000E+00  0.000E+00  3.33192E+01  2.081E-01  2.000E+01  2.000E+04 -1.469E-01
   1   17   28     3     7    2.5165E+05 -3.7397E+03   2.5539E+05  0.000E+00  0.000E+00  0.000E+00  3.24320E+01  2.098E-01  2.000E+01  2.000E+04 -1.870E-01
   1   18   29     3     8    2.5539E+05 -5.4143E+03   2.6081E+05  0.000E+00  0.000E+00  0.000E+00  3.15454E+01  2.120E-01  2.000E+01  2.000E+04 -2.707E-01
   1   18   30     3     9    2.6081E+05 -4.5921E+03   2.6540E+05  0.000E+00  0.000E+00  0.000E+00  3.06589E+01  2.145E-01  2.000E+01  2.000E+04 -2.296E-01



1
              HEAD IN LAYER   1 AT END OF TIME STEP   1 IN STRESS PERIOD    7
  ---------------------------------------------------------------------------

          1      2      3      4      5      6      7      8      9     10
         11     12     13     14     15     16     17     18     19     20
         21     22     23     24     25     26     27     28     29     30
 .........................................................................
   1  ****** ****** ****** ****** ****** ****** ****** ****** ****** ******
      ****** ****** ****** ****** ****** ****** ****** ****** ****** ******
      ****** ****** ****** ****** ****** ****** ****** ****** ****** ******
   2  ****** ****** ****** ****** ****** ****** ****** ****** ****** ******
      ****** ****** ****** ****** ****** ****** ****** ****** ****** ******
      ****** ****** ****** ****** ****** ****** ****** ****** ****** ******
   3  ****** ****** ****** ****** ****** ****** ****** ****** ****** ******
      ****** ****** ****** ****** ****** ****** ****** ****** ****** ******
      ****** ****** ****** ****** ****** ****** ****** ****** ****** ******
   4  ****** ****** ****** ****** ****** ****** ****** ****** ****** ******
      ****** ****** ****** ****** ****** ****** ****** ****** ****** ******
      ****** ****** ****** ****** ****** ****** ****** ****** ****** ******
   5  ****** ****** ****** ****** ****** ****** ****** ****** ****** ******
      ****** ****** ****** ****** ****** ****** ****** ****** ****** ******
      ****** ****** ****** ****** ****** ****** ****** ****** ****** ******
   6  ****** ****** ****** ****** ****** ****** ****** ****** ****** ******
      ****** ****** ****** ****** ****** ****** ****** ****** ****** ******
      ****** ****** ****** ****** ****** ****** ****** ****** ****** ******
   7  ****** ****** ****** ****** ****** ****** ****** ****** ****** ******
      ****** ****** ****** ****** ****** ****** ****** ****** ****** ******
      ****** ****** ****** ****** ****** ****** ****** ****** ****** ******
   8  ****** ****** ****** ****** ****** ****** ****** ****** ****** ******
      ****** ****** ****** ****** ****** ****** ****** ****** ****** ******
      ****** ****** ****** ****** ****** ****** ****** ****** ****** ******
   9  ****** ****** ****** ****** ****** ****** ****** ****** ****** ******
      ****** ****** ****** ****** ****** ****** ****** ****** ****** ******
      ****** ****** ****** ****** ****** ****** ****** ****** ****** ******
  10  ****** ****** ****** ****** ****** ****** ****** ****** ****** ******
      ****** ****** ****** ****** ****** ****** ****** ****** ****** ******
      ****** ****** ****** ****** ****** ****** ****** ****** ****** ******
  11  ****** ****** ****** ****** ****** ****** ****** ****** ****** ******
      ****** ****** ****** ****** ****** ****** ****** ****** ****** ******
      ****** ****** ****** ****** ****** ****** ****** ****** ****** ******
  12  ****** ****** ****** ****** ****** ****** ****** ****** ****** ******
      ****** ****** ****** ****** ****** ****** ****** ****** ****** ******
      ****** ****** ****** ****** ****** ****** ****** ****** ****** ******
  13  ****** ****** ****** ****** ****** ****** ****** ****** ****** ******
      ****** ****** ****** ****** ****** ****** ****** ****** ****** ******
      ****** ****** ****** ****** ****** ****** ****** ****** ****** ******
  14  ****** ****** ****** ****** ****** ****** ****** ****** ****** ******
      ****** ****** ****** ****** ****** ****** ****** ****** ****** ******
      ****** ****** ****** ****** ****** ****** ****** ****** ****** ******
  15  ****** ****** ****** ****** ****** ****** ****** ****** ****** ******
      ****** ****** ****** ****** ****** ****** ****** ****** ****** ******
      ****** ****** ****** ****** ****** ****** ****** ****** ****** ******
  16  ****** ****** ****** ****** ****** ****** ****** ****** ****** ******
      ****** ****** ****** ****** ****** ****** ****** ****** ****** ******
      ****** ****** ****** ****** ****** ****** ****** ****** ****** ******
  17  ****** ****** ****** ****** ****** ****** ****** ****** ****** ******
      ****** ****** ****** ****** ****** ****** ****** ****** ****** ******
      ****** ****** ****** ****** ****** ****** ****** ****** ****** ******
  18  ****** ****** ****** ****** ****** ****** ****** ****** ****** ******
      ****** ****** ****** ****** ****** ****** ****** ****** ****** ******
      ****** ****** ****** ****** ****** ****** ****** ****** ****** ******
  19  ****** ****** ****** ****** ****** ****** ****** ****** ****** ******
      ****** ****** ****** ****** ****** ****** ****** ****** ****** ******
      ****** ****** ****** ****** ****** ****** ****** ****** ****** ******
  20  ****** ****** ****** ****** ****** ****** ****** ****** ****** ******
      ****** ****** ****** ****** ****** ****** ****** ****** ****** ******
      ****** ****** ****** ****** ****** ****** ****** ****** ****** ******
  21  ****** ****** ****** ****** ****** ****** ****** ****** ****** ******
      ****** ****** ****** ****** ****** ****** ****** ****** ****** ******
      ****** ****** ****** ****** ****** ****** ****** ****** ****** ******
  22  ****** ****** ****** ****** ****** ****** ****** ****** ****** ******
      ****** ****** ****** ****** ****** ****** ****** ****** ****** ******
      ****** ****** ****** ****** ****** ****** ****** ****** ****** ******
  23  ****** ****** ****** ****** ****** ****** ****** ****** ****** ******
      ****** ****** ****** ****** ****** ****** ****** ****** ****** ******
      ****** ****** ****** ****** ****** ****** ****** ****** ****** ******
  24  ****** ****** ****** ****** ****** ****** ****** ****** ****** ******
      ****** ****** ****** ****** ****** ****** ****** ****** ****** ******
      ****** ****** ****** ****** ****** ****** ****** ****** ****** ******
  25  ****** ****** ****** ****** ****** ****** ****** ****** ****** ******
      ****** ****** ****** ****** ****** ****** ****** ****** ****** ******
      ****** ****** ****** ****** ****** ****** ****** ****** ****** ******

 HEAD WILL BE SAVED ON UNIT   51 AT END OF TIME STEP    1, STRESS PERIOD    7
1
  VOLUMETRIC BUDGET FOR ENTIRE MODEL AT END OF TIME STEP    1, STRESS PERIOD   7
  ------------------------------------------------------------------------------

     CUMULATIVE VOLUMES      L**3       RATES FOR THIS TIME STEP      L**3/T
     ------------------                 ------------------------

           IN:                                      IN:
           ---                                      ---
             STORAGE =    22439232.5259               STORAGE =       11329.2071
       CONSTANT HEAD =    77705289.8393         CONSTANT HEAD =      134176.1345
               WELLS =           0.0000                 WELLS =           0.0000
            RECHARGE =    15097200.0000              RECHARGE =           0.0000
      STREAM LEAKAGE =     4110561.2313        STREAM LEAKAGE =        6848.7076

            TOTAL IN =   119352283.5966              TOTAL IN =      152354.0492

          OUT:                                     OUT:
          ----                                     ----
             STORAGE =      952141.1923               STORAGE =          12.4109
       CONSTANT HEAD =           0.0000         CONSTANT HEAD =           0.0000
               WELLS =    20901818.9681                 WELLS =       30094.0510
            RECHARGE =           0.0000              RECHARGE =           0.0000
      STREAM LEAKAGE =    97498324.1931        STREAM LEAKAGE =      122247.5891

           TOTAL OUT =   119352284.3534             TOTAL OUT =      152354.0511

            IN - OUT =          -0.7569              IN - OUT =      -1.8943E-03

 PERCENT DISCREPANCY =          -0.00     PERCENT DISCREPANCY =          -0.00






         TIME SUMMARY AT END OF TIME STEP    1 IN STRESS PERIOD    7
                    SECONDS     MINUTES      HOURS       DAYS        YEARS
                    -----------------------------------------------------------
   TIME STEP LENGTH 7.86240E+06 1.31040E+05  2184.0      91.000     0.24914    
 STRESS PERIOD TIME 7.86240E+06 1.31040E+05  2184.0      91.000     0.24914    
         TOTAL TIME 5.52096E+07 9.20160E+05  15336.      639.00      1.7495    
1
1
                            STRESS PERIOD NO.    8, LENGTH =   91.00000    
                            -----------------------------------------------

                              NUMBER OF TIME STEPS =     1

                               MULTIPLIER FOR DELT =     1.500

                            INITIAL TIME STEP SIZE =   91.00000    

 WELL NO.  LAYER   ROW   COL   STRESS RATE         
 --------------------------------------------------
      1      1     23     10     -0.1039E+05
      2      1     17      3      -9136.    
      3      1     23     22     -0.1057E+05

      3 WELLS

                 RECHARGE =  1.000000E-03

 REUSING STREAM SEGMENT DATA FROM LAST STRESS PERIOD
 
 SOLVING FOR HEAD 


     6 CALLS TO PCG ROUTINE FOR TIME STEP   1 IN STRESS PERIOD    8
    23 TOTAL ITERATIONS

 OUTPUT CONTROL FOR STRESS PERIOD    8   TIME STEP    1
    SAVE BUDGET
    SAVE HEAD FOR ALL LAYERS
    PRINT HEAD FOR ALL LAYERS
 UBDSV2 SAVING "STREAMFLOW OUT  " ON UNIT  50 AT TIME STEP  1, STRESS PERIOD   8



 STREAM LISTING     PERIOD      8   STEP        1

 LAYER ROW COL. STREAM  RCH.  FLOW INTO     FLOW TO   FLOW OUT OF   OVRLND.     DIRECT     STREAM       STREAM     STREAM     STREAM   STREAMBED  STREAMBED
                SEG.NO.  NO.  STRM. RCH.    AQUIFER    STRM. RCH.    RUNOFF     PRECIP       ET          HEAD       DEPTH      WIDTH   CONDCTNC.   GRADIENT

   1   13    1     1     1    1.0000E+05 -2.3317E+03   1.0233E+05  0.000E+00  0.000E+00  0.000E+00  4.84070E+01  1.457E-01  2.000E+01  2.000E+04 -1.166E-01
   1   13    2     1     2    1.0233E+05 -4.3616E+03   1.0669E+05  0.000E+00  0.000E+00  0.000E+00  4.79326E+01  1.485E-01  2.000E+01  2.000E+04 -2.181E-01
   1   14    3     1     3    1.0669E+05 -2.6256E+03   1.0932E+05  0.000E+00  0.000E+00  0.000E+00  4.74583E+01  1.515E-01  2.000E+01  2.000E+04 -1.313E-01
   1   15    4     1     4    1.0932E+05 -1.8417E+03   1.1116E+05  0.000E+00  0.000E+00  0.000E+00  4.69829E+01  1.534E-01  2.000E+01  2.000E+04 -9.208E-02
   1   16    5     1     5    1.1116E+05 -1.9701E+03   1.1313E+05  0.000E+00  0.000E+00  0.000E+00  4.65072E+01  1.550E-01  2.000E+01  2.000E+04 -9.850E-02
   1   16    6     1     6    1.1313E+05 -2.5832E+03   1.1571E+05  0.000E+00  0.000E+00  0.000E+00  4.60318E+01  1.568E-01  2.000E+01  2.000E+04 -1.292E-01
   1   16    7     1     7    1.1571E+05 -2.8726E+03   1.1859E+05  0.000E+00  0.000E+00  0.000E+00  4.55568E+01  1.591E-01  2.000E+01  2.000E+04 -1.436E-01
   1   16    8     1     8    1.1859E+05 -3.0034E+03   1.2159E+05  0.000E+00  0.000E+00  0.000E+00  4.50819E+01  1.614E-01  2.000E+01  2.000E+04 -1.502E-01
   1   16    9     1     9    1.2159E+05 -3.0496E+03   1.2464E+05  0.000E+00  0.000E+00  0.000E+00  4.46071E+01  1.639E-01  2.000E+01  2.000E+04 -1.525E-01
   1   16   10     1    10    1.2464E+05 -3.0452E+03   1.2768E+05  0.000E+00  0.000E+00  0.000E+00  4.41322E+01  1.663E-01  2.000E+01  2.000E+04 -1.523E-01
   1   16   11     1    11    1.2768E+05 -3.0269E+03   1.3071E+05  0.000E+00  0.000E+00  0.000E+00  4.36573E+01  1.687E-01  2.000E+01  2.000E+04 -1.513E-01
   1   16   12     1    12    1.3071E+05 -4.0150E+03   1.3473E+05  0.000E+00  0.000E+00  0.000E+00  4.31828E+01  1.714E-01  2.000E+01  2.000E+04 -2.008E-01
   1   15   13     1    13    1.3473E+05 -3.8793E+03   1.3861E+05  0.000E+00  0.000E+00  0.000E+00  4.27086E+01  1.745E-01  2.000E+01  2.000E+04 -1.940E-01
   1   14   14     1    14    1.3861E+05 -4.0026E+03   1.4261E+05  0.000E+00  0.000E+00  0.000E+00  4.22343E+01  1.775E-01  2.000E+01  2.000E+04 -2.001E-01
   1   13   15     1    15    1.4261E+05 -4.3202E+03   1.4693E+05  0.000E+00  0.000E+00  0.000E+00  4.17602E+01  1.806E-01  2.000E+01  2.000E+04 -2.160E-01
   1   12   16     1    16    1.4693E+05 -5.4966E+03   1.5243E+05  0.000E+00  0.000E+00  0.000E+00  4.12865E+01  1.843E-01  2.000E+01  2.000E+04 -2.748E-01
   1   12   17     1    17    1.5243E+05 -3.6329E+03   1.5606E+05  0.000E+00  0.000E+00  0.000E+00  4.08126E+01  1.876E-01  2.000E+01  2.000E+04 -1.816E-01
   1   12   18     1    18    1.5606E+05 -3.4998E+03   1.5956E+05  0.000E+00  0.000E+00  0.000E+00  4.03379E+01  1.902E-01  2.000E+01  2.000E+04 -1.750E-01
   1   12   19     1    19    1.5956E+05 -4.5648E+03   1.6412E+05  0.000E+00  0.000E+00  0.000E+00  3.98636E+01  1.931E-01  2.000E+01  2.000E+04 -2.282E-01
   1   13   20     1    20    1.6412E+05 -3.0480E+03   1.6717E+05  0.000E+00  0.000E+00  0.000E+00  3.93890E+01  1.958E-01  2.000E+01  2.000E+04 -1.524E-01
   1   14   21     1    21    1.6717E+05 -2.2588E+03   1.6943E+05  0.000E+00  0.000E+00  0.000E+00  3.89136E+01  1.977E-01  2.000E+01  2.000E+04 -1.129E-01
   1   14   22     1    22    1.6943E+05  4.9996E+03   1.6443E+05  0.000E+00  0.000E+00  0.000E+00  3.84354E+01  1.967E-01  2.000E+01  2.000E+04  2.500E-01
   1    9   30     2     1    5.0000E+04 -2.7820E+03   5.2782E+04  0.000E+00  0.000E+00  0.000E+00  4.02428E+01  1.178E-01  2.000E+01  2.000E+04 -1.391E-01
   1    9   29     2     2    5.2782E+04 -3.1138E+03   5.5896E+04  0.000E+00  0.000E+00  0.000E+00  3.99968E+01  1.218E-01  2.000E+01  2.000E+04 -1.557E-01
   1    9   28     2     3    5.5896E+04 -3.4942E+03   5.9390E+04  0.000E+00  0.000E+00  0.000E+00  3.97512E+01  1.262E-01  2.000E+01  2.000E+04 -1.747E-01
   1    9   27     2     4    5.9390E+04 -6.2214E+03   6.5612E+04  0.000E+00  0.000E+00  0.000E+00  3.95075E+01  1.325E-01  2.000E+01  2.000E+04 -3.111E-01
   1   10   26     2     5    6.5612E+04 -3.8553E+03   6.9467E+04  0.000E+00  0.000E+00  0.000E+00  3.92638E+01  1.388E-01  2.000E+01  2.000E+04 -1.928E-01
   1   11   25     2     6    6.9467E+04 -2.8128E+03   7.2280E+04  0.000E+00  0.000E+00  0.000E+00  3.90178E+01  1.428E-01  2.000E+01  2.000E+04 -1.406E-01
   1   12   24     2     7    7.2280E+04 -1.9703E+03   7.4250E+04  0.000E+00  0.000E+00  0.000E+00  3.87707E+01  1.457E-01  2.000E+01  2.000E+04 -9.852E-02
   1   13   23     2     8    7.4250E+04 -1.1570E+03   7.5407E+04  0.000E+00  0.000E+00  0.000E+00  3.85226E+01  1.476E-01  2.000E+01  2.000E+04 -5.785E-02
   1   14   22     2     9    7.5407E+04  1.7371E+03   7.3670E+04  0.000E+00  0.000E+00  0.000E+00  3.82722E+01  1.472E-01  2.000E+01  2.000E+04  8.685E-02
   1   14   22     3     1    2.3810E+05 -8.5132E+03   2.4661E+05  0.000E+00  0.000E+00  0.000E+00  3.77597E+01  2.042E-01  2.000E+01  2.000E+04 -4.257E-01
   1   15   23     3     2    2.4661E+05 -2.8511E+03   2.4946E+05  0.000E+00  0.000E+00  0.000E+00  3.68737E+01  2.070E-01  2.000E+01  2.000E+04 -1.426E-01
   1   15   24     3     3    2.4946E+05 -1.9870E+03   2.5145E+05  0.000E+00  0.000E+00  0.000E+00  3.59860E+01  2.082E-01  2.000E+01  2.000E+04 -9.935E-02
   1   15   25     3     4    2.5145E+05 -1.8934E+03   2.5334E+05  0.000E+00  0.000E+00  0.000E+00  3.50981E+01  2.092E-01  2.000E+01  2.000E+04 -9.467E-02
   1   15   26     3     5    2.5334E+05 -2.2907E+03   2.5564E+05  0.000E+00  0.000E+00  0.000E+00  3.42102E+01  2.102E-01  2.000E+01  2.000E+04 -1.145E-01
   1   16   27     3     6    2.5564E+05 -3.1762E+03   2.5881E+05  0.000E+00  0.000E+00  0.000E+00  3.33227E+01  2.116E-01  2.000E+01  2.000E+04 -1.588E-01
   1   17   28     3     7    2.5881E+05 -3.9808E+03   2.6279E+05  0.000E+00  0.000E+00  0.000E+00  3.24356E+01  2.133E-01  2.000E+01  2.000E+04 -1.990E-01
   1   18   29     3     8    2.6279E+05 -5.6356E+03   2.6843E+05  0.000E+00  0.000E+00  0.000E+00  3.15490E+01  2.157E-01  2.000E+01  2.000E+04 -2.818E-01
   1   18   30     3     9    2.6843E+05 -4.7650E+03   2.7319E+05  0.000E+00  0.000E+00  0.000E+00  3.06627E+01  2.182E-01  2.000E+01  2.000E+04 -2.383E-01



1
              HEAD IN LAYER   1 AT END OF TIME STEP   1 IN STRESS PERIOD    8
  ---------------------------------------------------------------------------

          1      2      3      4      5      6      7      8      9     10
         11     12     13     14     15     16     17     18     19     20
         21     22     23     24     25     26     27     28     29     30
 .........................................................................
   1  ****** ****** ****** ****** ****** ****** ****** ****** ****** ******
      ****** ****** ****** ****** ****** ****** ****** ****** ****** ******
      ****** ****** ****** ****** ****** ****** ****** ****** ****** ******
   2  ****** ****** ****** ****** ****** ****** ****** ****** ****** ******
      ****** ****** ****** ****** ****** ****** ****** ****** ****** ******
      ****** ****** ****** ****** ****** ****** ****** ****** ****** ******
   3  ****** ****** ****** ****** ****** ****** ****** ****** ****** ******
      ****** ****** ****** ****** ****** ****** ****** ****** ****** ******
      ****** ****** ****** ****** ****** ****** ****** ****** ****** ******
   4  ****** ****** ****** ****** ****** ****** ****** ****** ****** ******
      ****** ****** ****** ****** ****** ****** ****** ****** ****** ******
      ****** ****** ****** ****** ****** ****** ****** ****** ****** ******
   5  ****** ****** ****** ****** ****** ****** ****** ****** ****** ******
      ****** ****** ****** ****** ****** ****** ****** ****** ****** ******
      ****** ****** ****** ****** ****** ****** ****** ****** ****** ******
   6  ****** ****** ****** ****** ****** ****** ****** ****** ****** ******
      ****** ****** ****** ****** ****** ****** ****** ****** ****** ******
      ****** ****** ****** ****** ****** ****** ****** ****** ****** ******
   7  ****** ****** ****** ****** ****** ****** ****** ****** ****** ******
      ****** ****** ****** ****** ****** ****** ****** ****** ****** ******
      ****** ****** ****** ****** ****** ****** ****** ****** ****** ******
   8  ****** ****** ****** ****** ****** ****** ****** ****** ****** ******
      ****** ****** ****** ****** ****** ****** ****** ****** ****** ******
      ****** ****** ****** ****** ****** ****** ****** ****** ****** ******
   9  ****** ****** ****** ****** ****** ****** ****** ****** ****** ******
      ****** ****** ****** ****** ****** ****** ****** ****** ****** ******
      ****** ****** ****** ****** ****** ****** ****** ****** ****** ******
  10  ****** ****** ****** ****** ****** ****** ****** ****** ****** ******
      ****** ****** ****** ****** ****** ****** ****** ****** ****** ******
      ****** ****** ****** ****** ****** ****** ****** ****** ****** ******
  11  ****** ****** ****** ****** ****** ****** ****** ****** ****** ******
      ****** ****** ****** ****** ****** ****** ****** ****** ****** ******
      ****** ****** ****** ****** ****** ****** ****** ****** ****** ******
  12  ****** ****** ****** ****** ****** ****** ****** ****** ****** ******
      ****** ****** ****** ****** ****** ****** ****** ****** ****** ******
      ****** ****** ****** ****** ****** ****** ****** ****** ****** ******
  13  ****** ****** ****** ****** ****** ****** ****** ****** ****** ******
      ****** ****** ****** ****** ****** ****** ****** ****** ****** ******
      ****** ****** ****** ****** ****** ****** ****** ****** ****** ******
  14  ****** ****** ****** ****** ****** ****** ****** ****** ****** ******
      ****** ****** ****** ****** ****** ****** ****** ****** ****** ******
      ****** ****** ****** ****** ****** ****** ****** ****** ****** ******
  15  ****** ****** ****** ****** ****** ****** ****** ****** ****** ******
      ****** ****** ****** ****** ****** ****** ****** ****** ****** ******
      ****** ****** ****** ****** ****** ****** ****** ****** ****** ******
  16  ****** ****** ****** ****** ****** ****** ****** ****** ****** ******
      ****** ****** ****** ****** ****** ****** ****** ****** ****** ******
      ****** ****** ****** ****** ****** ****** ****** ****** ****** ******
  17  ****** ****** ****** ****** ****** ****** ****** ****** ****** ******
      ****** ****** ****** ****** ****** ****** ****** ****** ****** ******
      ****** ****** ****** ****** ****** ****** ****** ****** ****** ******
  18  ****** ****** ****** ****** ****** ****** ****** ****** ****** ******
      ****** ****** ****** ****** ****** ****** ****** ****** ****** ******
      ****** ****** ****** ****** ****** ****** ****** ****** ****** ******
  19  ****** ****** ****** ****** ****** ****** ****** ****** ****** ******
      ****** ****** ****** ****** ****** ****** ****** ****** ****** ******
      ****** ****** ****** ****** ****** ****** ****** ****** ****** ******
  20  ****** ****** ****** ****** ****** ****** ****** ****** ****** ******
      ****** ****** ****** ****** ****** ****** ****** ****** ****** ******
      ****** ****** ****** ****** ****** ****** ****** ****** ****** ******
  21  ****** ****** ****** ****** ****** ****** ****** ****** ****** ******
      ****** ****** ****** ****** ****** ****** ****** ****** ****** ******
      ****** ****** ****** ****** ****** ****** ****** ****** ****** ******
  22  ****** ****** ****** ****** ****** ****** ****** ****** ****** ******
      ****** ****** ****** ****** ****** ****** ****** ****** ****** ******
      ****** ****** ****** ****** ****** ****** ****** ****** ****** ******
  23  ****** ****** ****** ****** ****** ****** ****** ****** ****** ******
      ****** ****** ****** ****** ****** ****** ****** ****** ****** ******
      ****** ****** ****** ****** ****** ****** ****** ****** ****** ******
  24  ****** ****** ****** ****** ****** ****** ****** ****** ****** ******
      ****** ****** ****** ****** ****** ****** ****** ****** ****** ******
      ****** ****** ****** ****** ****** ****** ****** ****** ****** ******
  25  ****** ****** ****** ****** ****** ****** ****** ****** ****** ******
      ****** ****** ****** ****** ****** ****** ****** ****** ****** ******
      ****** ****** ****** ****** ****** ****** ****** ****** ****** ******

 HEAD WILL BE SAVED ON UNIT   51 AT END OF TIME STEP    1, STRESS PERIOD    8
1
  VOLUMETRIC BUDGET FOR ENTIRE MODEL AT END OF TIME STEP    1, STRESS PERIOD   8
  ------------------------------------------------------------------------------

     CUMULATIVE VOLUMES      L**3       RATES FOR THIS TIME STEP      L**3/T
     ------------------                 ------------------------

           IN:                                      IN:
           ---                                      ---
             STORAGE =    22439232.5259               STORAGE =           0.0000
       CONSTANT HEAD =    89494200.9194         CONSTANT HEAD =      129548.4734
               WELLS =           0.0000                 WELLS =           0.0000
            RECHARGE =    17608800.0000              RECHARGE =       27600.0000
      STREAM LEAKAGE =     4723597.1435        STREAM LEAKAGE =        6736.6584

            TOTAL IN =   134265830.5889              TOTAL IN =      163885.1318

          OUT:                                     OUT:
          ----                                     ----
             STORAGE =     1303536.5027               STORAGE =        3861.4869
       CONSTANT HEAD =           0.0000         CONSTANT HEAD =           0.0000
               WELLS =    23640377.6066                 WELLS =       30094.0510
            RECHARGE =           0.0000              RECHARGE =           0.0000
      STREAM LEAKAGE =   109321917.1552        STREAM LEAKAGE =      129929.5930

           TOTAL OUT =   134265831.2645             TOTAL OUT =      163885.1309

            IN - OUT =          -0.6756              IN - OUT =       8.9269E-04

 PERCENT DISCREPANCY =          -0.00     PERCENT DISCREPANCY =           0.00






         TIME SUMMARY AT END OF TIME STEP    1 IN STRESS PERIOD    8
                    SECONDS     MINUTES      HOURS       DAYS        YEARS
                    -----------------------------------------------------------
   TIME STEP LENGTH 7.86240E+06 1.31040E+05  2184.0      91.000     0.24914    
 STRESS PERIOD TIME 7.86240E+06 1.31040E+05  2184.0      91.000     0.24914    
         TOTAL TIME 6.30720E+07 1.05120E+06  17520.      730.00      1.9986    
1
1
                            STRESS PERIOD NO.    9, LENGTH =   92.00000    
                            -----------------------------------------------

                              NUMBER OF TIME STEPS =     1

                               MULTIPLIER FOR DELT =     1.500

                            INITIAL TIME STEP SIZE =   92.00000    

 WELL NO.  LAYER   ROW   COL   STRESS RATE         
 --------------------------------------------------
      1      1     23     10     -0.1039E+05
      2      1     17      3      -9136.    
      3      1     23     22     -0.1057E+05

      3 WELLS

                 RECHARGE =  5.000000E-04

 REUSING STREAM SEGMENT DATA FROM LAST STRESS PERIOD
 
 SOLVING FOR HEAD 


     6 CALLS TO PCG ROUTINE FOR TIME STEP   1 IN STRESS PERIOD    9
    22 TOTAL ITERATIONS

 OUTPUT CONTROL FOR STRESS PERIOD    9   TIME STEP    1
    SAVE BUDGET
    SAVE HEAD FOR ALL LAYERS
    PRINT HEAD FOR ALL LAYERS
 UBDSV2 SAVING "STREAMFLOW OUT  " ON UNIT  50 AT TIME STEP  1, STRESS PERIOD   9



 STREAM LISTING     PERIOD      9   STEP        1

 LAYER ROW COL. STREAM  RCH.  FLOW INTO     FLOW TO   FLOW OUT OF   OVRLND.     DIRECT     STREAM       STREAM     STREAM     STREAM   STREAMBED  STREAMBED
                SEG.NO.  NO.  STRM. RCH.    AQUIFER    STRM. RCH.    RUNOFF     PRECIP       ET          HEAD       DEPTH      WIDTH   CONDCTNC.   GRADIENT

   1   13    1     1     1    1.0000E+05 -2.2195E+03   1.0222E+05  0.000E+00  0.000E+00  0.000E+00  4.84070E+01  1.456E-01  2.000E+01  2.000E+04 -1.110E-01
   1   13    2     1     2    1.0222E+05 -4.2121E+03   1.0643E+05  0.000E+00  0.000E+00  0.000E+00  4.79325E+01  1.484E-01  2.000E+01  2.000E+04 -2.106E-01
   1   14    3     1     3    1.0643E+05 -2.4771E+03   1.0891E+05  0.000E+00  0.000E+00  0.000E+00  4.74580E+01  1.512E-01  2.000E+01  2.000E+04 -1.239E-01
   1   15    4     1     4    1.0891E+05 -1.6974E+03   1.1061E+05  0.000E+00  0.000E+00  0.000E+00  4.69825E+01  1.530E-01  2.000E+01  2.000E+04 -8.487E-02
   1   16    5     1     5    1.1061E+05 -1.8424E+03   1.1245E+05  0.000E+00  0.000E+00  0.000E+00  4.65067E+01  1.544E-01  2.000E+01  2.000E+04 -9.212E-02
   1   16    6     1     6    1.1245E+05 -2.4776E+03   1.1493E+05  0.000E+00  0.000E+00  0.000E+00  4.60312E+01  1.562E-01  2.000E+01  2.000E+04 -1.239E-01
   1   16    7     1     7    1.1493E+05 -2.7643E+03   1.1769E+05  0.000E+00  0.000E+00  0.000E+00  4.55561E+01  1.584E-01  2.000E+01  2.000E+04 -1.382E-01
   1   16    8     1     8    1.1769E+05 -2.8936E+03   1.2058E+05  0.000E+00  0.000E+00  0.000E+00  4.50811E+01  1.607E-01  2.000E+01  2.000E+04 -1.447E-01
   1   16    9     1     9    1.2058E+05 -2.9396E+03   1.2352E+05  0.000E+00  0.000E+00  0.000E+00  4.46062E+01  1.630E-01  2.000E+01  2.000E+04 -1.470E-01
   1   16   10     1    10    1.2352E+05 -2.9360E+03   1.2646E+05  0.000E+00  0.000E+00  0.000E+00  4.41313E+01  1.654E-01  2.000E+01  2.000E+04 -1.468E-01
   1   16   11     1    11    1.2646E+05 -2.9194E+03   1.2938E+05  0.000E+00  0.000E+00  0.000E+00  4.36563E+01  1.677E-01  2.000E+01  2.000E+04 -1.460E-01
   1   16   12     1    12    1.2938E+05 -3.8799E+03   1.3326E+05  0.000E+00  0.000E+00  0.000E+00  4.31817E+01  1.703E-01  2.000E+01  2.000E+04 -1.940E-01
   1   15   13     1    13    1.3326E+05 -3.7280E+03   1.3699E+05  0.000E+00  0.000E+00  0.000E+00  4.27074E+01  1.733E-01  2.000E+01  2.000E+04 -1.864E-01
   1   14   14     1    14    1.3699E+05 -3.8473E+03   1.4083E+05  0.000E+00  0.000E+00  0.000E+00  4.22330E+01  1.762E-01  2.000E+01  2.000E+04 -1.924E-01
   1   13   15     1    15    1.4083E+05 -4.1664E+03   1.4500E+05  0.000E+00  0.000E+00  0.000E+00  4.17588E+01  1.792E-01  2.000E+01  2.000E+04 -2.083E-01
   1   12   16     1    16    1.4500E+05 -5.3496E+03   1.5035E+05  0.000E+00  0.000E+00  0.000E+00  4.12850E+01  1.828E-01  2.000E+01  2.000E+04 -2.675E-01
   1   12   17     1    17    1.5035E+05 -3.5233E+03   1.5387E+05  0.000E+00  0.000E+00  0.000E+00  4.08110E+01  1.860E-01  2.000E+01  2.000E+04 -1.762E-01
   1   12   18     1    18    1.5387E+05 -3.3921E+03   1.5727E+05  0.000E+00  0.000E+00  0.000E+00  4.03363E+01  1.886E-01  2.000E+01  2.000E+04 -1.696E-01
   1   12   19     1    19    1.5727E+05 -4.4339E+03   1.6170E+05  0.000E+00  0.000E+00  0.000E+00  3.98619E+01  1.914E-01  2.000E+01  2.000E+04 -2.217E-01
   1   13   20     1    20    1.6170E+05 -2.9198E+03   1.6462E+05  0.000E+00  0.000E+00  0.000E+00  3.93872E+01  1.940E-01  2.000E+01  2.000E+04 -1.460E-01
   1   14   21     1    21    1.6462E+05 -2.1434E+03   1.6676E+05  0.000E+00  0.000E+00  0.000E+00  3.89118E+01  1.958E-01  2.000E+01  2.000E+04 -1.072E-01
   1   14   22     1    22    1.6676E+05  5.0228E+03   1.6174E+05  0.000E+00  0.000E+00  0.000E+00  3.84335E+01  1.948E-01  2.000E+01  2.000E+04  2.511E-01
   1    9   30     2     1    5.0000E+04 -2.6825E+03   5.2682E+04  0.000E+00  0.000E+00  0.000E+00  4.02427E+01  1.177E-01  2.000E+01  2.000E+04 -1.341E-01
   1    9   29     2     2    5.2682E+04 -3.0150E+03   5.5697E+04  0.000E+00  0.000E+00  0.000E+00  3.99966E+01  1.216E-01  2.000E+01  2.000E+04 -1.507E-01
   1    9   28     2     3    5.5697E+04 -3.3959E+03   5.9093E+04  0.000E+00  0.000E+00  0.000E+00  3.97509E+01  1.259E-01  2.000E+01  2.000E+04 -1.698E-01
   1    9   27     2     4    5.9093E+04 -6.0922E+03   6.5186E+04  0.000E+00  0.000E+00  0.000E+00  3.95070E+01  1.320E-01  2.000E+01  2.000E+04 -3.046E-01
   1   10   26     2     5    6.5186E+04 -3.7194E+03   6.8905E+04  0.000E+00  0.000E+00  0.000E+00  3.92632E+01  1.382E-01  2.000E+01  2.000E+04 -1.860E-01
   1   11   25     2     6    6.8905E+04 -2.6815E+03   7.1586E+04  0.000E+00  0.000E+00  0.000E+00  3.90171E+01  1.421E-01  2.000E+01  2.000E+04 -1.341E-01
   1   12   24     2     7    7.1586E+04 -1.8524E+03   7.3439E+04  0.000E+00  0.000E+00  0.000E+00  3.87698E+01  1.448E-01  2.000E+01  2.000E+04 -9.262E-02
   1   13   23     2     8    7.3439E+04 -1.0628E+03   7.4502E+04  0.000E+00  0.000E+00  0.000E+00  3.85216E+01  1.466E-01  2.000E+01  2.000E+04 -5.314E-02
   1   14   22     2     9    7.4502E+04  1.7763E+03   7.2725E+04  0.000E+00  0.000E+00  0.000E+00  3.82711E+01  1.461E-01  2.000E+01  2.000E+04  8.882E-02
   1   14   22     3     1    2.3447E+05 -8.4890E+03   2.4295E+05  0.000E+00  0.000E+00  0.000E+00  3.77579E+01  2.023E-01  2.000E+01  2.000E+04 -4.244E-01
   1   15   23     3     2    2.4295E+05 -2.7440E+03   2.4570E+05  0.000E+00  0.000E+00  0.000E+00  3.68718E+01  2.052E-01  2.000E+01  2.000E+04 -1.372E-01
   1   15   24     3     3    2.4570E+05 -1.9068E+03   2.4761E+05  0.000E+00  0.000E+00  0.000E+00  3.59841E+01  2.063E-01  2.000E+01  2.000E+04 -9.534E-02
   1   15   25     3     4    2.4761E+05 -1.8120E+03   2.4942E+05  0.000E+00  0.000E+00  0.000E+00  3.50961E+01  2.073E-01  2.000E+01  2.000E+04 -9.060E-02
   1   15   26     3     5    2.4942E+05 -2.1859E+03   2.5160E+05  0.000E+00  0.000E+00  0.000E+00  3.42083E+01  2.083E-01  2.000E+01  2.000E+04 -1.093E-01
   1   16   27     3     6    2.5160E+05 -3.0476E+03   2.5465E+05  0.000E+00  0.000E+00  0.000E+00  3.33207E+01  2.096E-01  2.000E+01  2.000E+04 -1.524E-01
   1   17   28     3     7    2.5465E+05 -3.8502E+03   2.5850E+05  0.000E+00  0.000E+00  0.000E+00  3.24335E+01  2.113E-01  2.000E+01  2.000E+04 -1.925E-01
   1   18   29     3     8    2.5850E+05 -5.5146E+03   2.6402E+05  0.000E+00  0.000E+00  0.000E+00  3.15469E+01  2.136E-01  2.000E+01  2.000E+04 -2.757E-01
   1   18   30     3     9    2.6402E+05 -4.6717E+03   2.6869E+05  0.000E+00  0.000E+00  0.000E+00  3.06605E+01  2.161E-01  2.000E+01  2.000E+04 -2.336E-01



1
              HEAD IN LAYER   1 AT END OF TIME STEP   1 IN STRESS PERIOD    9
  ---------------------------------------------------------------------------

          1      2      3      4      5      6      7      8      9     10
         11     12     13     14     15     16     17     18     19     20
         21     22     23     24     25     26     27     28     29     30
 .........................................................................
   1  ****** ****** ****** ****** ****** ****** ****** ****** ****** ******
      ****** ****** ****** ****** ****** ****** ****** ****** ****** ******
      ****** ****** ****** ****** ****** ****** ****** ****** ****** ******
   2  ****** ****** ****** ****** ****** ****** ****** ****** ****** ******
      ****** ****** ****** ****** ****** ****** ****** ****** ****** ******
      ****** ****** ****** ****** ****** ****** ****** ****** ****** ******
   3  ****** ****** ****** ****** ****** ****** ****** ****** ****** ******
      ****** ****** ****** ****** ****** ****** ****** ****** ****** ******
      ****** ****** ****** ****** ****** ****** ****** ****** ****** ******
   4  ****** ****** ****** ****** ****** ****** ****** ****** ****** ******
      ****** ****** ****** ****** ****** ****** ****** ****** ****** ******
      ****** ****** ****** ****** ****** ****** ****** ****** ****** ******
   5  ****** ****** ****** ****** ****** ****** ****** ****** ****** ******
      ****** ****** ****** ****** ****** ****** ****** ****** ****** ******
      ****** ****** ****** ****** ****** ****** ****** ****** ****** ******
   6  ****** ****** ****** ****** ****** ****** ****** ****** ****** ******
      ****** ****** ****** ****** ****** ****** ****** ****** ****** ******
      ****** ****** ****** ****** ****** ****** ****** ****** ****** ******
   7  ****** ****** ****** ****** ****** ****** ****** ****** ****** ******
      ****** ****** ****** ****** ****** ****** ****** ****** ****** ******
      ****** ****** ****** ****** ****** ****** ****** ****** ****** ******
   8  ****** ****** ****** ****** ****** ****** ****** ****** ****** ******
      ****** ****** ****** ****** ****** ****** ****** ****** ****** ******
      ****** ****** ****** ****** ****** ****** ****** ****** ****** ******
   9  ****** ****** ****** ****** ****** ****** ****** ****** ****** ******
      ****** ****** ****** ****** ****** ****** ****** ****** ****** ******
      ****** ****** ****** ****** ****** ****** ****** ****** ****** ******
  10  ****** ****** ****** ****** ****** ****** ****** ****** ****** ******
      ****** ****** ****** ****** ****** ****** ****** ****** ****** ******
      ****** ****** ****** ****** ****** ****** ****** ****** ****** ******
  11  ****** ****** ****** ****** ****** ****** ****** ****** ****** ******
      ****** ****** ****** ****** ****** ****** ****** ****** ****** ******
      ****** ****** ****** ****** ****** ****** ****** ****** ****** ******
  12  ****** ****** ****** ****** ****** ****** ****** ****** ****** ******
      ****** ****** ****** ****** ****** ****** ****** ****** ****** ******
      ****** ****** ****** ****** ****** ****** ****** ****** ****** ******
  13  ****** ****** ****** ****** ****** ****** ****** ****** ****** ******
      ****** ****** ****** ****** ****** ****** ****** ****** ****** ******
      ****** ****** ****** ****** ****** ****** ****** ****** ****** ******
  14  ****** ****** ****** ****** ****** ****** ****** ****** ****** ******
      ****** ****** ****** ****** ****** ****** ****** ****** ****** ******
      ****** ****** ****** ****** ****** ****** ****** ****** ****** ******
  15  ****** ****** ****** ****** ****** ****** ****** ****** ****** ******
      ****** ****** ****** ****** ****** ****** ****** ****** ****** ******
      ****** ****** ****** ****** ****** ****** ****** ****** ****** ******
  16  ****** ****** ****** ****** ****** ****** ****** ****** ****** ******
      ****** ****** ****** ****** ****** ****** ****** ****** ****** ******
      ****** ****** ****** ****** ****** ****** ****** ****** ****** ******
  17  ****** ****** ****** ****** ****** ****** ****** ****** ****** ******
      ****** ****** ****** ****** ****** ****** ****** ****** ****** ******
      ****** ****** ****** ****** ****** ****** ****** ****** ****** ******
  18  ****** ****** ****** ****** ****** ****** ****** ****** ****** ******
      ****** ****** ****** ****** ****** ****** ****** ****** ****** ******
      ****** ****** ****** ****** ****** ****** ****** ****** ****** ******
  19  ****** ****** ****** ****** ****** ****** ****** ****** ****** ******
      ****** ****** ****** ****** ****** ****** ****** ****** ****** ******
      ****** ****** ****** ****** ****** ****** ****** ****** ****** ******
  20  ****** ****** ****** ****** ****** ****** ****** ****** ****** ******
      ****** ****** ****** ****** ****** ****** ****** ****** ****** ******
      ****** ****** ****** ****** ****** ****** ****** ****** ****** ******
  21  ****** ****** ****** ****** ****** ****** ****** ****** ****** ******
      ****** ****** ****** ****** ****** ****** ****** ****** ****** ******
      ****** ****** ****** ****** ****** ****** ****** ****** ****** ******
  22  ****** ****** ****** ****** ****** ****** ****** ****** ****** ******
      ****** ****** ****** ****** ****** ****** ****** ****** ****** ******
      ****** ****** ****** ****** ****** ****** ****** ****** ****** ******
  23  ****** ****** ****** ****** ****** ****** ****** ****** ****** ******
      ****** ****** ****** ****** ****** ****** ****** ****** ****** ******
      ****** ****** ****** ****** ****** ****** ****** ****** ****** ******
  24  ****** ****** ****** ****** ****** ****** ****** ****** ****** ******
      ****** ****** ****** ****** ****** ****** ****** ****** ****** ******
      ****** ****** ****** ****** ****** ****** ****** ****** ****** ******
  25  ****** ****** ****** ****** ****** ****** ****** ****** ****** ******
      ****** ****** ****** ****** ****** ****** ****** ****** ****** ******
      ****** ****** ****** ****** ****** ****** ****** ****** ****** ******

 HEAD WILL BE SAVED ON UNIT   51 AT END OF TIME STEP    1, STRESS PERIOD    9
1
  VOLUMETRIC BUDGET FOR ENTIRE MODEL AT END OF TIME STEP    1, STRESS PERIOD   9
  ------------------------------------------------------------------------------

     CUMULATIVE VOLUMES      L**3       RATES FOR THIS TIME STEP      L**3/T
     ------------------                 ------------------------

           IN:                                      IN:
           ---                                      ---
             STORAGE =    22679526.1938               STORAGE =        2611.8877
       CONSTANT HEAD =   101672159.2464         CONSTANT HEAD =      132369.1122
               WELLS =           0.0000                 WELLS =           0.0000
            RECHARGE =    18878400.0000              RECHARGE =       13800.0000
      STREAM LEAKAGE =     5349114.0634        STREAM LEAKAGE =        6799.0970

            TOTAL IN =   148579199.5036              TOTAL IN =      155580.0969

          OUT:                                     OUT:
          ----                                     ----
             STORAGE =     1303536.5027               STORAGE =           0.0000
       CONSTANT HEAD =           0.0000         CONSTANT HEAD =           0.0000
               WELLS =    26409030.2961                 WELLS =       30094.0510
            RECHARGE =           0.0000              RECHARGE =           0.0000
      STREAM LEAKAGE =   120866633.6522        STREAM LEAKAGE =      125486.0489

           TOTAL OUT =   148579200.4510             TOTAL OUT =      155580.0999

            IN - OUT =          -0.9474              IN - OUT =      -2.9541E-03

 PERCENT DISCREPANCY =          -0.00     PERCENT DISCREPANCY =          -0.00






         TIME SUMMARY AT END OF TIME STEP    1 IN STRESS PERIOD    9
                    SECONDS     MINUTES      HOURS       DAYS        YEARS
                    -----------------------------------------------------------
   TIME STEP LENGTH 7.94880E+06 1.32480E+05  2208.0      92.000     0.25188    
 STRESS PERIOD TIME 7.94880E+06 1.32480E+05  2208.0      92.000     0.25188    
         TOTAL TIME 7.10208E+07 1.18368E+06  19728.      822.00      2.2505    
1
1
                            STRESS PERIOD NO.   10, LENGTH =   91.00000    
                            -----------------------------------------------

                              NUMBER OF TIME STEPS =     1

                               MULTIPLIER FOR DELT =     1.500

                            INITIAL TIME STEP SIZE =   91.00000    

 WELL NO.  LAYER   ROW   COL   STRESS RATE         
 --------------------------------------------------
      1      1     23     10     -0.1039E+05
      2      1     17      3      -9136.    
      3      1     23     22     -0.1057E+05

      3 WELLS

                 RECHARGE =  2.000000E-03

 REUSING STREAM SEGMENT DATA FROM LAST STRESS PERIOD
 
 SOLVING FOR HEAD 


     7 CALLS TO PCG ROUTINE FOR TIME STEP   1 IN STRESS PERIOD   10
    26 TOTAL ITERATIONS

 OUTPUT CONTROL FOR STRESS PERIOD   10   TIME STEP    1
    SAVE BUDGET
    SAVE HEAD FOR ALL LAYERS
    PRINT HEAD FOR ALL LAYERS
 UBDSV2 SAVING "STREAMFLOW OUT  " ON UNIT  50 AT TIME STEP  1, STRESS PERIOD  10



 STREAM LISTING     PERIOD     10   STEP        1

 LAYER ROW COL. STREAM  RCH.  FLOW INTO     FLOW TO   FLOW OUT OF   OVRLND.     DIRECT     STREAM       STREAM     STREAM     STREAM   STREAMBED  STREAMBED
                SEG.NO.  NO.  STRM. RCH.    AQUIFER    STRM. RCH.    RUNOFF     PRECIP       ET          HEAD       DEPTH      WIDTH   CONDCTNC.   GRADIENT

   1   13    1     1     1    1.0000E+05 -2.6435E+03   1.0264E+05  0.000E+00  0.000E+00  0.000E+00  4.84072E+01  1.458E-01  2.000E+01  2.000E+04 -1.322E-01
   1   13    2     1     2    1.0264E+05 -4.7750E+03   1.0742E+05  0.000E+00  0.000E+00  0.000E+00  4.79331E+01  1.490E-01  2.000E+01  2.000E+04 -2.387E-01
   1   14    3     1     3    1.0742E+05 -3.0453E+03   1.1046E+05  0.000E+00  0.000E+00  0.000E+00  4.74591E+01  1.523E-01  2.000E+01  2.000E+04 -1.523E-01
   1   15    4     1     4    1.1046E+05 -2.2591E+03   1.1272E+05  0.000E+00  0.000E+00  0.000E+00  4.69840E+01  1.545E-01  2.000E+01  2.000E+04 -1.130E-01
   1   16    5     1     5    1.1272E+05 -2.3601E+03   1.1508E+05  0.000E+00  0.000E+00  0.000E+00  4.65087E+01  1.564E-01  2.000E+01  2.000E+04 -1.180E-01
   1   16    6     1     6    1.1508E+05 -2.8864E+03   1.1797E+05  0.000E+00  0.000E+00  0.000E+00  4.60336E+01  1.586E-01  2.000E+01  2.000E+04 -1.443E-01
   1   16    7     1     7    1.1797E+05 -3.1796E+03   1.2115E+05  0.000E+00  0.000E+00  0.000E+00  4.55587E+01  1.610E-01  2.000E+01  2.000E+04 -1.590E-01
   1   16    8     1     8    1.2115E+05 -3.3127E+03   1.2446E+05  0.000E+00  0.000E+00  0.000E+00  4.50841E+01  1.636E-01  2.000E+01  2.000E+04 -1.656E-01
   1   16    9     1     9    1.2446E+05 -3.3585E+03   1.2782E+05  0.000E+00  0.000E+00  0.000E+00  4.46095E+01  1.663E-01  2.000E+01  2.000E+04 -1.679E-01
   1   16   10     1    10    1.2782E+05 -3.3509E+03   1.3117E+05  0.000E+00  0.000E+00  0.000E+00  4.41348E+01  1.689E-01  2.000E+01  2.000E+04 -1.675E-01
   1   16   11     1    11    1.3117E+05 -3.3285E+03   1.3450E+05  0.000E+00  0.000E+00  0.000E+00  4.36602E+01  1.715E-01  2.000E+01  2.000E+04 -1.664E-01
   1   16   12     1    12    1.3450E+05 -4.4061E+03   1.3891E+05  0.000E+00  0.000E+00  0.000E+00  4.31859E+01  1.745E-01  2.000E+01  2.000E+04 -2.203E-01
   1   15   13     1    13    1.3891E+05 -4.3009E+03   1.4321E+05  0.000E+00  0.000E+00  0.000E+00  4.27119E+01  1.778E-01  2.000E+01  2.000E+04 -2.150E-01
   1   14   14     1    14    1.4321E+05 -4.4315E+03   1.4764E+05  0.000E+00  0.000E+00  0.000E+00  4.22379E+01  1.811E-01  2.000E+01  2.000E+04 -2.216E-01
   1   13   15     1    15    1.4764E+05 -4.7416E+03   1.5238E+05  0.000E+00  0.000E+00  0.000E+00  4.17640E+01  1.845E-01  2.000E+01  2.000E+04 -2.371E-01
   1   12   16     1    16    1.5238E+05 -5.9021E+03   1.5828E+05  0.000E+00  0.000E+00  0.000E+00  4.12907E+01  1.884E-01  2.000E+01  2.000E+04 -2.951E-01
   1   12   17     1    17    1.5828E+05 -3.9319E+03   1.6221E+05  0.000E+00  0.000E+00  0.000E+00  4.08170E+01  1.920E-01  2.000E+01  2.000E+04 -1.966E-01
   1   12   18     1    18    1.6221E+05 -3.7929E+03   1.6601E+05  0.000E+00  0.000E+00  0.000E+00  4.03424E+01  1.947E-01  2.000E+01  2.000E+04 -1.896E-01
   1   12   19     1    19    1.6601E+05 -4.9218E+03   1.7093E+05  0.000E+00  0.000E+00  0.000E+00  3.98683E+01  1.978E-01  2.000E+01  2.000E+04 -2.461E-01
   1   13   20     1    20    1.7093E+05 -3.3932E+03   1.7432E+05  0.000E+00  0.000E+00  0.000E+00  3.93939E+01  2.007E-01  2.000E+01  2.000E+04 -1.697E-01
   1   14   21     1    21    1.7432E+05 -2.5797E+03   1.7690E+05  0.000E+00  0.000E+00  0.000E+00  3.89187E+01  2.028E-01  2.000E+01  2.000E+04 -1.290E-01
   1   14   22     1    22    1.7690E+05  4.9423E+03   1.7196E+05  0.000E+00  0.000E+00  0.000E+00  3.84406E+01  2.020E-01  2.000E+01  2.000E+04  2.471E-01
   1    9   30     2     1    5.0000E+04 -3.0438E+03   5.3044E+04  0.000E+00  0.000E+00  0.000E+00  4.02430E+01  1.180E-01  2.000E+01  2.000E+04 -1.522E-01
   1    9   29     2     2    5.3044E+04 -3.3736E+03   5.6417E+04  0.000E+00  0.000E+00  0.000E+00  3.99973E+01  1.223E-01  2.000E+01  2.000E+04 -1.687E-01
   1    9   28     2     3    5.6417E+04 -3.7530E+03   6.0170E+04  0.000E+00  0.000E+00  0.000E+00  3.97520E+01  1.270E-01  2.000E+01  2.000E+04 -1.877E-01
   1    9   27     2     4    6.0170E+04 -6.5718E+03   6.6742E+04  0.000E+00  0.000E+00  0.000E+00  3.95087E+01  1.337E-01  2.000E+01  2.000E+04 -3.286E-01
   1   10   26     2     5    6.6742E+04 -4.2148E+03   7.0957E+04  0.000E+00  0.000E+00  0.000E+00  3.92654E+01  1.404E-01  2.000E+01  2.000E+04 -2.107E-01
   1   11   25     2     6    7.0957E+04 -3.1554E+03   7.4112E+04  0.000E+00  0.000E+00  0.000E+00  3.90198E+01  1.448E-01  2.000E+01  2.000E+04 -1.578E-01
   1   12   24     2     7    7.4112E+04 -2.2712E+03   7.6384E+04  0.000E+00  0.000E+00  0.000E+00  3.87731E+01  1.481E-01  2.000E+01  2.000E+04 -1.136E-01
   1   13   23     2     8    7.6384E+04 -1.3891E+03   7.7773E+04  0.000E+00  0.000E+00  0.000E+00  3.85252E+01  1.502E-01  2.000E+01  2.000E+04 -6.946E-02
   1   14   22     2     9    7.7773E+04  1.6317E+03   7.6141E+04  0.000E+00  0.000E+00  0.000E+00  3.82751E+01  1.501E-01  2.000E+01  2.000E+04  8.158E-02
   1   14   22     3     1    2.4810E+05 -8.5750E+03   2.5668E+05  0.000E+00  0.000E+00  0.000E+00  3.77647E+01  2.092E-01  2.000E+01  2.000E+04 -4.287E-01
   1   15   23     3     2    2.5668E+05 -3.1512E+03   2.5983E+05  0.000E+00  0.000E+00  0.000E+00  3.68788E+01  2.121E-01  2.000E+01  2.000E+04 -1.576E-01
   1   15   24     3     3    2.5983E+05 -2.1994E+03   2.6203E+05  0.000E+00  0.000E+00  0.000E+00  3.59912E+01  2.134E-01  2.000E+01  2.000E+04 -1.100E-01
   1   15   25     3     4    2.6203E+05 -2.1043E+03   2.6413E+05  0.000E+00  0.000E+00  0.000E+00  3.51034E+01  2.145E-01  2.000E+01  2.000E+04 -1.052E-01
   1   15   26     3     5    2.6413E+05 -2.5608E+03   2.6669E+05  0.000E+00  0.000E+00  0.000E+00  3.42156E+01  2.156E-01  2.000E+01  2.000E+04 -1.280E-01
   1   16   27     3     6    2.6669E+05 -3.5197E+03   2.7021E+05  0.000E+00  0.000E+00  0.000E+00  3.33282E+01  2.171E-01  2.000E+01  2.000E+04 -1.760E-01
   1   17   28     3     7    2.7021E+05 -4.3325E+03   2.7454E+05  0.000E+00  0.000E+00  0.000E+00  3.24412E+01  2.190E-01  2.000E+01  2.000E+04 -2.166E-01
   1   18   29     3     8    2.7454E+05 -5.9682E+03   2.8051E+05  0.000E+00  0.000E+00  0.000E+00  3.15548E+01  2.215E-01  2.000E+01  2.000E+04 -2.984E-01
   1   18   30     3     9    2.8051E+05 -5.0125E+03   2.8552E+05  0.000E+00  0.000E+00  0.000E+00  3.06685E+01  2.241E-01  2.000E+01  2.000E+04 -2.506E-01



1
              HEAD IN LAYER   1 AT END OF TIME STEP   1 IN STRESS PERIOD   10
  ---------------------------------------------------------------------------

          1      2      3      4      5      6      7      8      9     10
         11     12     13     14     15     16     17     18     19     20
         21     22     23     24     25     26     27     28     29     30
 .........................................................................
   1  ****** ****** ****** ****** ****** ****** ****** ****** ****** ******
      ****** ****** ****** ****** ****** ****** ****** ****** ****** ******
      ****** ****** ****** ****** ****** ****** ****** ****** ****** ******
   2  ****** ****** ****** ****** ****** ****** ****** ****** ****** ******
      ****** ****** ****** ****** ****** ****** ****** ****** ****** ******
      ****** ****** ****** ****** ****** ****** ****** ****** ****** ******
   3  ****** ****** ****** ****** ****** ****** ****** ****** ****** ******
      ****** ****** ****** ****** ****** ****** ****** ****** ****** ******
      ****** ****** ****** ****** ****** ****** ****** ****** ****** ******
   4  ****** ****** ****** ****** ****** ****** ****** ****** ****** ******
      ****** ****** ****** ****** ****** ****** ****** ****** ****** ******
      ****** ****** ****** ****** ****** ****** ****** ****** ****** ******
   5  ****** ****** ****** ****** ****** ****** ****** ****** ****** ******
      ****** ****** ****** ****** ****** ****** ****** ****** ****** ******
      ****** ****** ****** ****** ****** ****** ****** ****** ****** ******
   6  ****** ****** ****** ****** ****** ****** ****** ****** ****** ******
      ****** ****** ****** ****** ****** ****** ****** ****** ****** ******
      ****** ****** ****** ****** ****** ****** ****** ****** ****** ******
   7  ****** ****** ****** ****** ****** ****** ****** ****** ****** ******
      ****** ****** ****** ****** ****** ****** ****** ****** ****** ******
      ****** ****** ****** ****** ****** ****** ****** ****** ****** ******
   8  ****** ****** ****** ****** ****** ****** ****** ****** ****** ******
      ****** ****** ****** ****** ****** ****** ****** ****** ****** ******
      ****** ****** ****** ****** ****** ****** ****** ****** ****** ******
   9  ****** ****** ****** ****** ****** ****** ****** ****** ****** ******
      ****** ****** ****** ****** ****** ****** ****** ****** ****** ******
      ****** ****** ****** ****** ****** ****** ****** ****** ****** ******
  10  ****** ****** ****** ****** ****** ****** ****** ****** ****** ******
      ****** ****** ****** ****** ****** ****** ****** ****** ****** ******
      ****** ****** ****** ****** ****** ****** ****** ****** ****** ******
  11  ****** ****** ****** ****** ****** ****** ****** ****** ****** ******
      ****** ****** ****** ****** ****** ****** ****** ****** ****** ******
      ****** ****** ****** ****** ****** ****** ****** ****** ****** ******
  12  ****** ****** ****** ****** ****** ****** ****** ****** ****** ******
      ****** ****** ****** ****** ****** ****** ****** ****** ****** ******
      ****** ****** ****** ****** ****** ****** ****** ****** ****** ******
  13  ****** ****** ****** ****** ****** ****** ****** ****** ****** ******
      ****** ****** ****** ****** ****** ****** ****** ****** ****** ******
      ****** ****** ****** ****** ****** ****** ****** ****** ****** ******
  14  ****** ****** ****** ****** ****** ****** ****** ****** ****** ******
      ****** ****** ****** ****** ****** ****** ****** ****** ****** ******
      ****** ****** ****** ****** ****** ****** ****** ****** ****** ******
  15  ****** ****** ****** ****** ****** ****** ****** ****** ****** ******
      ****** ****** ****** ****** ****** ****** ****** ****** ****** ******
      ****** ****** ****** ****** ****** ****** ****** ****** ****** ******
  16  ****** ****** ****** ****** ****** ****** ****** ****** ****** ******
      ****** ****** ****** ****** ****** ****** ****** ****** ****** ******
      ****** ****** ****** ****** ****** ****** ****** ****** ****** ******
  17  ****** ****** ****** ****** ****** ****** ****** ****** ****** ******
      ****** ****** ****** ****** ****** ****** ****** ****** ****** ******
      ****** ****** ****** ****** ****** ****** ****** ****** ****** ******
  18  ****** ****** ****** ****** ****** ****** ****** ****** ****** ******
      ****** ****** ****** ****** ****** ****** ****** ****** ****** ******
      ****** ****** ****** ****** ****** ****** ****** ****** ****** ******
  19  ****** ****** ****** ****** ****** ****** ****** ****** ****** ******
      ****** ****** ****** ****** ****** ****** ****** ****** ****** ******
      ****** ****** ****** ****** ****** ****** ****** ****** ****** ******
  20  ****** ****** ****** ****** ****** ****** ****** ****** ****** ******
      ****** ****** ****** ****** ****** ****** ****** ****** ****** ******
      ****** ****** ****** ****** ****** ****** ****** ****** ****** ******
  21  ****** ****** ****** ****** ****** ****** ****** ****** ****** ******
      ****** ****** ****** ****** ****** ****** ****** ****** ****** ******
      ****** ****** ****** ****** ****** ****** ****** ****** ****** ******
  22  ****** ****** ****** ****** ****** ****** ****** ****** ****** ******
      ****** ****** ****** ****** ****** ****** ****** ****** ****** ******
      ****** ****** ****** ****** ****** ****** ****** ****** ****** ******
  23  ****** ****** ****** ****** ****** ****** ****** ****** ****** ******
      ****** ****** ****** ****** ****** ****** ****** ****** ****** ******
      ****** ****** ****** ****** ****** ****** ****** ****** ****** ******
  24  ****** ****** ****** ****** ****** ****** ****** ****** ****** ******
      ****** ****** ****** ****** ****** ****** ****** ****** ****** ******
      ****** ****** ****** ****** ****** ****** ****** ****** ****** ******
  25  ****** ****** ****** ****** ****** ****** ****** ****** ****** ******
      ****** ****** ****** ****** ****** ****** ****** ****** ****** ******
      ****** ****** ****** ****** ****** ****** ****** ****** ****** ******

 HEAD WILL BE SAVED ON UNIT   51 AT END OF TIME STEP    1, STRESS PERIOD   10
1
  VOLUMETRIC BUDGET FOR ENTIRE MODEL AT END OF TIME STEP    1, STRESS PERIOD  10
  ------------------------------------------------------------------------------

     CUMULATIVE VOLUMES      L**3       RATES FOR THIS TIME STEP      L**3/T
     ------------------                 ------------------------

           IN:                                      IN:
           ---                                      ---
             STORAGE =    22679526.1938               STORAGE =           0.0000
       CONSTANT HEAD =   112701120.5479         CONSTANT HEAD =      121197.3769
               WELLS =           0.0000                 WELLS =           0.0000
            RECHARGE =    23901600.0000              RECHARGE =       55200.0000
      STREAM LEAKAGE =     5947351.4661        STREAM LEAKAGE =        6574.0374

            TOTAL IN =   165229598.2078              TOTAL IN =      182971.4143

          OUT:                                     OUT:
          ----                                     ----
             STORAGE =     2284487.7912               STORAGE =       10779.6845
       CONSTANT HEAD =           0.0000         CONSTANT HEAD =           0.0000
               WELLS =    29147588.9346                 WELLS =       30094.0510
            RECHARGE =           0.0000              RECHARGE =           0.0000
      STREAM LEAKAGE =   133797522.2717        STREAM LEAKAGE =      142097.6771

           TOTAL OUT =   165229598.9975             TOTAL OUT =      182971.4126

            IN - OUT =          -0.7897              IN - OUT =       1.7335E-03

 PERCENT DISCREPANCY =          -0.00     PERCENT DISCREPANCY =           0.00






         TIME SUMMARY AT END OF TIME STEP    1 IN STRESS PERIOD   10
                    SECONDS     MINUTES      HOURS       DAYS        YEARS
                    -----------------------------------------------------------
   TIME STEP LENGTH 7.86240E+06 1.31040E+05  2184.0      91.000     0.24914    
 STRESS PERIOD TIME 7.86240E+06 1.31040E+05  2184.0      91.000     0.24914    
         TOTAL TIME 7.88832E+07 1.31472E+06  21912.      913.00      2.4997    
1
1
                            STRESS PERIOD NO.   11, LENGTH =   91.00000    
                            -----------------------------------------------

                              NUMBER OF TIME STEPS =     1

                               MULTIPLIER FOR DELT =     1.500

                            INITIAL TIME STEP SIZE =   91.00000    

 WELL NO.  LAYER   ROW   COL   STRESS RATE         
 --------------------------------------------------
      1      1     23     10     -0.1039E+05
      2      1     17      3      -9136.    
      3      1     23     22     -0.1057E+05

      3 WELLS

                 RECHARGE =   0.00000    

 REUSING STREAM SEGMENT DATA FROM LAST STRESS PERIOD
 
 SOLVING FOR HEAD 


     7 CALLS TO PCG ROUTINE FOR TIME STEP   1 IN STRESS PERIOD   11
    26 TOTAL ITERATIONS

 OUTPUT CONTROL FOR STRESS PERIOD   11   TIME STEP    1
    SAVE BUDGET
    SAVE HEAD FOR ALL LAYERS
    PRINT HEAD FOR ALL LAYERS
 UBDSV2 SAVING "STREAMFLOW OUT  " ON UNIT  50 AT TIME STEP  1, STRESS PERIOD  11



 STREAM LISTING     PERIOD     11   STEP        1

 LAYER ROW COL. STREAM  RCH.  FLOW INTO     FLOW TO   FLOW OUT OF   OVRLND.     DIRECT     STREAM       STREAM     STREAM     STREAM   STREAMBED  STREAMBED
                SEG.NO.  NO.  STRM. RCH.    AQUIFER    STRM. RCH.    RUNOFF     PRECIP       ET          HEAD       DEPTH      WIDTH   CONDCTNC.   GRADIENT

   1   13    1     1     1    1.0000E+05 -2.1595E+03   1.0216E+05  0.000E+00  0.000E+00  0.000E+00  4.84070E+01  1.456E-01  2.000E+01  2.000E+04 -1.080E-01
   1   13    2     1     2    1.0216E+05 -4.1421E+03   1.0630E+05  0.000E+00  0.000E+00  0.000E+00  4.79324E+01  1.483E-01  2.000E+01  2.000E+04 -2.071E-01
   1   14    3     1     3    1.0630E+05 -2.3909E+03   1.0869E+05  0.000E+00  0.000E+00  0.000E+00  4.74579E+01  1.511E-01  2.000E+01  2.000E+04 -1.195E-01
   1   15    4     1     4    1.0869E+05 -1.6081E+03   1.1030E+05  0.000E+00  0.000E+00  0.000E+00  4.69823E+01  1.527E-01  2.000E+01  2.000E+04 -8.040E-02
   1   16    5     1     5    1.1030E+05 -1.7593E+03   1.1206E+05  0.000E+00  0.000E+00  0.000E+00  4.65064E+01  1.541E-01  2.000E+01  2.000E+04 -8.796E-02
   1   16    6     1     6    1.1206E+05 -2.4110E+03   1.1447E+05  0.000E+00  0.000E+00  0.000E+00  4.60309E+01  1.559E-01  2.000E+01  2.000E+04 -1.206E-01
   1   16    7     1     7    1.1447E+05 -2.6973E+03   1.1717E+05  0.000E+00  0.000E+00  0.000E+00  4.55557E+01  1.580E-01  2.000E+01  2.000E+04 -1.349E-01
   1   16    8     1     8    1.1717E+05 -2.8263E+03   1.1999E+05  0.000E+00  0.000E+00  0.000E+00  4.50807E+01  1.602E-01  2.000E+01  2.000E+04 -1.413E-01
   1   16    9     1     9    1.1999E+05 -2.8722E+03   1.2287E+05  0.000E+00  0.000E+00  0.000E+00  4.46057E+01  1.625E-01  2.000E+01  2.000E+04 -1.436E-01
   1   16   10     1    10    1.2287E+05 -2.8688E+03   1.2574E+05  0.000E+00  0.000E+00  0.000E+00  4.41307E+01  1.648E-01  2.000E+01  2.000E+04 -1.434E-01
   1   16   11     1    11    1.2574E+05 -2.8526E+03   1.2859E+05  0.000E+00  0.000E+00  0.000E+00  4.36557E+01  1.671E-01  2.000E+01  2.000E+04 -1.426E-01
   1   16   12     1    12    1.2859E+05 -3.7969E+03   1.3238E+05  0.000E+00  0.000E+00  0.000E+00  4.31811E+01  1.697E-01  2.000E+01  2.000E+04 -1.898E-01
   1   15   13     1    13    1.3238E+05 -3.6376E+03   1.3602E+05  0.000E+00  0.000E+00  0.000E+00  4.27067E+01  1.726E-01  2.000E+01  2.000E+04 -1.819E-01
   1   14   14     1    14    1.3602E+05 -3.7569E+03   1.3978E+05  0.000E+00  0.000E+00  0.000E+00  4.22322E+01  1.754E-01  2.000E+01  2.000E+04 -1.878E-01
   1   13   15     1    15    1.3978E+05 -4.0789E+03   1.4386E+05  0.000E+00  0.000E+00  0.000E+00  4.17579E+01  1.784E-01  2.000E+01  2.000E+04 -2.039E-01
   1   12   16     1    16    1.4386E+05 -5.2747E+03   1.4913E+05  0.000E+00  0.000E+00  0.000E+00  4.12842E+01  1.819E-01  2.000E+01  2.000E+04 -2.637E-01
   1   12   17     1    17    1.4913E+05 -3.4586E+03   1.5259E+05  0.000E+00  0.000E+00  0.000E+00  4.08101E+01  1.851E-01  2.000E+01  2.000E+04 -1.729E-01
   1   12   18     1    18    1.5259E+05 -3.3262E+03   1.5592E+05  0.000E+00  0.000E+00  0.000E+00  4.03353E+01  1.876E-01  2.000E+01  2.000E+04 -1.663E-01
   1   12   19     1    19    1.5592E+05 -4.3527E+03   1.6027E+05  0.000E+00  0.000E+00  0.000E+00  3.98609E+01  1.904E-01  2.000E+01  2.000E+04 -2.176E-01
   1   13   20     1    20    1.6027E+05 -2.8304E+03   1.6310E+05  0.000E+00  0.000E+00  0.000E+00  3.93862E+01  1.930E-01  2.000E+01  2.000E+04 -1.415E-01
   1   14   21     1    21    1.6310E+05 -2.0647E+03   1.6517E+05  0.000E+00  0.000E+00  0.000E+00  3.89106E+01  1.947E-01  2.000E+01  2.000E+04 -1.032E-01
   1   14   22     1    22    1.6517E+05  5.0433E+03   1.6012E+05  0.000E+00  0.000E+00  0.000E+00  3.84323E+01  1.937E-01  2.000E+01  2.000E+04  2.522E-01
   1    9   30     2     1    5.0000E+04 -2.6024E+03   5.2602E+04  0.000E+00  0.000E+00  0.000E+00  4.02427E+01  1.177E-01  2.000E+01  2.000E+04 -1.301E-01
   1    9   29     2     2    5.2602E+04 -2.9359E+03   5.5538E+04  0.000E+00  0.000E+00  0.000E+00  3.99964E+01  1.214E-01  2.000E+01  2.000E+04 -1.468E-01
   1    9   28     2     3    5.5538E+04 -3.3188E+03   5.8857E+04  0.000E+00  0.000E+00  0.000E+00  3.97506E+01  1.256E-01  2.000E+01  2.000E+04 -1.659E-01
   1    9   27     2     4    5.8857E+04 -6.0001E+03   6.4857E+04  0.000E+00  0.000E+00  0.000E+00  3.95066E+01  1.316E-01  2.000E+01  2.000E+04 -3.000E-01
   1   10   26     2     5    6.4857E+04 -3.6171E+03   6.8474E+04  0.000E+00  0.000E+00  0.000E+00  3.92627E+01  1.377E-01  2.000E+01  2.000E+04 -1.809E-01
   1   11   25     2     6    6.8474E+04 -2.5810E+03   7.1055E+04  0.000E+00  0.000E+00  0.000E+00  3.90165E+01  1.415E-01  2.000E+01  2.000E+04 -1.291E-01
   1   12   24     2     7    7.1055E+04 -1.7600E+03   7.2815E+04  0.000E+00  0.000E+00  0.000E+00  3.87691E+01  1.441E-01  2.000E+01  2.000E+04 -8.800E-02
   1   13   23     2     8    7.2815E+04 -9.8624E+02   7.3802E+04  0.000E+00  0.000E+00  0.000E+00  3.85208E+01  1.458E-01  2.000E+01  2.000E+04 -4.931E-02
   1   14   22     2     9    7.3802E+04  1.8027E+03   7.1999E+04  0.000E+00  0.000E+00  0.000E+00  3.82703E+01  1.453E-01  2.000E+01  2.000E+04  9.014E-02
   1   14   22     3     1    2.3212E+05 -8.4695E+03   2.4059E+05  0.000E+00  0.000E+00  0.000E+00  3.77567E+01  2.011E-01  2.000E+01  2.000E+04 -4.235E-01
   1   15   23     3     2    2.4059E+05 -2.6698E+03   2.4326E+05  0.000E+00  0.000E+00  0.000E+00  3.68706E+01  2.039E-01  2.000E+01  2.000E+04 -1.335E-01
   1   15   24     3     3    2.4326E+05 -1.8444E+03   2.4511E+05  0.000E+00  0.000E+00  0.000E+00  3.59829E+01  2.051E-01  2.000E+01  2.000E+04 -9.222E-02
   1   15   25     3     4    2.4511E+05 -1.7456E+03   2.4685E+05  0.000E+00  0.000E+00  0.000E+00  3.50949E+01  2.060E-01  2.000E+01  2.000E+04 -8.728E-02
   1   15   26     3     5    2.4685E+05 -2.0965E+03   2.4895E+05  0.000E+00  0.000E+00  0.000E+00  3.42069E+01  2.069E-01  2.000E+01  2.000E+04 -1.048E-01
   1   16   27     3     6    2.4895E+05 -2.9436E+03   2.5189E+05  0.000E+00  0.000E+00  0.000E+00  3.33193E+01  2.082E-01  2.000E+01  2.000E+04 -1.472E-01
   1   17   28     3     7    2.5189E+05 -3.7459E+03   2.5564E+05  0.000E+00  0.000E+00  0.000E+00  3.24321E+01  2.099E-01  2.000E+01  2.000E+04 -1.873E-01
   1   18   29     3     8    2.5564E+05 -5.4213E+03   2.6106E+05  0.000E+00  0.000E+00  0.000E+00  3.15455E+01  2.121E-01  2.000E+01  2.000E+04 -2.711E-01
   1   18   30     3     9    2.6106E+05 -4.5954E+03   2.6565E+05  0.000E+00  0.000E+00  0.000E+00  3.06590E+01  2.146E-01  2.000E+01  2.000E+04 -2.298E-01



1
              HEAD IN LAYER   1 AT END OF TIME STEP   1 IN STRESS PERIOD   11
  ---------------------------------------------------------------------------

          1      2      3      4      5      6      7      8      9     10
         11     12     13     14     15     16     17     18     19     20
         21     22     23     24     25     26     27     28     29     30
 .........................................................................
   1  ****** ****** ****** ****** ****** ****** ****** ****** ****** ******
      ****** ****** ****** ****** ****** ****** ****** ****** ****** ******
      ****** ****** ****** ****** ****** ****** ****** ****** ****** ******
   2  ****** ****** ****** ****** ****** ****** ****** ****** ****** ******
      ****** ****** ****** ****** ****** ****** ****** ****** ****** ******
      ****** ****** ****** ****** ****** ****** ****** ****** ****** ******
   3  ****** ****** ****** ****** ****** ****** ****** ****** ****** ******
      ****** ****** ****** ****** ****** ****** ****** ****** ****** ******
      ****** ****** ****** ****** ****** ****** ****** ****** ****** ******
   4  ****** ****** ****** ****** ****** ****** ****** ****** ****** ******
      ****** ****** ****** ****** ****** ****** ****** ****** ****** ******
      ****** ****** ****** ****** ****** ****** ****** ****** ****** ******
   5  ****** ****** ****** ****** ****** ****** ****** ****** ****** ******
      ****** ****** ****** ****** ****** ****** ****** ****** ****** ******
      ****** ****** ****** ****** ****** ****** ****** ****** ****** ******
   6  ****** ****** ****** ****** ****** ****** ****** ****** ****** ******
      ****** ****** ****** ****** ****** ****** ****** ****** ****** ******
      ****** ****** ****** ****** ****** ****** ****** ****** ****** ******
   7  ****** ****** ****** ****** ****** ****** ****** ****** ****** ******
      ****** ****** ****** ****** ****** ****** ****** ****** ****** ******
      ****** ****** ****** ****** ****** ****** ****** ****** ****** ******
   8  ****** ****** ****** ****** ****** ****** ****** ****** ****** ******
      ****** ****** ****** ****** ****** ****** ****** ****** ****** ******
      ****** ****** ****** ****** ****** ****** ****** ****** ****** ******
   9  ****** ****** ****** ****** ****** ****** ****** ****** ****** ******
      ****** ****** ****** ****** ****** ****** ****** ****** ****** ******
      ****** ****** ****** ****** ****** ****** ****** ****** ****** ******
  10  ****** ****** ****** ****** ****** ****** ****** ****** ****** ******
      ****** ****** ****** ****** ****** ****** ****** ****** ****** ******
      ****** ****** ****** ****** ****** ****** ****** ****** ****** ******
  11  ****** ****** ****** ****** ****** ****** ****** ****** ****** ******
      ****** ****** ****** ****** ****** ****** ****** ****** ****** ******
      ****** ****** ****** ****** ****** ****** ****** ****** ****** ******
  12  ****** ****** ****** ****** ****** ****** ****** ****** ****** ******
      ****** ****** ****** ****** ****** ****** ****** ****** ****** ******
      ****** ****** ****** ****** ****** ****** ****** ****** ****** ******
  13  ****** ****** ****** ****** ****** ****** ****** ****** ****** ******
      ****** ****** ****** ****** ****** ****** ****** ****** ****** ******
      ****** ****** ****** ****** ****** ****** ****** ****** ****** ******
  14  ****** ****** ****** ****** ****** ****** ****** ****** ****** ******
      ****** ****** ****** ****** ****** ****** ****** ****** ****** ******
      ****** ****** ****** ****** ****** ****** ****** ****** ****** ******
  15  ****** ****** ****** ****** ****** ****** ****** ****** ****** ******
      ****** ****** ****** ****** ****** ****** ****** ****** ****** ******
      ****** ****** ****** ****** ****** ****** ****** ****** ****** ******
  16  ****** ****** ****** ****** ****** ****** ****** ****** ****** ******
      ****** ****** ****** ****** ****** ****** ****** ****** ****** ******
      ****** ****** ****** ****** ****** ****** ****** ****** ****** ******
  17  ****** ****** ****** ****** ****** ****** ****** ****** ****** ******
      ****** ****** ****** ****** ****** ****** ****** ****** ****** ******
      ****** ****** ****** ****** ****** ****** ****** ****** ****** ******
  18  ****** ****** ****** ****** ****** ****** ****** ****** ****** ******
      ****** ****** ****** ****** ****** ****** ****** ****** ****** ******
      ****** ****** ****** ****** ****** ****** ****** ****** ****** ******
  19  ****** ****** ****** ****** ****** ****** ****** ****** ****** ******
      ****** ****** ****** ****** ****** ****** ****** ****** ****** ******
      ****** ****** ****** ****** ****** ****** ****** ****** ****** ******
  20  ****** ****** ****** ****** ****** ****** ****** ****** ****** ******
      ****** ****** ****** ****** ****** ****** ****** ****** ****** ******
      ****** ****** ****** ****** ****** ****** ****** ****** ****** ******
  21  ****** ****** ****** ****** ****** ****** ****** ****** ****** ******
      ****** ****** ****** ****** ****** ****** ****** ****** ****** ******
      ****** ****** ****** ****** ****** ****** ****** ****** ****** ******
  22  ****** ****** ****** ****** ****** ****** ****** ****** ****** ******
      ****** ****** ****** ****** ****** ****** ****** ****** ****** ******
      ****** ****** ****** ****** ****** ****** ****** ****** ****** ******
  23  ****** ****** ****** ****** ****** ****** ****** ****** ****** ******
      ****** ****** ****** ****** ****** ****** ****** ****** ****** ******
      ****** ****** ****** ****** ****** ****** ****** ****** ****** ******
  24  ****** ****** ****** ****** ****** ****** ****** ****** ****** ******
      ****** ****** ****** ****** ****** ****** ****** ****** ****** ******
      ****** ****** ****** ****** ****** ****** ****** ****** ****** ******
  25  ****** ****** ****** ****** ****** ****** ****** ****** ****** ******
      ****** ****** ****** ****** ****** ****** ****** ****** ****** ******
      ****** ****** ****** ****** ****** ****** ****** ****** ****** ******

 HEAD WILL BE SAVED ON UNIT   51 AT END OF TIME STEP    1, STRESS PERIOD   11
1
  VOLUMETRIC BUDGET FOR ENTIRE MODEL AT END OF TIME STEP    1, STRESS PERIOD  11
  ------------------------------------------------------------------------------

     CUMULATIVE VOLUMES      L**3       RATES FOR THIS TIME STEP      L**3/T
     ------------------                 ------------------------

           IN:                                      IN:
           ---                                      ---
             STORAGE =    23757225.2663               STORAGE =       11842.8470
       CONSTANT HEAD =   124886441.9439         CONSTANT HEAD =      133904.6307
               WELLS =           0.0000                 WELLS =           0.0000
            RECHARGE =    23901600.0000              RECHARGE =           0.0000
      STREAM LEAKAGE =     6570335.4536        STREAM LEAKAGE =        6845.9779

            TOTAL IN =   179115602.6637              TOTAL IN =      152593.4556

          OUT:                                     OUT:
          ----                                     ----
             STORAGE =     2284487.7912               STORAGE =           0.0000
       CONSTANT HEAD =           0.0000         CONSTANT HEAD =           0.0000
               WELLS =    31886147.5731                 WELLS =       30094.0510
            RECHARGE =           0.0000              RECHARGE =           0.0000
      STREAM LEAKAGE =   144944968.2826        STREAM LEAKAGE =      122499.4067

           TOTAL OUT =   179115603.6469             TOTAL OUT =      152593.4577

            IN - OUT =          -0.9831              IN - OUT =      -2.1260E-03

 PERCENT DISCREPANCY =          -0.00     PERCENT DISCREPANCY =          -0.00






         TIME SUMMARY AT END OF TIME STEP    1 IN STRESS PERIOD   11
                    SECONDS     MINUTES      HOURS       DAYS        YEARS
                    -----------------------------------------------------------
   TIME STEP LENGTH 7.86240E+06 1.31040E+05  2184.0      91.000     0.24914    
 STRESS PERIOD TIME 7.86240E+06 1.31040E+05  2184.0      91.000     0.24914    
         TOTAL TIME 8.67456E+07 1.44576E+06  24096.      1004.0      2.7488    
1
1
                            STRESS PERIOD NO.   12, LENGTH =   91.00000    
                            -----------------------------------------------

                              NUMBER OF TIME STEPS =     1

                               MULTIPLIER FOR DELT =     1.500

                            INITIAL TIME STEP SIZE =   91.00000    

 WELL NO.  LAYER   ROW   COL   STRESS RATE         
 --------------------------------------------------
      1      1     23     10     -0.1039E+05
      2      1     17      3      -9136.    
      3      1     23     22     -0.1057E+05

      3 WELLS

                 RECHARGE =  1.000000E-03

 REUSING STREAM SEGMENT DATA FROM LAST STRESS PERIOD
 
 SOLVING FOR HEAD 


     6 CALLS TO PCG ROUTINE FOR TIME STEP   1 IN STRESS PERIOD   12
    23 TOTAL ITERATIONS

 OUTPUT CONTROL FOR STRESS PERIOD   12   TIME STEP    1
    SAVE BUDGET
    SAVE HEAD FOR ALL LAYERS
    PRINT HEAD FOR ALL LAYERS
 UBDSV2 SAVING "STREAMFLOW OUT  " ON UNIT  50 AT TIME STEP  1, STRESS PERIOD  12



 STREAM LISTING     PERIOD     12   STEP        1

 LAYER ROW COL. STREAM  RCH.  FLOW INTO     FLOW TO   FLOW OUT OF   OVRLND.     DIRECT     STREAM       STREAM     STREAM     STREAM   STREAMBED  STREAMBED
                SEG.NO.  NO.  STRM. RCH.    AQUIFER    STRM. RCH.    RUNOFF     PRECIP       ET          HEAD       DEPTH      WIDTH   CONDCTNC.   GRADIENT

   1   13    1     1     1    1.0000E+05 -2.3331E+03   1.0233E+05  0.000E+00  0.000E+00  0.000E+00  4.84070E+01  1.457E-01  2.000E+01  2.000E+04 -1.167E-01
   1   13    2     1     2    1.0233E+05 -4.3603E+03   1.0669E+05  0.000E+00  0.000E+00  0.000E+00  4.79326E+01  1.485E-01  2.000E+01  2.000E+04 -2.180E-01
   1   14    3     1     3    1.0669E+05 -2.6301E+03   1.0932E+05  0.000E+00  0.000E+00  0.000E+00  4.74583E+01  1.515E-01  2.000E+01  2.000E+04 -1.315E-01
   1   15    4     1     4    1.0932E+05 -1.8493E+03   1.1117E+05  0.000E+00  0.000E+00  0.000E+00  4.69829E+01  1.534E-01  2.000E+01  2.000E+04 -9.247E-02
   1   16    5     1     5    1.1117E+05 -1.9820E+03   1.1315E+05  0.000E+00  0.000E+00  0.000E+00  4.65072E+01  1.550E-01  2.000E+01  2.000E+04 -9.910E-02
   1   16    6     1     6    1.1315E+05 -2.5883E+03   1.1574E+05  0.000E+00  0.000E+00  0.000E+00  4.60319E+01  1.569E-01  2.000E+01  2.000E+04 -1.294E-01
   1   16    7     1     7    1.1574E+05 -2.8764E+03   1.1862E+05  0.000E+00  0.000E+00  0.000E+00  4.55568E+01  1.591E-01  2.000E+01  2.000E+04 -1.438E-01
   1   16    8     1     8    1.1862E+05 -3.0065E+03   1.2163E+05  0.000E+00  0.000E+00  0.000E+00  4.50819E+01  1.615E-01  2.000E+01  2.000E+04 -1.503E-01
   1   16    9     1     9    1.2163E+05 -3.0523E+03   1.2468E+05  0.000E+00  0.000E+00  0.000E+00  4.46071E+01  1.639E-01  2.000E+01  2.000E+04 -1.526E-01
   1   16   10     1    10    1.2468E+05 -3.0477E+03   1.2773E+05  0.000E+00  0.000E+00  0.000E+00  4.41322E+01  1.663E-01  2.000E+01  2.000E+04 -1.524E-01
   1   16   11     1    11    1.2773E+05 -3.0296E+03   1.3076E+05  0.000E+00  0.000E+00  0.000E+00  4.36574E+01  1.687E-01  2.000E+01  2.000E+04 -1.515E-01
   1   16   12     1    12    1.3076E+05 -4.0199E+03   1.3478E+05  0.000E+00  0.000E+00  0.000E+00  4.31828E+01  1.715E-01  2.000E+01  2.000E+04 -2.010E-01
   1   15   13     1    13    1.3478E+05 -3.8810E+03   1.3866E+05  0.000E+00  0.000E+00  0.000E+00  4.27086E+01  1.745E-01  2.000E+01  2.000E+04 -1.941E-01
   1   14   14     1    14    1.3866E+05 -4.0030E+03   1.4266E+05  0.000E+00  0.000E+00  0.000E+00  4.22343E+01  1.775E-01  2.000E+01  2.000E+04 -2.002E-01
   1   13   15     1    15    1.4266E+05 -4.3195E+03   1.4698E+05  0.000E+00  0.000E+00  0.000E+00  4.17602E+01  1.806E-01  2.000E+01  2.000E+04 -2.160E-01
   1   12   16     1    16    1.4698E+05 -5.4943E+03   1.5247E+05  0.000E+00  0.000E+00  0.000E+00  4.12866E+01  1.843E-01  2.000E+01  2.000E+04 -2.747E-01
   1   12   17     1    17    1.5247E+05 -3.6324E+03   1.5611E+05  0.000E+00  0.000E+00  0.000E+00  4.08126E+01  1.876E-01  2.000E+01  2.000E+04 -1.816E-01
   1   12   18     1    18    1.5611E+05 -3.4995E+03   1.5961E+05  0.000E+00  0.000E+00  0.000E+00  4.03380E+01  1.902E-01  2.000E+01  2.000E+04 -1.750E-01
   1   12   19     1    19    1.5961E+05 -4.5641E+03   1.6417E+05  0.000E+00  0.000E+00  0.000E+00  3.98636E+01  1.931E-01  2.000E+01  2.000E+04 -2.282E-01
   1   13   20     1    20    1.6417E+05 -3.0493E+03   1.6722E+05  0.000E+00  0.000E+00  0.000E+00  3.93890E+01  1.958E-01  2.000E+01  2.000E+04 -1.525E-01
   1   14   21     1    21    1.6722E+05 -2.2617E+03   1.6948E+05  0.000E+00  0.000E+00  0.000E+00  3.89136E+01  1.977E-01  2.000E+01  2.000E+04 -1.131E-01
   1   14   22     1    22    1.6948E+05  4.9995E+03   1.6448E+05  0.000E+00  0.000E+00  0.000E+00  3.84354E+01  1.968E-01  2.000E+01  2.000E+04  2.500E-01
   1    9   30     2     1    5.0000E+04 -2.7818E+03   5.2782E+04  0.000E+00  0.000E+00  0.000E+00  4.02428E+01  1.178E-01  2.000E+01  2.000E+04 -1.391E-01
   1    9   29     2     2    5.2782E+04 -3.1136E+03   5.5895E+04  0.000E+00  0.000E+00  0.000E+00  3.99968E+01  1.218E-01  2.000E+01  2.000E+04 -1.557E-01
   1    9   28     2     3    5.5895E+04 -3.4939E+03   5.9389E+04  0.000E+00  0.000E+00  0.000E+00  3.97512E+01  1.262E-01  2.000E+01  2.000E+04 -1.747E-01
   1    9   27     2     4    5.9389E+04 -6.2207E+03   6.5610E+04  0.000E+00  0.000E+00  0.000E+00  3.95075E+01  1.325E-01  2.000E+01  2.000E+04 -3.110E-01
   1   10   26     2     5    6.5610E+04 -3.8546E+03   6.9465E+04  0.000E+00  0.000E+00  0.000E+00  3.92638E+01  1.388E-01  2.000E+01  2.000E+04 -1.927E-01
   1   11   25     2     6    6.9465E+04 -2.8121E+03   7.2277E+04  0.000E+00  0.000E+00  0.000E+00  3.90178E+01  1.428E-01  2.000E+01  2.000E+04 -1.406E-01
   1   12   24     2     7    7.2277E+04 -1.9698E+03   7.4247E+04  0.000E+00  0.000E+00  0.000E+00  3.87707E+01  1.457E-01  2.000E+01  2.000E+04 -9.849E-02
   1   13   23     2     8    7.4247E+04 -1.1567E+03   7.5403E+04  0.000E+00  0.000E+00  0.000E+00  3.85226E+01  1.476E-01  2.000E+01  2.000E+04 -5.783E-02
   1   14   22     2     9    7.5403E+04  1.7362E+03   7.3667E+04  0.000E+00  0.000E+00  0.000E+00  3.82722E+01  1.472E-01  2.000E+01  2.000E+04  8.681E-02
   1   14   22     3     1    2.3815E+05 -8.5135E+03   2.4666E+05  0.000E+00  0.000E+00  0.000E+00  3.77597E+01  2.042E-01  2.000E+01  2.000E+04 -4.257E-01
   1   15   23     3     2    2.4666E+05 -2.8546E+03   2.4952E+05  0.000E+00  0.000E+00  0.000E+00  3.68737E+01  2.070E-01  2.000E+01  2.000E+04 -1.427E-01
   1   15   24     3     3    2.4952E+05 -1.9889E+03   2.5150E+05  0.000E+00  0.000E+00  0.000E+00  3.59860E+01  2.083E-01  2.000E+01  2.000E+04 -9.945E-02
   1   15   25     3     4    2.5150E+05 -1.8948E+03   2.5340E+05  0.000E+00  0.000E+00  0.000E+00  3.50981E+01  2.092E-01  2.000E+01  2.000E+04 -9.474E-02
   1   15   26     3     5    2.5340E+05 -2.2916E+03   2.5569E+05  0.000E+00  0.000E+00  0.000E+00  3.42103E+01  2.103E-01  2.000E+01  2.000E+04 -1.146E-01
   1   16   27     3     6    2.5569E+05 -3.1781E+03   2.5887E+05  0.000E+00  0.000E+00  0.000E+00  3.33227E+01  2.116E-01  2.000E+01  2.000E+04 -1.589E-01
   1   17   28     3     7    2.5887E+05 -3.9829E+03   2.6285E+05  0.000E+00  0.000E+00  0.000E+00  3.24356E+01  2.134E-01  2.000E+01  2.000E+04 -1.991E-01
   1   18   29     3     8    2.6285E+05 -5.6380E+03   2.6849E+05  0.000E+00  0.000E+00  0.000E+00  3.15491E+01  2.157E-01  2.000E+01  2.000E+04 -2.819E-01
   1   18   30     3     9    2.6849E+05 -4.7662E+03   2.7326E+05  0.000E+00  0.000E+00  0.000E+00  3.06627E+01  2.183E-01  2.000E+01  2.000E+04 -2.383E-01



1
              HEAD IN LAYER   1 AT END OF TIME STEP   1 IN STRESS PERIOD   12
  ---------------------------------------------------------------------------

          1      2      3      4      5      6      7      8      9     10
         11     12     13     14     15     16     17     18     19     20
         21     22     23     24     25     26     27     28     29     30
 .........................................................................
   1  ****** ****** ****** ****** ****** ****** ****** ****** ****** ******
      ****** ****** ****** ****** ****** ****** ****** ****** ****** ******
      ****** ****** ****** ****** ****** ****** ****** ****** ****** ******
   2  ****** ****** ****** ****** ****** ****** ****** ****** ****** ******
      ****** ****** ****** ****** ****** ****** ****** ****** ****** ******
      ****** ****** ****** ****** ****** ****** ****** ****** ****** ******
   3  ****** ****** ****** ****** ****** ****** ****** ****** ****** ******
      ****** ****** ****** ****** ****** ****** ****** ****** ****** ******
      ****** ****** ****** ****** ****** ****** ****** ****** ****** ******
   4  ****** ****** ****** ****** ****** ****** ****** ****** ****** ******
      ****** ****** ****** ****** ****** ****** ****** ****** ****** ******
      ****** ****** ****** ****** ****** ****** ****** ****** ****** ******
   5  ****** ****** ****** ****** ****** ****** ****** ****** ****** ******
      ****** ****** ****** ****** ****** ****** ****** ****** ****** ******
      ****** ****** ****** ****** ****** ****** ****** ****** ****** ******
   6  ****** ****** ****** ****** ****** ****** ****** ****** ****** ******
      ****** ****** ****** ****** ****** ****** ****** ****** ****** ******
      ****** ****** ****** ****** ****** ****** ****** ****** ****** ******
   7  ****** ****** ****** ****** ****** ****** ****** ****** ****** ******
      ****** ****** ****** ****** ****** ****** ****** ****** ****** ******
      ****** ****** ****** ****** ****** ****** ****** ****** ****** ******
   8  ****** ****** ****** ****** ****** ****** ****** ****** ****** ******
      ****** ****** ****** ****** ****** ****** ****** ****** ****** ******
      ****** ****** ****** ****** ****** ****** ****** ****** ****** ******
   9  ****** ****** ****** ****** ****** ****** ****** ****** ****** ******
      ****** ****** ****** ****** ****** ****** ****** ****** ****** ******
      ****** ****** ****** ****** ****** ****** ****** ****** ****** ******
  10  ****** ****** ****** ****** ****** ****** ****** ****** ****** ******
      ****** ****** ****** ****** ****** ****** ****** ****** ****** ******
      ****** ****** ****** ****** ****** ****** ****** ****** ****** ******
  11  ****** ****** ****** ****** ****** ****** ****** ****** ****** ******
      ****** ****** ****** ****** ****** ****** ****** ****** ****** ******
      ****** ****** ****** ****** ****** ****** ****** ****** ****** ******
  12  ****** ****** ****** ****** ****** ****** ****** ****** ****** ******
      ****** ****** ****** ****** ****** ****** ****** ****** ****** ******
      ****** ****** ****** ****** ****** ****** ****** ****** ****** ******
  13  ****** ****** ****** ****** ****** ****** ****** ****** ****** ******
      ****** ****** ****** ****** ****** ****** ****** ****** ****** ******
      ****** ****** ****** ****** ****** ****** ****** ****** ****** ******
  14  ****** ****** ****** ****** ****** ****** ****** ****** ****** ******
      ****** ****** ****** ****** ****** ****** ****** ****** ****** ******
      ****** ****** ****** ****** ****** ****** ****** ****** ****** ******
  15  ****** ****** ****** ****** ****** ****** ****** ****** ****** ******
      ****** ****** ****** ****** ****** ****** ****** ****** ****** ******
      ****** ****** ****** ****** ****** ****** ****** ****** ****** ******
  16  ****** ****** ****** ****** ****** ****** ****** ****** ****** ******
      ****** ****** ****** ****** ****** ****** ****** ****** ****** ******
      ****** ****** ****** ****** ****** ****** ****** ****** ****** ******
  17  ****** ****** ****** ****** ****** ****** ****** ****** ****** ******
      ****** ****** ****** ****** ****** ****** ****** ****** ****** ******
      ****** ****** ****** ****** ****** ****** ****** ****** ****** ******
  18  ****** ****** ****** ****** ****** ****** ****** ****** ****** ******
      ****** ****** ****** ****** ****** ****** ****** ****** ****** ******
      ****** ****** ****** ****** ****** ****** ****** ****** ****** ******
  19  ****** ****** ****** ****** ****** ****** ****** ****** ****** ******
      ****** ****** ****** ****** ****** ****** ****** ****** ****** ******
      ****** ****** ****** ****** ****** ****** ****** ****** ****** ******
  20  ****** ****** ****** ****** ****** ****** ****** ****** ****** ******
      ****** ****** ****** ****** ****** ****** ****** ****** ****** ******
      ****** ****** ****** ****** ****** ****** ****** ****** ****** ******
  21  ****** ****** ****** ****** ****** ****** ****** ****** ****** ******
      ****** ****** ****** ****** ****** ****** ****** ****** ****** ******
      ****** ****** ****** ****** ****** ****** ****** ****** ****** ******
  22  ****** ****** ****** ****** ****** ****** ****** ****** ****** ******
      ****** ****** ****** ****** ****** ****** ****** ****** ****** ******
      ****** ****** ****** ****** ****** ****** ****** ****** ****** ******
  23  ****** ****** ****** ****** ****** ****** ****** ****** ****** ******
      ****** ****** ****** ****** ****** ****** ****** ****** ****** ******
      ****** ****** ****** ****** ****** ****** ****** ****** ****** ******
  24  ****** ****** ****** ****** ****** ****** ****** ****** ****** ******
      ****** ****** ****** ****** ****** ****** ****** ****** ****** ******
      ****** ****** ****** ****** ****** ****** ****** ****** ****** ******
  25  ****** ****** ****** ****** ****** ****** ****** ****** ****** ******
      ****** ****** ****** ****** ****** ****** ****** ****** ****** ******
      ****** ****** ****** ****** ****** ****** ****** ****** ****** ******

 HEAD WILL BE SAVED ON UNIT   51 AT END OF TIME STEP    1, STRESS PERIOD   12
1
  VOLUMETRIC BUDGET FOR ENTIRE MODEL AT END OF TIME STEP    1, STRESS PERIOD  12
  ------------------------------------------------------------------------------

     CUMULATIVE VOLUMES      L**3       RATES FOR THIS TIME STEP      L**3/T
     ------------------                 ------------------------

           IN:                                      IN:
           ---                                      ---
             STORAGE =    23757225.2663               STORAGE =           0.0000
       CONSTANT HEAD =   136669702.8370         CONSTANT HEAD =      129486.3834
               WELLS =           0.0000                 WELLS =           0.0000
            RECHARGE =    26413200.0000              RECHARGE =       27600.0000
      STREAM LEAKAGE =     7183282.7998        STREAM LEAKAGE =        6735.6851

            TOTAL IN =   194023410.9031              TOTAL IN =      163822.0686

          OUT:                                     OUT:
          ----                                     ----
             STORAGE =     2624433.8875               STORAGE =        3735.6714
       CONSTANT HEAD =           0.0000         CONSTANT HEAD =           0.0000
               WELLS =    34624706.2116                 WELLS =       30094.0510
            RECHARGE =           0.0000              RECHARGE =           0.0000
      STREAM LEAKAGE =   156774271.7111        STREAM LEAKAGE =      129992.3454

           TOTAL OUT =   194023411.8103             TOTAL OUT =      163822.0677

            IN - OUT =          -0.9072              IN - OUT =       8.3485E-04

 PERCENT DISCREPANCY =          -0.00     PERCENT DISCREPANCY =           0.00






         TIME SUMMARY AT END OF TIME STEP    1 IN STRESS PERIOD   12
                    SECONDS     MINUTES      HOURS       DAYS        YEARS
                    -----------------------------------------------------------
   TIME STEP LENGTH 7.86240E+06 1.31040E+05  2184.0      91.000     0.24914    
 STRESS PERIOD TIME 7.86240E+06 1.31040E+05  2184.0      91.000     0.24914    
         TOTAL TIME 9.46080E+07 1.57680E+06  26280.      1095.0      2.9979    
1

 Run end date and time (yyyy/mm/dd hh:mm:ss): 2018/10/08 23:02:58
 Elapsed run time:  0.057 Seconds

