                                  MODFLOW-2005     
      U.S. GEOLOGICAL SURVEY MODULAR FINITE-DIFFERENCE GROUND-WATER FLOW MODEL
                            VERSION 1.11.00 8/8/2013

 LIST FILE: supply2.lst
                         UNIT   10

 OPENING ..\data\supply.dis
 FILE TYPE:DIS   UNIT   11   STATUS:OLD    
 FORMAT:FORMATTED              ACCESS:SEQUENTIAL          

 OPENING ..\data\supply.ba6
 FILE TYPE:BAS6   UNIT   12   STATUS:OLD    
 FORMAT:FORMATTED              ACCESS:SEQUENTIAL          

 OPENING ..\data\supply_het.bc6
 FILE TYPE:BCF6   UNIT   13   STATUS:OLD    
 FORMAT:FORMATTED              ACCESS:SEQUENTIAL          

 OPENING ..\data\supply.rch
 FILE TYPE:RCH   UNIT   15   STATUS:OLD    
 FORMAT:FORMATTED              ACCESS:SEQUENTIAL          

 OPENING ..\data\supply2.sfr
 FILE TYPE:SFR   UNIT   16   STATUS:OLD    
 FORMAT:FORMATTED              ACCESS:SEQUENTIAL          

 OPENING ..\data\supply.oc
 FILE TYPE:OC   UNIT   17   STATUS:OLD    
 FORMAT:FORMATTED              ACCESS:SEQUENTIAL          

 OPENING ..\data\supply.pcg
 FILE TYPE:PCG   UNIT   18   STATUS:OLD    
 FORMAT:FORMATTED              ACCESS:SEQUENTIAL          

 OPENING supply2.wel
 FILE TYPE:WEL   UNIT   19   STATUS:OLD    
 FORMAT:FORMATTED              ACCESS:SEQUENTIAL          

 OPENING supply2sf.cbc
 FILE TYPE:DATA(BINARY)   UNIT   50   STATUS:UNKNOWN
 FORMAT:BINARY                 ACCESS:SEQUENTIAL          

 OPENING supply2hd.bhd
 FILE TYPE:DATA(BINARY)   UNIT   51   STATUS:UNKNOWN
 FORMAT:BINARY                 ACCESS:SEQUENTIAL          

 BAS -- BASIC PACKAGE, VERSION 7, 5/2/2005 INPUT READ FROM UNIT   12
 
 MODFLOW was compiled using uniform precision
 Precision of REAL and DOUBLE PRECISION variables:          15

 DISCRETIZATION INPUT DATA READ FROM UNIT   11
    1 LAYERS        25 ROWS        30 COLUMNS
   12 STRESS PERIOD(S) IN SIMULATION
 MODEL TIME UNIT IS DAYS
 MODEL LENGTH UNIT IS UNDEFINED
  Confining bed flag for each layer:
   0

                     DELR =   200.000    

                     DELC =   200.000    

 TOP ELEVATION OF LAYER 1 =  100.0000    

   MODEL LAYER BOTTOM EL. =   0.00000     FOR LAYER   1


 STRESS PERIOD     LENGTH       TIME STEPS     MULTIPLIER FOR DELT    SS FLAG
 ----------------------------------------------------------------------------
        1         92.00000          1                    1.500         TR
        2         91.00000          1                    1.500         TR
        3         91.00000          1                    1.500         TR
        4         91.00000          1                    1.500         TR
        5         92.00000          1                    1.500         TR
        6         91.00000          1                    1.500         TR
        7         91.00000          1                    1.500         TR
        8         91.00000          1                    1.500         TR
        9         92.00000          1                    1.500         TR
       10         91.00000          1                    1.500         TR
       11         91.00000          1                    1.500         TR
       12         91.00000          1                    1.500         TR

 TRANSIENT SIMULATION



 
 #MODOFC transient water supply sample problem                                   
 #                                                                               
 THE FREE FORMAT OPTION HAS BEEN SELECTED



                     BOUNDARY ARRAY FOR LAYER   1
 READING ON UNIT   12 WITH FORMAT: (20I4)              

 AQUIFER HEAD WILL BE SET TO   0.0000     AT ALL NO-FLOW NODES (IBOUND=0).



                       INITIAL HEAD FOR LAYER   1
 READING ON UNIT   12 WITH FORMAT: (10F13.0)           

 OUTPUT CONTROL IS SPECIFIED ONLY AT TIME STEPS FOR WHICH OUTPUT IS DESIRED
 COMPACT CELL-BY-CELL BUDGET FILES WILL BE WRITTEN
 HEAD PRINT FORMAT CODE IS  18    DRAWDOWN PRINT FORMAT CODE IS   0
 HEADS WILL BE SAVED ON UNIT   51    DRAWDOWNS WILL BE SAVED ON UNIT    0

 BCF -- BLOCK-CENTERED FLOW PACKAGE, VERSION 7, 5/2/2005
         INPUT READ FROM UNIT 13
 TRANSIENT SIMULATION
 HEAD AT CELLS THAT CONVERT TO DRY=   0.0000    
 WETTING CAPABILITY IS NOT ACTIVE
      LAYER  LAYER-TYPE CODE     INTERBLOCK T
      --------------------------------------------
         1            0          0 -- HARMONIC    

 COLUMN TO ROW ANISOTROPY =  1.000000    

     PRIMARY STORAGE COEF =  5.000000E-02 FOR LAYER   1



               TRANSMIS. ALONG ROWS FOR LAYER   1
 READING ON UNIT   13 WITH FORMAT: (FREE)              

 WEL -- WELL PACKAGE, VERSION 7, 5/2/2005 INPUT READ FROM UNIT   19
 # Well package input file written by MMProc
 No named parameters
 MAXIMUM OF      8 ACTIVE WELLS AT ONE TIME


     0 Well parameters

 RCH -- RECHARGE PACKAGE, VERSION 7, 5/2/2005 INPUT READ FROM UNIT   15
 No named parameters
 OPTION 1 -- RECHARGE TO TOP LAYER


     0 Recharge parameters

 SFR7 -- STREAMFLOW ROUTING PACKAGE, VERSION 1.0.7, 2013-01-15
         INPUT READ FROM UNIT  16
 #  Supply2 test problem for GWM-VI
 #  The eighth entry in the first data line is ISTCB2 -
 #    Setting this to a negative number indicates that
 #    streamflows out of the reach will be saved to a
 #    binary file.  The absolute value of ISTCB2 is the
 #    unit to which unformatted flows will be written.
 #
 No named parameters
 Segment information will not be 
 read by reach
 No named parameters
 No specifed inflow files


 NUMBER OF STREAM REACHES IS   40

 NUMBER OF STREAM SEGMENTS IS    3

 NUMBER OF STREAM PARAMETERS IS    0

 NUMBER OF STREAM SEGMENTS DEFINED USING PARAMETERS IS              0

 MAXIMUM ERROR FOR STREAM LEAKAGE RATES IS  1.00E-04

 CONSTANT FOR MANNINGS EQUATION IS  1.2839E+05





   STREAM NETWORK DESCRIPTION: 

   LAYER    ROW    COL   SEGMENT   REACH     LENGTH
                          NUMBER   NUMBER    IN CELL        
   --------------------------------------------------
      1     13      1       1        1    2.0000E+02
      1     13      2       1        2    2.0000E+02
      1     14      3       1        3    2.0000E+02
      1     15      4       1        4    2.0000E+02
      1     16      5       1        5    2.0000E+02
      1     16      6       1        6    2.0000E+02
      1     16      7       1        7    2.0000E+02
      1     16      8       1        8    2.0000E+02
      1     16      9       1        9    2.0000E+02
      1     16     10       1       10    2.0000E+02
      1     16     11       1       11    2.0000E+02
      1     16     12       1       12    2.0000E+02
      1     15     13       1       13    2.0000E+02
      1     14     14       1       14    2.0000E+02
      1     13     15       1       15    2.0000E+02
      1     12     16       1       16    2.0000E+02
      1     12     17       1       17    2.0000E+02
      1     12     18       1       18    2.0000E+02
      1     12     19       1       19    2.0000E+02
      1     13     20       1       20    2.0000E+02
      1     14     21       1       21    2.0000E+02
      1     14     22       1       22    2.0000E+02
      1      9     30       2        1    2.0000E+02
      1      9     29       2        2    2.0000E+02
      1      9     28       2        3    2.0000E+02
      1      9     27       2        4    2.0000E+02
      1     10     26       2        5    2.0000E+02
      1     11     25       2        6    2.0000E+02
      1     12     24       2        7    2.0000E+02
      1     13     23       2        8    2.0000E+02
      1     14     22       2        9    2.0000E+02
      1     14     22       3        1    2.0000E+02
      1     15     23       3        2    2.0000E+02
      1     15     24       3        3    2.0000E+02
      1     15     25       3        4    2.0000E+02
      1     15     26       3        5    2.0000E+02
      1     16     27       3        6    2.0000E+02
      1     17     28       3        7    2.0000E+02
      1     18     29       3        8    2.0000E+02
      1     18     30       3        9    2.0000E+02




 PCG -- CONJUGATE-GRADIENT SOLUTION PACKAGE, VERSION 7, 5/2/2005
 MAXIMUM OF    500 CALLS OF SOLUTION ROUTINE
 MAXIMUM OF      5 INTERNAL ITERATIONS PER CALL TO SOLUTION ROUTINE
 MATRIX PRECONDITIONING TYPE :    1



                                    SOLUTION BY THE CONJUGATE-GRADIENT METHOD
                                   -------------------------------------------
                    MAXIMUM NUMBER OF CALLS TO PCG ROUTINE =      500
                        MAXIMUM ITERATIONS PER CALL TO PCG =        5
                               MATRIX PRECONDITIONING TYPE =        1
        RELAXATION FACTOR (ONLY USED WITH PRECOND. TYPE 1) =    0.10000E+01
 PARAMETER OF POLYNOMIAL PRECOND. = 2 (2) OR IS CALCULATED :        0
                         HEAD CHANGE CRITERION FOR CLOSURE =    0.10000E-05
                     RESIDUAL CHANGE CRITERION FOR CLOSURE =    0.10000E+01
            PCG HEAD AND RESIDUAL CHANGE PRINTOUT INTERVAL =        1
     PRINTING FROM SOLVER IS LIMITED(1) OR SUPPRESSED (>1) =        1
                            STEADY-STATE DAMPING PARAMETER =    0.10000E+01
                               TRANSIENT DAMPING PARAMETER =    0.10000E+01
1
                            STRESS PERIOD NO.    1, LENGTH =   92.00000    
                            -----------------------------------------------

                              NUMBER OF TIME STEPS =     1

                               MULTIPLIER FOR DELT =     1.500

                            INITIAL TIME STEP SIZE =   92.00000    

 WELL NO.  LAYER   ROW   COL   STRESS RATE         
 --------------------------------------------------
      1      1     14      6       0.000    
      2      1      3      9       0.000    
      3      1     20     10       0.000    
      4      1     14     20       0.000    
      5      1     18     15      -8387.    
      6      1     17     18      -8258.    
      7      1     14     29      -8048.    
      8      1     19     28      -9288.    

      8 WELLS

                 RECHARGE =  5.000000E-04



 CLASSIFICATION & COUNT OF STREAM SEGMENTS BASED ON SOURCE OF INFLOW:

                HEADWATER     DIVERSION     RECEIVES TRIBUTARY FLOW
                ---------     ---------     -----------------------
                     2              0               1



                    INPUT DATA FOR EACH STREAM SEGMENT
 ---------------------------------------------------------------------------------------------

 SEGMENT    SEG.     INFLOW   OVERLAND   STREAM    STREAM   ICALC  OUTFLOW  DIVERSION PRIORITY
    NO.    LENGTH     RATE     RUNOFF      ET       PPT.    METH.  TO SEG.  FROM SEG.    NO.

      1  4.400E+03 1.000E+05 0.000E+00 0.000E+00 0.000E+00    1        3        0        0
      2  1.800E+03 5.000E+04 0.000E+00 0.000E+00 0.000E+00    1        3        0        0
      3  1.800E+03 0.000E+00 0.000E+00 0.000E+00 0.000E+00    1        0        0        0


         STREAMBED PROPERTIES AND STREAM DIMENSIONS

 SEGMENT     BED HYD. COND.      BED THICKNESS     ELEV.-TOP OF BED     WIDTH OF STREAM     DEPTH OF STREAM    STREAM ROUGHNESS
    No.     UPPER     LOWER     UPPER     LOWER     UPPER     LOWER     UPPER     LOWER     UPPER     LOWER   CHANNEL      BANK

     1  5.000E+00 5.000E+00 1.000E+00 1.000E+00 4.850E+01 3.800E+01 2.000E+01 2.000E+01                     5.000E-02
     2  5.000E+00 5.000E+00 1.000E+00 1.000E+00 4.025E+01 3.800E+01 2.000E+01 2.000E+01                     5.000E-02
     3  5.000E+00 5.000E+00 1.000E+00 1.000E+00 3.800E+01 3.000E+01 2.000E+01 2.000E+01                     5.000E-02



 
 SOLVING FOR HEAD 


     9 CALLS TO PCG ROUTINE FOR TIME STEP   1 IN STRESS PERIOD    1
    36 TOTAL ITERATIONS

 OUTPUT CONTROL FOR STRESS PERIOD    1   TIME STEP    1
    SAVE BUDGET
    SAVE HEAD FOR ALL LAYERS
    PRINT HEAD FOR ALL LAYERS
 UBDSV2 SAVING "STREAMFLOW OUT  " ON UNIT  50 AT TIME STEP  1, STRESS PERIOD   1



 STREAM LISTING     PERIOD      1   STEP        1

 LAYER ROW COL. STREAM  RCH.  FLOW INTO     FLOW TO   FLOW OUT OF   OVRLND.     DIRECT     STREAM       STREAM     STREAM     STREAM   STREAMBED  STREAMBED
                SEG.NO.  NO.  STRM. RCH.    AQUIFER    STRM. RCH.    RUNOFF     PRECIP       ET          HEAD       DEPTH      WIDTH   CONDCTNC.   GRADIENT

   1   13    1     1     1    1.0000E+05 -6.1189E+03   1.0612E+05  0.000E+00  0.000E+00  0.000E+00  4.84087E+01  1.473E-01  2.000E+01  2.000E+04 -3.059E-01
   1   13    2     1     2    1.0612E+05 -7.5889E+03   1.1371E+05  0.000E+00  0.000E+00  0.000E+00  4.79372E+01  1.531E-01  2.000E+01  2.000E+04 -3.794E-01
   1   14    3     1     3    1.1371E+05 -2.1971E+03   1.1590E+05  0.000E+00  0.000E+00  0.000E+00  4.74640E+01  1.571E-01  2.000E+01  2.000E+04 -1.099E-01
   1   15    4     1     4    1.1590E+05 -2.2664E+03   1.1817E+05  0.000E+00  0.000E+00  0.000E+00  4.69885E+01  1.590E-01  2.000E+01  2.000E+04 -1.133E-01
   1   16    5     1     5    1.1817E+05 -7.1382E+03   1.2531E+05  0.000E+00  0.000E+00  0.000E+00  4.65150E+01  1.628E-01  2.000E+01  2.000E+04 -3.569E-01
   1   16    6     1     6    1.2531E+05 -4.2617E+03   1.2957E+05  0.000E+00  0.000E+00  0.000E+00  4.60423E+01  1.673E-01  2.000E+01  2.000E+04 -2.131E-01
   1   16    7     1     7    1.2957E+05 -4.0802E+03   1.3365E+05  0.000E+00  0.000E+00  0.000E+00  4.55683E+01  1.706E-01  2.000E+01  2.000E+04 -2.040E-01
   1   16    8     1     8    1.3365E+05 -4.0127E+03   1.3766E+05  0.000E+00  0.000E+00  0.000E+00  4.50942E+01  1.737E-01  2.000E+01  2.000E+04 -2.006E-01
   1   16    9     1     9    1.3766E+05 -3.9588E+03   1.4162E+05  0.000E+00  0.000E+00  0.000E+00  4.46199E+01  1.767E-01  2.000E+01  2.000E+04 -1.979E-01
   1   16   10     1    10    1.4162E+05 -3.8832E+03   1.4551E+05  0.000E+00  0.000E+00  0.000E+00  4.41456E+01  1.797E-01  2.000E+01  2.000E+04 -1.942E-01
   1   16   11     1    11    1.4551E+05 -3.7764E+03   1.4928E+05  0.000E+00  0.000E+00  0.000E+00  4.36712E+01  1.826E-01  2.000E+01  2.000E+04 -1.888E-01
   1   16   12     1    12    1.4928E+05 -5.9050E+03   1.5519E+05  0.000E+00  0.000E+00  0.000E+00  4.31975E+01  1.861E-01  2.000E+01  2.000E+04 -2.952E-01
   1   15   13     1    13    1.5519E+05 -6.2670E+03   1.6145E+05  0.000E+00  0.000E+00  0.000E+00  4.27247E+01  1.906E-01  2.000E+01  2.000E+04 -3.133E-01
   1   14   14     1    14    1.6145E+05 -6.9309E+03   1.6839E+05  0.000E+00  0.000E+00  0.000E+00  4.22521E+01  1.953E-01  2.000E+01  2.000E+04 -3.465E-01
   1   13   15     1    15    1.6839E+05 -7.5556E+03   1.7594E+05  0.000E+00  0.000E+00  0.000E+00  4.17799E+01  2.004E-01  2.000E+01  2.000E+04 -3.778E-01
   1   12   16     1    16    1.7594E+05 -8.6285E+03   1.8457E+05  0.000E+00  0.000E+00  0.000E+00  4.13083E+01  2.060E-01  2.000E+01  2.000E+04 -4.314E-01
   1   12   17     1    17    1.8457E+05 -5.9756E+03   1.9055E+05  0.000E+00  0.000E+00  0.000E+00  4.08360E+01  2.110E-01  2.000E+01  2.000E+04 -2.988E-01
   1   12   18     1    18    1.9055E+05 -5.8205E+03   1.9637E+05  0.000E+00  0.000E+00  0.000E+00  4.03626E+01  2.149E-01  2.000E+01  2.000E+04 -2.910E-01
   1   12   19     1    19    1.9637E+05 -7.5161E+03   2.0388E+05  0.000E+00  0.000E+00  0.000E+00  3.98898E+01  2.193E-01  2.000E+01  2.000E+04 -3.758E-01
   1   13   20     1    20    2.0388E+05 -6.2411E+03   2.1012E+05  0.000E+00  0.000E+00  0.000E+00  3.94170E+01  2.238E-01  2.000E+01  2.000E+04 -3.121E-01
   1   14   21     1    21    2.1012E+05 -5.5284E+03   2.1565E+05  0.000E+00  0.000E+00  0.000E+00  3.89435E+01  2.276E-01  2.000E+01  2.000E+04 -2.764E-01
   1   14   22     1    22    2.1565E+05  3.7730E+03   2.1188E+05  0.000E+00  0.000E+00  0.000E+00  3.84668E+01  2.282E-01  2.000E+01  2.000E+04  1.887E-01
   1    9   30     2     1    5.0000E+04 -4.3420E+03   5.4342E+04  0.000E+00  0.000E+00  0.000E+00  4.02439E+01  1.189E-01  2.000E+01  2.000E+04 -2.171E-01
   1    9   29     2     2    5.4342E+04 -4.6816E+03   5.9024E+04  0.000E+00  0.000E+00  0.000E+00  3.99999E+01  1.249E-01  2.000E+01  2.000E+04 -2.341E-01
   1    9   28     2     3    5.9024E+04 -5.0679E+03   6.4092E+04  0.000E+00  0.000E+00  0.000E+00  3.97563E+01  1.313E-01  2.000E+01  2.000E+04 -2.534E-01
   1    9   27     2     4    6.4092E+04 -8.0827E+03   7.2174E+04  0.000E+00  0.000E+00  0.000E+00  3.95145E+01  1.395E-01  2.000E+01  2.000E+04 -4.041E-01
   1   10   26     2     5    7.2174E+04 -6.9212E+03   7.9095E+04  0.000E+00  0.000E+00  0.000E+00  3.92735E+01  1.485E-01  2.000E+01  2.000E+04 -3.461E-01
   1   11   25     2     6    7.9095E+04 -6.4654E+03   8.5561E+04  0.000E+00  0.000E+00  0.000E+00  3.90313E+01  1.563E-01  2.000E+01  2.000E+04 -3.233E-01
   1   12   24     2     7    8.5561E+04 -6.1833E+03   9.1744E+04  0.000E+00  0.000E+00  0.000E+00  3.87884E+01  1.634E-01  2.000E+01  2.000E+04 -3.092E-01
   1   13   23     2     8    9.1744E+04 -1.6495E+03   9.3394E+04  0.000E+00  0.000E+00  0.000E+00  3.85427E+01  1.677E-01  2.000E+01  2.000E+04 -8.248E-02
   1   14   22     2     9    9.3394E+04  3.0457E+02   9.3089E+04  0.000E+00  0.000E+00  0.000E+00  3.82934E+01  1.684E-01  2.000E+01  2.000E+04  1.523E-02
   1   14   22     3     1    3.0497E+05 -9.7207E+03   3.1469E+05  0.000E+00  0.000E+00  0.000E+00  3.77921E+01  2.366E-01  2.000E+01  2.000E+04 -4.860E-01
   1   15   23     3     2    3.1469E+05 -1.8650E+03   3.1655E+05  0.000E+00  0.000E+00  0.000E+00  3.69059E+01  2.392E-01  2.000E+01  2.000E+04 -9.325E-02
   1   15   24     3     3    3.1655E+05 -1.5013E+03   3.1805E+05  0.000E+00  0.000E+00  0.000E+00  3.60178E+01  2.400E-01  2.000E+01  2.000E+04 -7.507E-02
   1   15   25     3     4    3.1805E+05 -1.5463E+03   3.1960E+05  0.000E+00  0.000E+00  0.000E+00  3.51296E+01  2.407E-01  2.000E+01  2.000E+04 -7.731E-02
   1   15   26     3     5    3.1960E+05 -1.7112E+03   3.2131E+05  0.000E+00  0.000E+00  0.000E+00  3.42414E+01  2.414E-01  2.000E+01  2.000E+04 -8.556E-02
   1   16   27     3     6    3.2131E+05 -1.7957E+03   3.2311E+05  0.000E+00  0.000E+00  0.000E+00  3.33533E+01  2.422E-01  2.000E+01  2.000E+04 -8.979E-02
   1   17   28     3     7    3.2311E+05 -3.3011E+03   3.2641E+05  0.000E+00  0.000E+00  0.000E+00  3.24656E+01  2.434E-01  2.000E+01  2.000E+04 -1.651E-01
   1   18   29     3     8    3.2641E+05 -4.0272E+03   3.3044E+05  0.000E+00  0.000E+00  0.000E+00  3.15783E+01  2.450E-01  2.000E+01  2.000E+04 -2.014E-01
   1   18   30     3     9    3.3044E+05 -5.2959E+03   3.3573E+05  0.000E+00  0.000E+00  0.000E+00  3.06915E+01  2.471E-01  2.000E+01  2.000E+04 -2.648E-01



1
              HEAD IN LAYER   1 AT END OF TIME STEP   1 IN STRESS PERIOD    1
  ---------------------------------------------------------------------------

          1      2      3      4      5      6      7      8      9     10
         11     12     13     14     15     16     17     18     19     20
         21     22     23     24     25     26     27     28     29     30
 .........................................................................
   1  ****** ****** ****** ****** ****** ****** ****** ****** ****** ******
      ****** ****** ****** ****** ****** ****** ****** ****** ****** ******
      ****** ****** ****** ****** ****** ****** ****** ****** ****** ******
   2  ****** ****** ****** ****** ****** ****** ****** ****** ****** ******
      ****** ****** ****** ****** ****** ****** ****** ****** ****** ******
      ****** ****** ****** ****** ****** ****** ****** ****** ****** ******
   3  ****** ****** ****** ****** ****** ****** ****** ****** ****** ******
      ****** ****** ****** ****** ****** ****** ****** ****** ****** ******
      ****** ****** ****** ****** ****** ****** ****** ****** ****** ******
   4  ****** ****** ****** ****** ****** ****** ****** ****** ****** ******
      ****** ****** ****** ****** ****** ****** ****** ****** ****** ******
      ****** ****** ****** ****** ****** ****** ****** ****** ****** ******
   5  ****** ****** ****** ****** ****** ****** ****** ****** ****** ******
      ****** ****** ****** ****** ****** ****** ****** ****** ****** ******
      ****** ****** ****** ****** ****** ****** ****** ****** ****** ******
   6  ****** ****** ****** ****** ****** ****** ****** ****** ****** ******
      ****** ****** ****** ****** ****** ****** ****** ****** ****** ******
      ****** ****** ****** ****** ****** ****** ****** ****** ****** ******
   7  ****** ****** ****** ****** ****** ****** ****** ****** ****** ******
      ****** ****** ****** ****** ****** ****** ****** ****** ****** ******
      ****** ****** ****** ****** ****** ****** ****** ****** ****** ******
   8  ****** ****** ****** ****** ****** ****** ****** ****** ****** ******
      ****** ****** ****** ****** ****** ****** ****** ****** ****** ******
      ****** ****** ****** ****** ****** ****** ****** ****** ****** ******
   9  ****** ****** ****** ****** ****** ****** ****** ****** ****** ******
      ****** ****** ****** ****** ****** ****** ****** ****** ****** ******
      ****** ****** ****** ****** ****** ****** ****** ****** ****** ******
  10  ****** ****** ****** ****** ****** ****** ****** ****** ****** ******
      ****** ****** ****** ****** ****** ****** ****** ****** ****** ******
      ****** ****** ****** ****** ****** ****** ****** ****** ****** ******
  11  ****** ****** ****** ****** ****** ****** ****** ****** ****** ******
      ****** ****** ****** ****** ****** ****** ****** ****** ****** ******
      ****** ****** ****** ****** ****** ****** ****** ****** ****** ******
  12  ****** ****** ****** ****** ****** ****** ****** ****** ****** ******
      ****** ****** ****** ****** ****** ****** ****** ****** ****** ******
      ****** ****** ****** ****** ****** ****** ****** ****** ****** ******
  13  ****** ****** ****** ****** ****** ****** ****** ****** ****** ******
      ****** ****** ****** ****** ****** ****** ****** ****** ****** ******
      ****** ****** ****** ****** ****** ****** ****** ****** ****** ******
  14  ****** ****** ****** ****** ****** ****** ****** ****** ****** ******
      ****** ****** ****** ****** ****** ****** ****** ****** ****** ******
      ****** ****** ****** ****** ****** ****** ****** ****** ****** ******
  15  ****** ****** ****** ****** ****** ****** ****** ****** ****** ******
      ****** ****** ****** ****** ****** ****** ****** ****** ****** ******
      ****** ****** ****** ****** ****** ****** ****** ****** ****** ******
  16  ****** ****** ****** ****** ****** ****** ****** ****** ****** ******
      ****** ****** ****** ****** ****** ****** ****** ****** ****** ******
      ****** ****** ****** ****** ****** ****** ****** ****** ****** ******
  17  ****** ****** ****** ****** ****** ****** ****** ****** ****** ******
      ****** ****** ****** ****** ****** ****** ****** ****** ****** ******
      ****** ****** ****** ****** ****** ****** ****** ****** ****** ******
  18  ****** ****** ****** ****** ****** ****** ****** ****** ****** ******
      ****** ****** ****** ****** ****** ****** ****** ****** ****** ******
      ****** ****** ****** ****** ****** ****** ****** ****** ****** ******
  19  ****** ****** ****** ****** ****** ****** ****** ****** ****** ******
      ****** ****** ****** ****** ****** ****** ****** ****** ****** ******
      ****** ****** ****** ****** ****** ****** ****** ****** ****** ******
  20  ****** ****** ****** ****** ****** ****** ****** ****** ****** ******
      ****** ****** ****** ****** ****** ****** ****** ****** ****** ******
      ****** ****** ****** ****** ****** ****** ****** ****** ****** ******
  21  ****** ****** ****** ****** ****** ****** ****** ****** ****** ******
      ****** ****** ****** ****** ****** ****** ****** ****** ****** ******
      ****** ****** ****** ****** ****** ****** ****** ****** ****** ******
  22  ****** ****** ****** ****** ****** ****** ****** ****** ****** ******
      ****** ****** ****** ****** ****** ****** ****** ****** ****** ******
      ****** ****** ****** ****** ****** ****** ****** ****** ****** ******
  23  ****** ****** ****** ****** ****** ****** ****** ****** ****** ******
      ****** ****** ****** ****** ****** ****** ****** ****** ****** ******
      ****** ****** ****** ****** ****** ****** ****** ****** ****** ******
  24  ****** ****** ****** ****** ****** ****** ****** ****** ****** ******
      ****** ****** ****** ****** ****** ****** ****** ****** ****** ******
      ****** ****** ****** ****** ****** ****** ****** ****** ****** ******
  25  ****** ****** ****** ****** ****** ****** ****** ****** ****** ******
      ****** ****** ****** ****** ****** ****** ****** ****** ****** ******
      ****** ****** ****** ****** ****** ****** ****** ****** ****** ******

 HEAD WILL BE SAVED ON UNIT   51 AT END OF TIME STEP    1, STRESS PERIOD    1
1
  VOLUMETRIC BUDGET FOR ENTIRE MODEL AT END OF TIME STEP    1, STRESS PERIOD   1
  ------------------------------------------------------------------------------

     CUMULATIVE VOLUMES      L**3       RATES FOR THIS TIME STEP      L**3/T
     ------------------                 ------------------------

           IN:                                      IN:
           ---                                      ---
             STORAGE =    17794470.2914               STORAGE =      193418.1553
       CONSTANT HEAD =     1149624.5015         CONSTANT HEAD =       12495.9185
               WELLS =           0.0000                 WELLS =           0.0000
            RECHARGE =     1269600.0000              RECHARGE =       13800.0000
      STREAM LEAKAGE =      375138.7514        STREAM LEAKAGE =        4077.5951

            TOTAL IN =    20588833.5443              TOTAL IN =      223791.6690

          OUT:                                     OUT:
          ----                                     ----
             STORAGE =           0.0000               STORAGE =           0.0000
       CONSTANT HEAD =           0.0000         CONSTANT HEAD =           0.0000
               WELLS =     3126389.1599                 WELLS =       33982.4909
            RECHARGE =           0.0000              RECHARGE =           0.0000
      STREAM LEAKAGE =    17462444.6698        STREAM LEAKAGE =      189809.1812

           TOTAL OUT =    20588833.8297             TOTAL OUT =      223791.6721

            IN - OUT =          -0.2855              IN - OUT =      -3.1028E-03

 PERCENT DISCREPANCY =          -0.00     PERCENT DISCREPANCY =          -0.00






         TIME SUMMARY AT END OF TIME STEP    1 IN STRESS PERIOD    1
                    SECONDS     MINUTES      HOURS       DAYS        YEARS
                    -----------------------------------------------------------
   TIME STEP LENGTH 7.94880E+06 1.32480E+05  2208.0      92.000     0.25188    
 STRESS PERIOD TIME 7.94880E+06 1.32480E+05  2208.0      92.000     0.25188    
         TOTAL TIME 7.94880E+06 1.32480E+05  2208.0      92.000     0.25188    
1
1
                            STRESS PERIOD NO.    2, LENGTH =   91.00000    
                            -----------------------------------------------

                              NUMBER OF TIME STEPS =     1

                               MULTIPLIER FOR DELT =     1.500

                            INITIAL TIME STEP SIZE =   91.00000    

 WELL NO.  LAYER   ROW   COL   STRESS RATE         
 --------------------------------------------------
      1      1     14      6       0.000    
      2      1      3      9       0.000    
      3      1     20     10       0.000    
      4      1     14     20       0.000    
      5      1     18     15      -8387.    
      6      1     17     18      -8258.    
      7      1     14     29      -8048.    
      8      1     19     28      -9288.    

      8 WELLS

                 RECHARGE =  2.000000E-03

 REUSING STREAM SEGMENT DATA FROM LAST STRESS PERIOD
 
 SOLVING FOR HEAD 


     7 CALLS TO PCG ROUTINE FOR TIME STEP   1 IN STRESS PERIOD    2
    27 TOTAL ITERATIONS

 OUTPUT CONTROL FOR STRESS PERIOD    2   TIME STEP    1
    SAVE BUDGET
    SAVE HEAD FOR ALL LAYERS
    PRINT HEAD FOR ALL LAYERS
 UBDSV2 SAVING "STREAMFLOW OUT  " ON UNIT  50 AT TIME STEP  1, STRESS PERIOD   2



 STREAM LISTING     PERIOD      2   STEP        1

 LAYER ROW COL. STREAM  RCH.  FLOW INTO     FLOW TO   FLOW OUT OF   OVRLND.     DIRECT     STREAM       STREAM     STREAM     STREAM   STREAMBED  STREAMBED
                SEG.NO.  NO.  STRM. RCH.    AQUIFER    STRM. RCH.    RUNOFF     PRECIP       ET          HEAD       DEPTH      WIDTH   CONDCTNC.   GRADIENT

   1   13    1     1     1    1.0000E+05 -4.0024E+03   1.0400E+05  0.000E+00  0.000E+00  0.000E+00  4.84077E+01  1.464E-01  2.000E+01  2.000E+04 -2.001E-01
   1   13    2     1     2    1.0400E+05 -5.2657E+03   1.0927E+05  0.000E+00  0.000E+00  0.000E+00  4.79344E+01  1.503E-01  2.000E+01  2.000E+04 -2.633E-01
   1   14    3     1     3    1.0927E+05 -1.1121E+03   1.1038E+05  0.000E+00  0.000E+00  0.000E+00  4.74598E+01  1.530E-01  2.000E+01  2.000E+04 -5.561E-02
   1   15    4     1     4    1.1038E+05 -1.1355E+03   1.1152E+05  0.000E+00  0.000E+00  0.000E+00  4.69835E+01  1.540E-01  2.000E+01  2.000E+04 -5.677E-02
   1   16    5     1     5    1.1152E+05 -4.1560E+03   1.1567E+05  0.000E+00  0.000E+00  0.000E+00  4.65084E+01  1.561E-01  2.000E+01  2.000E+04 -2.078E-01
   1   16    6     1     6    1.1567E+05 -2.4274E+03   1.1810E+05  0.000E+00  0.000E+00  0.000E+00  4.60338E+01  1.588E-01  2.000E+01  2.000E+04 -1.214E-01
   1   16    7     1     7    1.1810E+05 -2.3078E+03   1.2041E+05  0.000E+00  0.000E+00  0.000E+00  4.55585E+01  1.608E-01  2.000E+01  2.000E+04 -1.154E-01
   1   16    8     1     8    1.2041E+05 -2.2379E+03   1.2264E+05  0.000E+00  0.000E+00  0.000E+00  4.50831E+01  1.626E-01  2.000E+01  2.000E+04 -1.119E-01
   1   16    9     1     9    1.2264E+05 -2.1541E+03   1.2480E+05  0.000E+00  0.000E+00  0.000E+00  4.46075E+01  1.644E-01  2.000E+01  2.000E+04 -1.077E-01
   1   16   10     1    10    1.2480E+05 -2.0280E+03   1.2683E+05  0.000E+00  0.000E+00  0.000E+00  4.41319E+01  1.660E-01  2.000E+01  2.000E+04 -1.014E-01
   1   16   11     1    11    1.2683E+05 -1.8446E+03   1.2867E+05  0.000E+00  0.000E+00  0.000E+00  4.36562E+01  1.675E-01  2.000E+01  2.000E+04 -9.223E-02
   1   16   12     1    12    1.2867E+05 -2.6419E+03   1.3131E+05  0.000E+00  0.000E+00  0.000E+00  4.31807E+01  1.693E-01  2.000E+01  2.000E+04 -1.321E-01
   1   15   13     1    13    1.3131E+05 -2.7241E+03   1.3404E+05  0.000E+00  0.000E+00  0.000E+00  4.27055E+01  1.714E-01  2.000E+01  2.000E+04 -1.362E-01
   1   14   14     1    14    1.3404E+05 -3.3310E+03   1.3737E+05  0.000E+00  0.000E+00  0.000E+00  4.22305E+01  1.737E-01  2.000E+01  2.000E+04 -1.666E-01
   1   13   15     1    15    1.3737E+05 -4.0526E+03   1.4142E+05  0.000E+00  0.000E+00  0.000E+00  4.17561E+01  1.766E-01  2.000E+01  2.000E+04 -2.026E-01
   1   12   16     1    16    1.4142E+05 -5.4800E+03   1.4690E+05  0.000E+00  0.000E+00  0.000E+00  4.12824E+01  1.801E-01  2.000E+01  2.000E+04 -2.740E-01
   1   12   17     1    17    1.4690E+05 -3.4166E+03   1.5032E+05  0.000E+00  0.000E+00  0.000E+00  4.08085E+01  1.835E-01  2.000E+01  2.000E+04 -1.708E-01
   1   12   18     1    18    1.5032E+05 -3.2556E+03   1.5357E+05  0.000E+00  0.000E+00  0.000E+00  4.03337E+01  1.859E-01  2.000E+01  2.000E+04 -1.628E-01
   1   12   19     1    19    1.5357E+05 -4.3882E+03   1.5796E+05  0.000E+00  0.000E+00  0.000E+00  3.98592E+01  1.887E-01  2.000E+01  2.000E+04 -2.194E-01
   1   13   20     1    20    1.5796E+05 -2.9516E+03   1.6091E+05  0.000E+00  0.000E+00  0.000E+00  3.93846E+01  1.914E-01  2.000E+01  2.000E+04 -1.476E-01
   1   14   21     1    21    1.6091E+05 -2.4543E+03   1.6337E+05  0.000E+00  0.000E+00  0.000E+00  3.89092E+01  1.933E-01  2.000E+01  2.000E+04 -1.227E-01
   1   14   22     1    22    1.6337E+05  4.5844E+03   1.5878E+05  0.000E+00  0.000E+00  0.000E+00  3.84312E+01  1.925E-01  2.000E+01  2.000E+04  2.292E-01
   1    9   30     2     1    5.0000E+04 -1.4821E+03   5.1482E+04  0.000E+00  0.000E+00  0.000E+00  4.02419E+01  1.169E-01  2.000E+01  2.000E+04 -7.410E-02
   1    9   29     2     2    5.1482E+04 -1.8502E+03   5.3332E+04  0.000E+00  0.000E+00  0.000E+00  3.99942E+01  1.192E-01  2.000E+01  2.000E+04 -9.251E-02
   1    9   28     2     3    5.3332E+04 -2.2863E+03   5.5619E+04  0.000E+00  0.000E+00  0.000E+00  3.97470E+01  1.220E-01  2.000E+01  2.000E+04 -1.143E-01
   1    9   27     2     4    5.5619E+04 -4.6012E+03   6.0220E+04  0.000E+00  0.000E+00  0.000E+00  3.95016E+01  1.266E-01  2.000E+01  2.000E+04 -2.301E-01
   1   10   26     2     5    6.0220E+04 -3.2302E+03   6.3450E+04  0.000E+00  0.000E+00  0.000E+00  3.92566E+01  1.316E-01  2.000E+01  2.000E+04 -1.615E-01
   1   11   25     2     6    6.3450E+04 -2.9532E+03   6.6403E+04  0.000E+00  0.000E+00  0.000E+00  3.90105E+01  1.355E-01  2.000E+01  2.000E+04 -1.477E-01
   1   12   24     2     7    6.6403E+04 -3.0935E+03   6.9497E+04  0.000E+00  0.000E+00  0.000E+00  3.87643E+01  1.393E-01  2.000E+01  2.000E+04 -1.547E-01
   1   13   23     2     8    6.9497E+04 -6.1110E+02   7.0108E+04  0.000E+00  0.000E+00  0.000E+00  3.85165E+01  1.415E-01  2.000E+01  2.000E+04 -3.055E-02
   1   14   22     2     9    7.0108E+04  1.2834E+03   6.8825E+04  0.000E+00  0.000E+00  0.000E+00  3.82661E+01  1.411E-01  2.000E+01  2.000E+04  6.417E-02
   1   14   22     3     1    2.2761E+05 -8.9498E+03   2.3656E+05  0.000E+00  0.000E+00  0.000E+00  3.77545E+01  1.989E-01  2.000E+01  2.000E+04 -4.475E-01
   1   15   23     3     2    2.3656E+05 -8.5512E+02   2.3741E+05  0.000E+00  0.000E+00  0.000E+00  3.68681E+01  2.014E-01  2.000E+01  2.000E+04 -4.276E-02
   1   15   24     3     3    2.3741E+05 -6.0893E+02   2.3802E+05  0.000E+00  0.000E+00  0.000E+00  3.59796E+01  2.018E-01  2.000E+01  2.000E+04 -3.045E-02
   1   15   25     3     4    2.3802E+05 -6.0949E+02   2.3863E+05  0.000E+00  0.000E+00  0.000E+00  3.50910E+01  2.021E-01  2.000E+01  2.000E+04 -3.047E-02
   1   15   26     3     5    2.3863E+05 -5.2921E+02   2.3916E+05  0.000E+00  0.000E+00  0.000E+00  3.42024E+01  2.024E-01  2.000E+01  2.000E+04 -2.646E-02
   1   16   27     3     6    2.3916E+05 -4.1599E+02   2.3958E+05  0.000E+00  0.000E+00  0.000E+00  3.33138E+01  2.026E-01  2.000E+01  2.000E+04 -2.080E-02
   1   17   28     3     7    2.3958E+05  6.2739E+02   2.3895E+05  0.000E+00  0.000E+00  0.000E+00  3.24248E+01  2.026E-01  2.000E+01  2.000E+04  3.137E-02
   1   18   29     3     8    2.3895E+05 -4.2878E+02   2.3938E+05  0.000E+00  0.000E+00  0.000E+00  3.15359E+01  2.025E-01  2.000E+01  2.000E+04 -2.144E-02
   1   18   30     3     9    2.3938E+05 -2.3368E+03   2.4171E+05  0.000E+00  0.000E+00  0.000E+00  3.06477E+01  2.032E-01  2.000E+01  2.000E+04 -1.168E-01



1
              HEAD IN LAYER   1 AT END OF TIME STEP   1 IN STRESS PERIOD    2
  ---------------------------------------------------------------------------

          1      2      3      4      5      6      7      8      9     10
         11     12     13     14     15     16     17     18     19     20
         21     22     23     24     25     26     27     28     29     30
 .........................................................................
   1  ****** ****** ****** ****** ****** ****** ****** ****** ****** ******
      ****** ****** ****** ****** ****** ****** ****** ****** ****** ******
      ****** ****** ****** ****** ****** ****** ****** ****** ****** ******
   2  ****** ****** ****** ****** ****** ****** ****** ****** ****** ******
      ****** ****** ****** ****** ****** ****** ****** ****** ****** ******
      ****** ****** ****** ****** ****** ****** ****** ****** ****** ******
   3  ****** ****** ****** ****** ****** ****** ****** ****** ****** ******
      ****** ****** ****** ****** ****** ****** ****** ****** ****** ******
      ****** ****** ****** ****** ****** ****** ****** ****** ****** ******
   4  ****** ****** ****** ****** ****** ****** ****** ****** ****** ******
      ****** ****** ****** ****** ****** ****** ****** ****** ****** ******
      ****** ****** ****** ****** ****** ****** ****** ****** ****** ******
   5  ****** ****** ****** ****** ****** ****** ****** ****** ****** ******
      ****** ****** ****** ****** ****** ****** ****** ****** ****** ******
      ****** ****** ****** ****** ****** ****** ****** ****** ****** ******
   6  ****** ****** ****** ****** ****** ****** ****** ****** ****** ******
      ****** ****** ****** ****** ****** ****** ****** ****** ****** ******
      ****** ****** ****** ****** ****** ****** ****** ****** ****** ******
   7  ****** ****** ****** ****** ****** ****** ****** ****** ****** ******
      ****** ****** ****** ****** ****** ****** ****** ****** ****** ******
      ****** ****** ****** ****** ****** ****** ****** ****** ****** ******
   8  ****** ****** ****** ****** ****** ****** ****** ****** ****** ******
      ****** ****** ****** ****** ****** ****** ****** ****** ****** ******
      ****** ****** ****** ****** ****** ****** ****** ****** ****** ******
   9  ****** ****** ****** ****** ****** ****** ****** ****** ****** ******
      ****** ****** ****** ****** ****** ****** ****** ****** ****** ******
      ****** ****** ****** ****** ****** ****** ****** ****** ****** ******
  10  ****** ****** ****** ****** ****** ****** ****** ****** ****** ******
      ****** ****** ****** ****** ****** ****** ****** ****** ****** ******
      ****** ****** ****** ****** ****** ****** ****** ****** ****** ******
  11  ****** ****** ****** ****** ****** ****** ****** ****** ****** ******
      ****** ****** ****** ****** ****** ****** ****** ****** ****** ******
      ****** ****** ****** ****** ****** ****** ****** ****** ****** ******
  12  ****** ****** ****** ****** ****** ****** ****** ****** ****** ******
      ****** ****** ****** ****** ****** ****** ****** ****** ****** ******
      ****** ****** ****** ****** ****** ****** ****** ****** ****** ******
  13  ****** ****** ****** ****** ****** ****** ****** ****** ****** ******
      ****** ****** ****** ****** ****** ****** ****** ****** ****** ******
      ****** ****** ****** ****** ****** ****** ****** ****** ****** ******
  14  ****** ****** ****** ****** ****** ****** ****** ****** ****** ******
      ****** ****** ****** ****** ****** ****** ****** ****** ****** ******
      ****** ****** ****** ****** ****** ****** ****** ****** ****** ******
  15  ****** ****** ****** ****** ****** ****** ****** ****** ****** ******
      ****** ****** ****** ****** ****** ****** ****** ****** ****** ******
      ****** ****** ****** ****** ****** ****** ****** ****** ****** ******
  16  ****** ****** ****** ****** ****** ****** ****** ****** ****** ******
      ****** ****** ****** ****** ****** ****** ****** ****** ****** ******
      ****** ****** ****** ****** ****** ****** ****** ****** ****** ******
  17  ****** ****** ****** ****** ****** ****** ****** ****** ****** ******
      ****** ****** ****** ****** ****** ****** ****** ****** ****** ******
      ****** ****** ****** ****** ****** ****** ****** ****** ****** ******
  18  ****** ****** ****** ****** ****** ****** ****** ****** ****** ******
      ****** ****** ****** ****** ****** ****** ****** ****** ****** ******
      ****** ****** ****** ****** ****** ****** ****** ****** ****** ******
  19  ****** ****** ****** ****** ****** ****** ****** ****** ****** ******
      ****** ****** ****** ****** ****** ****** ****** ****** ****** ******
      ****** ****** ****** ****** ****** ****** ****** ****** ****** ******
  20  ****** ****** ****** ****** ****** ****** ****** ****** ****** ******
      ****** ****** ****** ****** ****** ****** ****** ****** ****** ******
      ****** ****** ****** ****** ****** ****** ****** ****** ****** ******
  21  ****** ****** ****** ****** ****** ****** ****** ****** ****** ******
      ****** ****** ****** ****** ****** ****** ****** ****** ****** ******
      ****** ****** ****** ****** ****** ****** ****** ****** ****** ******
  22  ****** ****** ****** ****** ****** ****** ****** ****** ****** ******
      ****** ****** ****** ****** ****** ****** ****** ****** ****** ******
      ****** ****** ****** ****** ****** ****** ****** ****** ****** ******
  23  ****** ****** ****** ****** ****** ****** ****** ****** ****** ******
      ****** ****** ****** ****** ****** ****** ****** ****** ****** ******
      ****** ****** ****** ****** ****** ****** ****** ****** ****** ******
  24  ****** ****** ****** ****** ****** ****** ****** ****** ****** ******
      ****** ****** ****** ****** ****** ****** ****** ****** ****** ******
      ****** ****** ****** ****** ****** ****** ****** ****** ****** ******
  25  ****** ****** ****** ****** ****** ****** ****** ****** ****** ******
      ****** ****** ****** ****** ****** ****** ****** ****** ****** ******
      ****** ****** ****** ****** ****** ****** ****** ****** ****** ******

 HEAD WILL BE SAVED ON UNIT   51 AT END OF TIME STEP    1, STRESS PERIOD    2
1
  VOLUMETRIC BUDGET FOR ENTIRE MODEL AT END OF TIME STEP    1, STRESS PERIOD   2
  ------------------------------------------------------------------------------

     CUMULATIVE VOLUMES      L**3       RATES FOR THIS TIME STEP      L**3/T
     ------------------                 ------------------------

           IN:                                      IN:
           ---                                      ---
             STORAGE =    22663845.6977               STORAGE =       53509.6198
       CONSTANT HEAD =     2695453.1502         CONSTANT HEAD =       16987.1280
               WELLS =           0.0000                 WELLS =           0.0000
            RECHARGE =     6292800.0000              RECHARGE =       55200.0000
      STREAM LEAKAGE =      966193.0058        STREAM LEAKAGE =        6495.1017

            TOTAL IN =    32618291.8537              TOTAL IN =      132191.8496

          OUT:                                     OUT:
          ----                                     ----
             STORAGE =           0.0000               STORAGE =           0.0000
       CONSTANT HEAD =           0.0000         CONSTANT HEAD =           0.0000
               WELLS =     6218795.8290                 WELLS =       33982.4909
            RECHARGE =           0.0000              RECHARGE =           0.0000
      STREAM LEAKAGE =    26399497.2462        STREAM LEAKAGE =       98209.3690

           TOTAL OUT =    32618293.0752             TOTAL OUT =      132191.8598

            IN - OUT =          -1.2215              IN - OUT =      -1.0287E-02

 PERCENT DISCREPANCY =          -0.00     PERCENT DISCREPANCY =          -0.00






         TIME SUMMARY AT END OF TIME STEP    1 IN STRESS PERIOD    2
                    SECONDS     MINUTES      HOURS       DAYS        YEARS
                    -----------------------------------------------------------
   TIME STEP LENGTH 7.86240E+06 1.31040E+05  2184.0      91.000     0.24914    
 STRESS PERIOD TIME 7.86240E+06 1.31040E+05  2184.0      91.000     0.24914    
         TOTAL TIME 1.58112E+07 2.63520E+05  4392.0      183.00     0.50103    
1
1
                            STRESS PERIOD NO.    3, LENGTH =   91.00000    
                            -----------------------------------------------

                              NUMBER OF TIME STEPS =     1

                               MULTIPLIER FOR DELT =     1.500

                            INITIAL TIME STEP SIZE =   91.00000    

 WELL NO.  LAYER   ROW   COL   STRESS RATE         
 --------------------------------------------------
      1      1     14      6       0.000    
      2      1      3      9       0.000    
      3      1     20     10       0.000    
      4      1     14     20       0.000    
      5      1     18     15      -8387.    
      6      1     17     18      -8258.    
      7      1     14     29      -8048.    
      8      1     19     28      -9288.    

      8 WELLS

                 RECHARGE =   0.00000    

 REUSING STREAM SEGMENT DATA FROM LAST STRESS PERIOD
 
 SOLVING FOR HEAD 


     7 CALLS TO PCG ROUTINE FOR TIME STEP   1 IN STRESS PERIOD    3
    27 TOTAL ITERATIONS

 OUTPUT CONTROL FOR STRESS PERIOD    3   TIME STEP    1
    SAVE BUDGET
    SAVE HEAD FOR ALL LAYERS
    PRINT HEAD FOR ALL LAYERS
 UBDSV2 SAVING "STREAMFLOW OUT  " ON UNIT  50 AT TIME STEP  1, STRESS PERIOD   3



 STREAM LISTING     PERIOD      3   STEP        1

 LAYER ROW COL. STREAM  RCH.  FLOW INTO     FLOW TO   FLOW OUT OF   OVRLND.     DIRECT     STREAM       STREAM     STREAM     STREAM   STREAMBED  STREAMBED
                SEG.NO.  NO.  STRM. RCH.    AQUIFER    STRM. RCH.    RUNOFF     PRECIP       ET          HEAD       DEPTH      WIDTH   CONDCTNC.   GRADIENT

   1   13    1     1     1    1.0000E+05 -2.7578E+03   1.0276E+05  0.000E+00  0.000E+00  0.000E+00  4.84072E+01  1.458E-01  2.000E+01  2.000E+04 -1.379E-01
   1   13    2     1     2    1.0276E+05 -3.8691E+03   1.0663E+05  0.000E+00  0.000E+00  0.000E+00  4.79328E+01  1.487E-01  2.000E+01  2.000E+04 -1.935E-01
   1   14    3     1     3    1.0663E+05 -6.5016E+02   1.0728E+05  0.000E+00  0.000E+00  0.000E+00  4.74574E+01  1.506E-01  2.000E+01  2.000E+04 -3.251E-02
   1   15    4     1     4    1.0728E+05 -6.2730E+02   1.0790E+05  0.000E+00  0.000E+00  0.000E+00  4.69807E+01  1.511E-01  2.000E+01  2.000E+04 -3.136E-02
   1   16    5     1     5    1.0790E+05 -2.3248E+03   1.1023E+05  0.000E+00  0.000E+00  0.000E+00  4.65047E+01  1.524E-01  2.000E+01  2.000E+04 -1.162E-01
   1   16    6     1     6    1.1023E+05 -1.4002E+03   1.1163E+05  0.000E+00  0.000E+00  0.000E+00  4.60289E+01  1.539E-01  2.000E+01  2.000E+04 -7.001E-02
   1   16    7     1     7    1.1163E+05 -1.3352E+03   1.1296E+05  0.000E+00  0.000E+00  0.000E+00  4.55528E+01  1.551E-01  2.000E+01  2.000E+04 -6.676E-02
   1   16    8     1     8    1.1296E+05 -1.2774E+03   1.1424E+05  0.000E+00  0.000E+00  0.000E+00  4.50766E+01  1.562E-01  2.000E+01  2.000E+04 -6.387E-02
   1   16    9     1     9    1.1424E+05 -1.1901E+03   1.1543E+05  0.000E+00  0.000E+00  0.000E+00  4.46004E+01  1.572E-01  2.000E+01  2.000E+04 -5.951E-02
   1   16   10     1    10    1.1543E+05 -1.0536E+03   1.1649E+05  0.000E+00  0.000E+00  0.000E+00  4.41240E+01  1.581E-01  2.000E+01  2.000E+04 -5.268E-02
   1   16   11     1    11    1.1649E+05 -8.4780E+02   1.1733E+05  0.000E+00  0.000E+00  0.000E+00  4.36475E+01  1.589E-01  2.000E+01  2.000E+04 -4.239E-02
   1   16   12     1    12    1.1733E+05 -8.8274E+02   1.1822E+05  0.000E+00  0.000E+00  0.000E+00  4.31709E+01  1.596E-01  2.000E+01  2.000E+04 -4.414E-02
   1   15   13     1    13    1.1822E+05 -9.6648E+02   1.1918E+05  0.000E+00  0.000E+00  0.000E+00  4.26944E+01  1.603E-01  2.000E+01  2.000E+04 -4.832E-02
   1   14   14     1    14    1.1918E+05 -1.5545E+03   1.2074E+05  0.000E+00  0.000E+00  0.000E+00  4.22182E+01  1.613E-01  2.000E+01  2.000E+04 -7.773E-02
   1   13   15     1    15    1.2074E+05 -2.3068E+03   1.2304E+05  0.000E+00  0.000E+00  0.000E+00  4.17424E+01  1.629E-01  2.000E+01  2.000E+04 -1.153E-01
   1   12   16     1    16    1.2304E+05 -3.7368E+03   1.2678E+05  0.000E+00  0.000E+00  0.000E+00  4.12676E+01  1.653E-01  2.000E+01  2.000E+04 -1.868E-01
   1   12   17     1    17    1.2678E+05 -2.1302E+03   1.2891E+05  0.000E+00  0.000E+00  0.000E+00  4.07926E+01  1.676E-01  2.000E+01  2.000E+04 -1.065E-01
   1   12   18     1    18    1.2891E+05 -1.9855E+03   1.3090E+05  0.000E+00  0.000E+00  0.000E+00  4.03170E+01  1.692E-01  2.000E+01  2.000E+04 -9.927E-02
   1   12   19     1    19    1.3090E+05 -2.8179E+03   1.3371E+05  0.000E+00  0.000E+00  0.000E+00  3.98416E+01  1.711E-01  2.000E+01  2.000E+04 -1.409E-01
   1   13   20     1    20    1.3371E+05 -1.4368E+03   1.3515E+05  0.000E+00  0.000E+00  0.000E+00  3.93659E+01  1.728E-01  2.000E+01  2.000E+04 -7.184E-02
   1   14   21     1    21    1.3515E+05 -8.3463E+02   1.3599E+05  0.000E+00  0.000E+00  0.000E+00  3.88895E+01  1.736E-01  2.000E+01  2.000E+04 -4.173E-02
   1   14   22     1    22    1.3599E+05  4.9619E+03   1.3102E+05  0.000E+00  0.000E+00  0.000E+00  3.84107E+01  1.720E-01  2.000E+01  2.000E+04  2.481E-01
   1    9   30     2     1    5.0000E+04 -2.5893E+02   5.0259E+04  0.000E+00  0.000E+00  0.000E+00  4.02410E+01  1.160E-01  2.000E+01  2.000E+04 -1.295E-02
   1    9   29     2     2    5.0259E+04 -6.3274E+02   5.0892E+04  0.000E+00  0.000E+00  0.000E+00  3.99917E+01  1.167E-01  2.000E+01  2.000E+04 -3.164E-02
   1    9   28     2     3    5.0892E+04 -1.0646E+03   5.1956E+04  0.000E+00  0.000E+00  0.000E+00  3.97428E+01  1.178E-01  2.000E+01  2.000E+04 -5.323E-02
   1    9   27     2     4    5.1956E+04 -2.8764E+03   5.4833E+04  0.000E+00  0.000E+00  0.000E+00  3.94955E+01  1.205E-01  2.000E+01  2.000E+04 -1.438E-01
   1   10   26     2     5    5.4833E+04 -1.5985E+03   5.6431E+04  0.000E+00  0.000E+00  0.000E+00  3.92485E+01  1.235E-01  2.000E+01  2.000E+04 -7.992E-02
   1   11   25     2     6    5.6431E+04 -1.4349E+03   5.7866E+04  0.000E+00  0.000E+00  0.000E+00  3.90005E+01  1.255E-01  2.000E+01  2.000E+04 -7.175E-02
   1   12   24     2     7    5.7866E+04 -1.7507E+03   5.9617E+04  0.000E+00  0.000E+00  0.000E+00  3.87526E+01  1.276E-01  2.000E+01  2.000E+04 -8.754E-02
   1   13   23     2     8    5.9617E+04 -2.7761E+02   5.9894E+04  0.000E+00  0.000E+00  0.000E+00  3.85039E+01  1.289E-01  2.000E+01  2.000E+04 -1.388E-02
   1   14   22     2     9    5.9894E+04  1.8074E+03   5.8087E+04  0.000E+00  0.000E+00  0.000E+00  3.82530E+01  1.280E-01  2.000E+01  2.000E+04  9.037E-02
   1   14   22     3     1    1.8911E+05 -8.5743E+03   1.9769E+05  0.000E+00  0.000E+00  0.000E+00  3.77339E+01  1.783E-01  2.000E+01  2.000E+04 -4.287E-01
   1   15   23     3     2    1.9769E+05 -4.2835E+02   1.9811E+05  0.000E+00  0.000E+00  0.000E+00  3.68475E+01  1.808E-01  2.000E+01  2.000E+04 -2.142E-02
   1   15   24     3     3    1.9811E+05 -2.6991E+02   1.9838E+05  0.000E+00  0.000E+00  0.000E+00  3.59588E+01  1.810E-01  2.000E+01  2.000E+04 -1.350E-02
   1   15   25     3     4    1.9838E+05 -2.5413E+02   1.9864E+05  0.000E+00  0.000E+00  0.000E+00  3.50700E+01  1.811E-01  2.000E+01  2.000E+04 -1.271E-02
   1   15   26     3     5    1.9864E+05 -1.0007E+02   1.9874E+05  0.000E+00  0.000E+00  0.000E+00  3.41812E+01  1.812E-01  2.000E+01  2.000E+04 -5.004E-03
   1   16   27     3     6    1.9874E+05  8.5659E+01   1.9865E+05  0.000E+00  0.000E+00  0.000E+00  3.32923E+01  1.812E-01  2.000E+01  2.000E+04  4.283E-03
   1   17   28     3     7    1.9865E+05  2.1991E+03   1.9645E+05  0.000E+00  0.000E+00  0.000E+00  3.24028E+01  1.806E-01  2.000E+01  2.000E+04  1.100E-01
   1   18   29     3     8    1.9645E+05  1.3010E+03   1.9515E+05  0.000E+00  0.000E+00  0.000E+00  3.15130E+01  1.796E-01  2.000E+01  2.000E+04  6.505E-02
   1   18   30     3     9    1.9515E+05 -1.0510E+03   1.9620E+05  0.000E+00  0.000E+00  0.000E+00  3.06240E+01  1.796E-01  2.000E+01  2.000E+04 -5.255E-02



1
              HEAD IN LAYER   1 AT END OF TIME STEP   1 IN STRESS PERIOD    3
  ---------------------------------------------------------------------------

          1      2      3      4      5      6      7      8      9     10
         11     12     13     14     15     16     17     18     19     20
         21     22     23     24     25     26     27     28     29     30
 .........................................................................
   1  ****** ****** ****** ****** ****** ****** ****** ****** ****** ******
      ****** ****** ****** ****** ****** ****** ****** ****** ****** ******
      ****** ****** ****** ****** ****** ****** ****** ****** ****** ******
   2  ****** ****** ****** ****** ****** ****** ****** ****** ****** ******
      ****** ****** ****** ****** ****** ****** ****** ****** ****** ******
      ****** ****** ****** ****** ****** ****** ****** ****** ****** ******
   3  ****** ****** ****** ****** ****** ****** ****** ****** ****** ******
      ****** ****** ****** ****** ****** ****** ****** ****** ****** ******
      ****** ****** ****** ****** ****** ****** ****** ****** ****** ******
   4  ****** ****** ****** ****** ****** ****** ****** ****** ****** ******
      ****** ****** ****** ****** ****** ****** ****** ****** ****** ******
      ****** ****** ****** ****** ****** ****** ****** ****** ****** ******
   5  ****** ****** ****** ****** ****** ****** ****** ****** ****** ******
      ****** ****** ****** ****** ****** ****** ****** ****** ****** ******
      ****** ****** ****** ****** ****** ****** ****** ****** ****** ******
   6  ****** ****** ****** ****** ****** ****** ****** ****** ****** ******
      ****** ****** ****** ****** ****** ****** ****** ****** ****** ******
      ****** ****** ****** ****** ****** ****** ****** ****** ****** ******
   7  ****** ****** ****** ****** ****** ****** ****** ****** ****** ******
      ****** ****** ****** ****** ****** ****** ****** ****** ****** ******
      ****** ****** ****** ****** ****** ****** ****** ****** ****** ******
   8  ****** ****** ****** ****** ****** ****** ****** ****** ****** ******
      ****** ****** ****** ****** ****** ****** ****** ****** ****** ******
      ****** ****** ****** ****** ****** ****** ****** ****** ****** ******
   9  ****** ****** ****** ****** ****** ****** ****** ****** ****** ******
      ****** ****** ****** ****** ****** ****** ****** ****** ****** ******
      ****** ****** ****** ****** ****** ****** ****** ****** ****** ******
  10  ****** ****** ****** ****** ****** ****** ****** ****** ****** ******
      ****** ****** ****** ****** ****** ****** ****** ****** ****** ******
      ****** ****** ****** ****** ****** ****** ****** ****** ****** ******
  11  ****** ****** ****** ****** ****** ****** ****** ****** ****** ******
      ****** ****** ****** ****** ****** ****** ****** ****** ****** ******
      ****** ****** ****** ****** ****** ****** ****** ****** ****** ******
  12  ****** ****** ****** ****** ****** ****** ****** ****** ****** ******
      ****** ****** ****** ****** ****** ****** ****** ****** ****** ******
      ****** ****** ****** ****** ****** ****** ****** ****** ****** ******
  13  ****** ****** ****** ****** ****** ****** ****** ****** ****** ******
      ****** ****** ****** ****** ****** ****** ****** ****** ****** ******
      ****** ****** ****** ****** ****** ****** ****** ****** ****** ******
  14  ****** ****** ****** ****** ****** ****** ****** ****** ****** ******
      ****** ****** ****** ****** ****** ****** ****** ****** ****** ******
      ****** ****** ****** ****** ****** ****** ****** ****** ****** ******
  15  ****** ****** ****** ****** ****** ****** ****** ****** ****** ******
      ****** ****** ****** ****** ****** ****** ****** ****** ****** ******
      ****** ****** ****** ****** ****** ****** ****** ****** ****** ******
  16  ****** ****** ****** ****** ****** ****** ****** ****** ****** ******
      ****** ****** ****** ****** ****** ****** ****** ****** ****** ******
      ****** ****** ****** ****** ****** ****** ****** ****** ****** ******
  17  ****** ****** ****** ****** ****** ****** ****** ****** ****** ******
      ****** ****** ****** ****** ****** ****** ****** ****** ****** ******
      ****** ****** ****** ****** ****** ****** ****** ****** ****** ******
  18  ****** ****** ****** ****** ****** ****** ****** ****** ****** ******
      ****** ****** ****** ****** ****** ****** ****** ****** ****** ******
      ****** ****** ****** ****** ****** ****** ****** ****** ****** ******
  19  ****** ****** ****** ****** ****** ****** ****** ****** ****** ******
      ****** ****** ****** ****** ****** ****** ****** ****** ****** ******
      ****** ****** ****** ****** ****** ****** ****** ****** ****** ******
  20  ****** ****** ****** ****** ****** ****** ****** ****** ****** ******
      ****** ****** ****** ****** ****** ****** ****** ****** ****** ******
      ****** ****** ****** ****** ****** ****** ****** ****** ****** ******
  21  ****** ****** ****** ****** ****** ****** ****** ****** ****** ******
      ****** ****** ****** ****** ****** ****** ****** ****** ****** ******
      ****** ****** ****** ****** ****** ****** ****** ****** ****** ******
  22  ****** ****** ****** ****** ****** ****** ****** ****** ****** ******
      ****** ****** ****** ****** ****** ****** ****** ****** ****** ******
      ****** ****** ****** ****** ****** ****** ****** ****** ****** ******
  23  ****** ****** ****** ****** ****** ****** ****** ****** ****** ******
      ****** ****** ****** ****** ****** ****** ****** ****** ****** ******
      ****** ****** ****** ****** ****** ****** ****** ****** ****** ******
  24  ****** ****** ****** ****** ****** ****** ****** ****** ****** ******
      ****** ****** ****** ****** ****** ****** ****** ****** ****** ******
      ****** ****** ****** ****** ****** ****** ****** ****** ****** ******
  25  ****** ****** ****** ****** ****** ****** ****** ****** ****** ******
      ****** ****** ****** ****** ****** ****** ****** ****** ****** ******
      ****** ****** ****** ****** ****** ****** ****** ****** ****** ******

 HEAD WILL BE SAVED ON UNIT   51 AT END OF TIME STEP    1, STRESS PERIOD    3
1
  VOLUMETRIC BUDGET FOR ENTIRE MODEL AT END OF TIME STEP    1, STRESS PERIOD   3
  ------------------------------------------------------------------------------

     CUMULATIVE VOLUMES      L**3       RATES FOR THIS TIME STEP      L**3/T
     ------------------                 ------------------------

           IN:                                      IN:
           ---                                      ---
             STORAGE =    27637779.1837               STORAGE =       54658.6097
       CONSTANT HEAD =     5018380.5095         CONSTANT HEAD =       25526.6743
               WELLS =           0.0000                 WELLS =           0.0000
            RECHARGE =     6292800.0000              RECHARGE =           0.0000
      STREAM LEAKAGE =     1908502.4619        STREAM LEAKAGE =       10355.0490

            TOTAL IN =    40857462.1550              TOTAL IN =       90540.3330

          OUT:                                     OUT:
          ----                                     ----
             STORAGE =           0.0000               STORAGE =           0.0000
       CONSTANT HEAD =           0.0000         CONSTANT HEAD =           0.0000
               WELLS =     9311202.4981                 WELLS =       33982.4909
            RECHARGE =           0.0000              RECHARGE =           0.0000
      STREAM LEAKAGE =    31546261.5459        STREAM LEAKAGE =       56557.8494

           TOTAL OUT =    40857464.0440             TOTAL OUT =       90540.3403

            IN - OUT =          -1.8890              IN - OUT =      -7.3348E-03

 PERCENT DISCREPANCY =          -0.00     PERCENT DISCREPANCY =          -0.00






         TIME SUMMARY AT END OF TIME STEP    1 IN STRESS PERIOD    3
                    SECONDS     MINUTES      HOURS       DAYS        YEARS
                    -----------------------------------------------------------
   TIME STEP LENGTH 7.86240E+06 1.31040E+05  2184.0      91.000     0.24914    
 STRESS PERIOD TIME 7.86240E+06 1.31040E+05  2184.0      91.000     0.24914    
         TOTAL TIME 2.36736E+07 3.94560E+05  6576.0      274.00     0.75017    
1
1
                            STRESS PERIOD NO.    4, LENGTH =   91.00000    
                            -----------------------------------------------

                              NUMBER OF TIME STEPS =     1

                               MULTIPLIER FOR DELT =     1.500

                            INITIAL TIME STEP SIZE =   91.00000    

 WELL NO.  LAYER   ROW   COL   STRESS RATE         
 --------------------------------------------------
      1      1     14      6       0.000    
      2      1      3      9       0.000    
      3      1     20     10       0.000    
      4      1     14     20       0.000    
      5      1     18     15      -8387.    
      6      1     17     18      -8258.    
      7      1     14     29      -8048.    
      8      1     19     28      -9288.    

      8 WELLS

                 RECHARGE =  1.000000E-03

 REUSING STREAM SEGMENT DATA FROM LAST STRESS PERIOD
 
 SOLVING FOR HEAD 


     6 CALLS TO PCG ROUTINE FOR TIME STEP   1 IN STRESS PERIOD    4
    23 TOTAL ITERATIONS

 OUTPUT CONTROL FOR STRESS PERIOD    4   TIME STEP    1
    SAVE BUDGET
    SAVE HEAD FOR ALL LAYERS
    PRINT HEAD FOR ALL LAYERS
 UBDSV2 SAVING "STREAMFLOW OUT  " ON UNIT  50 AT TIME STEP  1, STRESS PERIOD   4



 STREAM LISTING     PERIOD      4   STEP        1

 LAYER ROW COL. STREAM  RCH.  FLOW INTO     FLOW TO   FLOW OUT OF   OVRLND.     DIRECT     STREAM       STREAM     STREAM     STREAM   STREAMBED  STREAMBED
                SEG.NO.  NO.  STRM. RCH.    AQUIFER    STRM. RCH.    RUNOFF     PRECIP       ET          HEAD       DEPTH      WIDTH   CONDCTNC.   GRADIENT

   1   13    1     1     1    1.0000E+05 -2.5315E+03   1.0253E+05  0.000E+00  0.000E+00  0.000E+00  4.84071E+01  1.457E-01  2.000E+01  2.000E+04 -1.266E-01
   1   13    2     1     2    1.0253E+05 -3.6063E+03   1.0614E+05  0.000E+00  0.000E+00  0.000E+00  4.79325E+01  1.484E-01  2.000E+01  2.000E+04 -1.803E-01
   1   14    3     1     3    1.0614E+05 -6.2165E+02   1.0676E+05  0.000E+00  0.000E+00  0.000E+00  4.74570E+01  1.502E-01  2.000E+01  2.000E+04 -3.108E-02
   1   15    4     1     4    1.0676E+05 -5.8757E+02   1.0735E+05  0.000E+00  0.000E+00  0.000E+00  4.69802E+01  1.507E-01  2.000E+01  2.000E+04 -2.938E-02
   1   16    5     1     5    1.0735E+05 -2.0015E+03   1.0935E+05  0.000E+00  0.000E+00  0.000E+00  4.65041E+01  1.518E-01  2.000E+01  2.000E+04 -1.001E-01
   1   16    6     1     6    1.0935E+05 -1.2389E+03   1.1059E+05  0.000E+00  0.000E+00  0.000E+00  4.60281E+01  1.531E-01  2.000E+01  2.000E+04 -6.195E-02
   1   16    7     1     7    1.1059E+05 -1.1842E+03   1.1177E+05  0.000E+00  0.000E+00  0.000E+00  4.55519E+01  1.541E-01  2.000E+01  2.000E+04 -5.921E-02
   1   16    8     1     8    1.1177E+05 -1.1287E+03   1.1290E+05  0.000E+00  0.000E+00  0.000E+00  4.50756E+01  1.551E-01  2.000E+01  2.000E+04 -5.643E-02
   1   16    9     1     9    1.1290E+05 -1.0412E+03   1.1394E+05  0.000E+00  0.000E+00  0.000E+00  4.45992E+01  1.560E-01  2.000E+01  2.000E+04 -5.206E-02
   1   16   10     1    10    1.1394E+05 -9.0395E+02   1.1485E+05  0.000E+00  0.000E+00  0.000E+00  4.41227E+01  1.568E-01  2.000E+01  2.000E+04 -4.520E-02
   1   16   11     1    11    1.1485E+05 -6.9174E+02   1.1554E+05  0.000E+00  0.000E+00  0.000E+00  4.36461E+01  1.575E-01  2.000E+01  2.000E+04 -3.459E-02
   1   16   12     1    12    1.1554E+05 -5.5788E+02   1.1610E+05  0.000E+00  0.000E+00  0.000E+00  4.31693E+01  1.580E-01  2.000E+01  2.000E+04 -2.789E-02
   1   15   13     1    13    1.1610E+05 -6.8345E+02   1.1678E+05  0.000E+00  0.000E+00  0.000E+00  4.26926E+01  1.585E-01  2.000E+01  2.000E+04 -3.417E-02
   1   14   14     1    14    1.1678E+05 -1.2646E+03   1.1804E+05  0.000E+00  0.000E+00  0.000E+00  4.22161E+01  1.593E-01  2.000E+01  2.000E+04 -6.323E-02
   1   13   15     1    15    1.1804E+05 -2.0092E+03   1.2005E+05  0.000E+00  0.000E+00  0.000E+00  4.17401E+01  1.606E-01  2.000E+01  2.000E+04 -1.005E-01
   1   12   16     1    16    1.2005E+05 -3.3742E+03   1.2343E+05  0.000E+00  0.000E+00  0.000E+00  4.12650E+01  1.628E-01  2.000E+01  2.000E+04 -1.687E-01
   1   12   17     1    17    1.2343E+05 -1.9038E+03   1.2533E+05  0.000E+00  0.000E+00  0.000E+00  4.07899E+01  1.649E-01  2.000E+01  2.000E+04 -9.519E-02
   1   12   18     1    18    1.2533E+05 -1.7735E+03   1.2710E+05  0.000E+00  0.000E+00  0.000E+00  4.03141E+01  1.663E-01  2.000E+01  2.000E+04 -8.868E-02
   1   12   19     1    19    1.2710E+05 -2.5649E+03   1.2967E+05  0.000E+00  0.000E+00  0.000E+00  3.98385E+01  1.680E-01  2.000E+01  2.000E+04 -1.282E-01
   1   13   20     1    20    1.2967E+05 -1.2430E+03   1.3091E+05  0.000E+00  0.000E+00  0.000E+00  3.93627E+01  1.695E-01  2.000E+01  2.000E+04 -6.215E-02
   1   14   21     1    21    1.3091E+05 -5.4041E+02   1.3145E+05  0.000E+00  0.000E+00  0.000E+00  3.88861E+01  1.702E-01  2.000E+01  2.000E+04 -2.702E-02
   1   14   22     1    22    1.3145E+05  5.0070E+03   1.2645E+05  0.000E+00  0.000E+00  0.000E+00  3.84071E+01  1.685E-01  2.000E+01  2.000E+04  2.504E-01
   1    9   30     2     1    5.0000E+04 -1.7196E+02   5.0172E+04  0.000E+00  0.000E+00  0.000E+00  4.02410E+01  1.160E-01  2.000E+01  2.000E+04 -8.598E-03
   1    9   29     2     2    5.0172E+04 -5.3996E+02   5.0712E+04  0.000E+00  0.000E+00  0.000E+00  3.99915E+01  1.165E-01  2.000E+01  2.000E+04 -2.700E-02
   1    9   28     2     3    5.0712E+04 -9.5447E+02   5.1666E+04  0.000E+00  0.000E+00  0.000E+00  3.97425E+01  1.175E-01  2.000E+01  2.000E+04 -4.772E-02
   1    9   27     2     4    5.1666E+04 -2.6290E+03   5.4295E+04  0.000E+00  0.000E+00  0.000E+00  3.94950E+01  1.200E-01  2.000E+01  2.000E+04 -1.315E-01
   1   10   26     2     5    5.4295E+04 -1.4535E+03   5.5749E+04  0.000E+00  0.000E+00  0.000E+00  3.92477E+01  1.227E-01  2.000E+01  2.000E+04 -7.267E-02
   1   11   25     2     6    5.5749E+04 -1.3287E+03   5.7078E+04  0.000E+00  0.000E+00  0.000E+00  3.89996E+01  1.246E-01  2.000E+01  2.000E+04 -6.644E-02
   1   12   24     2     7    5.7078E+04 -1.6641E+03   5.8742E+04  0.000E+00  0.000E+00  0.000E+00  3.87515E+01  1.265E-01  2.000E+01  2.000E+04 -8.321E-02
   1   13   23     2     8    5.8742E+04 -3.0486E+02   5.9047E+04  0.000E+00  0.000E+00  0.000E+00  3.85028E+01  1.278E-01  2.000E+01  2.000E+04 -1.524E-02
   1   14   22     2     9    5.9047E+04  1.9001E+03   5.7146E+04  0.000E+00  0.000E+00  0.000E+00  3.82518E+01  1.268E-01  2.000E+01  2.000E+04  9.501E-02
   1   14   22     3     1    1.8359E+05 -8.5200E+03   1.9211E+05  0.000E+00  0.000E+00  0.000E+00  3.77308E+01  1.752E-01  2.000E+01  2.000E+04 -4.260E-01
   1   15   23     3     2    1.9211E+05 -3.8764E+02   1.9250E+05  0.000E+00  0.000E+00  0.000E+00  3.68444E+01  1.777E-01  2.000E+01  2.000E+04 -1.938E-02
   1   15   24     3     3    1.9250E+05 -2.6002E+02   1.9276E+05  0.000E+00  0.000E+00  0.000E+00  3.59557E+01  1.779E-01  2.000E+01  2.000E+04 -1.300E-02
   1   15   25     3     4    1.9276E+05 -2.4463E+02   1.9300E+05  0.000E+00  0.000E+00  0.000E+00  3.50669E+01  1.780E-01  2.000E+01  2.000E+04 -1.223E-02
   1   15   26     3     5    1.9300E+05 -9.9770E+01   1.9310E+05  0.000E+00  0.000E+00  0.000E+00  3.41781E+01  1.781E-01  2.000E+01  2.000E+04 -4.988E-03
   1   16   27     3     6    1.9310E+05  9.9143E+01   1.9300E+05  0.000E+00  0.000E+00  0.000E+00  3.32892E+01  1.781E-01  2.000E+01  2.000E+04  4.957E-03
   1   17   28     3     7    1.9300E+05  2.3180E+03   1.9069E+05  0.000E+00  0.000E+00  0.000E+00  3.23997E+01  1.774E-01  2.000E+01  2.000E+04  1.159E-01
   1   18   29     3     8    1.9069E+05  1.6102E+03   1.8908E+05  0.000E+00  0.000E+00  0.000E+00  3.15097E+01  1.764E-01  2.000E+01  2.000E+04  8.051E-02
   1   18   30     3     9    1.8908E+05 -8.8277E+02   1.8996E+05  0.000E+00  0.000E+00  0.000E+00  3.06206E+01  1.762E-01  2.000E+01  2.000E+04 -4.414E-02



1
              HEAD IN LAYER   1 AT END OF TIME STEP   1 IN STRESS PERIOD    4
  ---------------------------------------------------------------------------

          1      2      3      4      5      6      7      8      9     10
         11     12     13     14     15     16     17     18     19     20
         21     22     23     24     25     26     27     28     29     30
 .........................................................................
   1  ****** ****** ****** ****** ****** ****** ****** ****** ****** ******
      ****** ****** ****** ****** ****** ****** ****** ****** ****** ******
      ****** ****** ****** ****** ****** ****** ****** ****** ****** ******
   2  ****** ****** ****** ****** ****** ****** ****** ****** ****** ******
      ****** ****** ****** ****** ****** ****** ****** ****** ****** ******
      ****** ****** ****** ****** ****** ****** ****** ****** ****** ******
   3  ****** ****** ****** ****** ****** ****** ****** ****** ****** ******
      ****** ****** ****** ****** ****** ****** ****** ****** ****** ******
      ****** ****** ****** ****** ****** ****** ****** ****** ****** ******
   4  ****** ****** ****** ****** ****** ****** ****** ****** ****** ******
      ****** ****** ****** ****** ****** ****** ****** ****** ****** ******
      ****** ****** ****** ****** ****** ****** ****** ****** ****** ******
   5  ****** ****** ****** ****** ****** ****** ****** ****** ****** ******
      ****** ****** ****** ****** ****** ****** ****** ****** ****** ******
      ****** ****** ****** ****** ****** ****** ****** ****** ****** ******
   6  ****** ****** ****** ****** ****** ****** ****** ****** ****** ******
      ****** ****** ****** ****** ****** ****** ****** ****** ****** ******
      ****** ****** ****** ****** ****** ****** ****** ****** ****** ******
   7  ****** ****** ****** ****** ****** ****** ****** ****** ****** ******
      ****** ****** ****** ****** ****** ****** ****** ****** ****** ******
      ****** ****** ****** ****** ****** ****** ****** ****** ****** ******
   8  ****** ****** ****** ****** ****** ****** ****** ****** ****** ******
      ****** ****** ****** ****** ****** ****** ****** ****** ****** ******
      ****** ****** ****** ****** ****** ****** ****** ****** ****** ******
   9  ****** ****** ****** ****** ****** ****** ****** ****** ****** ******
      ****** ****** ****** ****** ****** ****** ****** ****** ****** ******
      ****** ****** ****** ****** ****** ****** ****** ****** ****** ******
  10  ****** ****** ****** ****** ****** ****** ****** ****** ****** ******
      ****** ****** ****** ****** ****** ****** ****** ****** ****** ******
      ****** ****** ****** ****** ****** ****** ****** ****** ****** ******
  11  ****** ****** ****** ****** ****** ****** ****** ****** ****** ******
      ****** ****** ****** ****** ****** ****** ****** ****** ****** ******
      ****** ****** ****** ****** ****** ****** ****** ****** ****** ******
  12  ****** ****** ****** ****** ****** ****** ****** ****** ****** ******
      ****** ****** ****** ****** ****** ****** ****** ****** ****** ******
      ****** ****** ****** ****** ****** ****** ****** ****** ****** ******
  13  ****** ****** ****** ****** ****** ****** ****** ****** ****** ******
      ****** ****** ****** ****** ****** ****** ****** ****** ****** ******
      ****** ****** ****** ****** ****** ****** ****** ****** ****** ******
  14  ****** ****** ****** ****** ****** ****** ****** ****** ****** ******
      ****** ****** ****** ****** ****** ****** ****** ****** ****** ******
      ****** ****** ****** ****** ****** ****** ****** ****** ****** ******
  15  ****** ****** ****** ****** ****** ****** ****** ****** ****** ******
      ****** ****** ****** ****** ****** ****** ****** ****** ****** ******
      ****** ****** ****** ****** ****** ****** ****** ****** ****** ******
  16  ****** ****** ****** ****** ****** ****** ****** ****** ****** ******
      ****** ****** ****** ****** ****** ****** ****** ****** ****** ******
      ****** ****** ****** ****** ****** ****** ****** ****** ****** ******
  17  ****** ****** ****** ****** ****** ****** ****** ****** ****** ******
      ****** ****** ****** ****** ****** ****** ****** ****** ****** ******
      ****** ****** ****** ****** ****** ****** ****** ****** ****** ******
  18  ****** ****** ****** ****** ****** ****** ****** ****** ****** ******
      ****** ****** ****** ****** ****** ****** ****** ****** ****** ******
      ****** ****** ****** ****** ****** ****** ****** ****** ****** ******
  19  ****** ****** ****** ****** ****** ****** ****** ****** ****** ******
      ****** ****** ****** ****** ****** ****** ****** ****** ****** ******
      ****** ****** ****** ****** ****** ****** ****** ****** ****** ******
  20  ****** ****** ****** ****** ****** ****** ****** ****** ****** ******
      ****** ****** ****** ****** ****** ****** ****** ****** ****** ******
      ****** ****** ****** ****** ****** ****** ****** ****** ****** ******
  21  ****** ****** ****** ****** ****** ****** ****** ****** ****** ******
      ****** ****** ****** ****** ****** ****** ****** ****** ****** ******
      ****** ****** ****** ****** ****** ****** ****** ****** ****** ******
  22  ****** ****** ****** ****** ****** ****** ****** ****** ****** ******
      ****** ****** ****** ****** ****** ****** ****** ****** ****** ******
      ****** ****** ****** ****** ****** ****** ****** ****** ****** ******
  23  ****** ****** ****** ****** ****** ****** ****** ****** ****** ******
      ****** ****** ****** ****** ****** ****** ****** ****** ****** ******
      ****** ****** ****** ****** ****** ****** ****** ****** ****** ******
  24  ****** ****** ****** ****** ****** ****** ****** ****** ****** ******
      ****** ****** ****** ****** ****** ****** ****** ****** ****** ******
      ****** ****** ****** ****** ****** ****** ****** ****** ****** ******
  25  ****** ****** ****** ****** ****** ****** ****** ****** ****** ******
      ****** ****** ****** ****** ****** ****** ****** ****** ****** ******
      ****** ****** ****** ****** ****** ****** ****** ****** ****** ******

 HEAD WILL BE SAVED ON UNIT   51 AT END OF TIME STEP    1, STRESS PERIOD    4
1
  VOLUMETRIC BUDGET FOR ENTIRE MODEL AT END OF TIME STEP    1, STRESS PERIOD   4
  ------------------------------------------------------------------------------

     CUMULATIVE VOLUMES      L**3       RATES FOR THIS TIME STEP      L**3/T
     ------------------                 ------------------------

           IN:                                      IN:
           ---                                      ---
             STORAGE =    29296347.4998               STORAGE =       18226.0255
       CONSTANT HEAD =     7577415.8797         CONSTANT HEAD =       28121.2678
               WELLS =           0.0000                 WELLS =           0.0000
            RECHARGE =     8804400.0000              RECHARGE =       27600.0000
      STREAM LEAKAGE =     2903540.7701        STREAM LEAKAGE =       10934.4869

            TOTAL IN =    48581704.1495              TOTAL IN =       84881.7802

          OUT:                                     OUT:
          ----                                     ----
             STORAGE =         533.3835               STORAGE =           5.8614
       CONSTANT HEAD =           0.0000         CONSTANT HEAD =           0.0000
               WELLS =    12403609.1671                 WELLS =       33982.4909
            RECHARGE =           0.0000              RECHARGE =           0.0000
      STREAM LEAKAGE =    36177563.5584        STREAM LEAKAGE =       50893.4287

           TOTAL OUT =    48581706.1090             TOTAL OUT =       84881.7809

            IN - OUT =          -1.9595              IN - OUT =      -7.7440E-04

 PERCENT DISCREPANCY =          -0.00     PERCENT DISCREPANCY =          -0.00






         TIME SUMMARY AT END OF TIME STEP    1 IN STRESS PERIOD    4
                    SECONDS     MINUTES      HOURS       DAYS        YEARS
                    -----------------------------------------------------------
   TIME STEP LENGTH 7.86240E+06 1.31040E+05  2184.0      91.000     0.24914    
 STRESS PERIOD TIME 7.86240E+06 1.31040E+05  2184.0      91.000     0.24914    
         TOTAL TIME 3.15360E+07 5.25600E+05  8760.0      365.00     0.99932    
1
1
                            STRESS PERIOD NO.    5, LENGTH =   92.00000    
                            -----------------------------------------------

                              NUMBER OF TIME STEPS =     1

                               MULTIPLIER FOR DELT =     1.500

                            INITIAL TIME STEP SIZE =   92.00000    

 WELL NO.  LAYER   ROW   COL   STRESS RATE         
 --------------------------------------------------
      1      1     14      6       0.000    
      2      1      3      9       0.000    
      3      1     20     10       0.000    
      4      1     14     20       0.000    
      5      1     18     15      -8387.    
      6      1     17     18      -8258.    
      7      1     14     29      -8048.    
      8      1     19     28      -9288.    

      8 WELLS

                 RECHARGE =  5.000000E-04

 REUSING STREAM SEGMENT DATA FROM LAST STRESS PERIOD
 
 SOLVING FOR HEAD 


     7 CALLS TO PCG ROUTINE FOR TIME STEP   1 IN STRESS PERIOD    5
    26 TOTAL ITERATIONS

 OUTPUT CONTROL FOR STRESS PERIOD    5   TIME STEP    1
    SAVE BUDGET
    SAVE HEAD FOR ALL LAYERS
    PRINT HEAD FOR ALL LAYERS
 UBDSV2 SAVING "STREAMFLOW OUT  " ON UNIT  50 AT TIME STEP  1, STRESS PERIOD   5



 STREAM LISTING     PERIOD      5   STEP        1

 LAYER ROW COL. STREAM  RCH.  FLOW INTO     FLOW TO   FLOW OUT OF   OVRLND.     DIRECT     STREAM       STREAM     STREAM     STREAM   STREAMBED  STREAMBED
                SEG.NO.  NO.  STRM. RCH.    AQUIFER    STRM. RCH.    RUNOFF     PRECIP       ET          HEAD       DEPTH      WIDTH   CONDCTNC.   GRADIENT

   1   13    1     1     1    1.0000E+05 -2.1258E+03   1.0213E+05  0.000E+00  0.000E+00  0.000E+00  4.84069E+01  1.456E-01  2.000E+01  2.000E+04 -1.063E-01
   1   13    2     1     2    1.0213E+05 -3.1484E+03   1.0527E+05  0.000E+00  0.000E+00  0.000E+00  4.79319E+01  1.478E-01  2.000E+01  2.000E+04 -1.574E-01
   1   14    3     1     3    1.0527E+05 -5.0003E+02   1.0577E+05  0.000E+00  0.000E+00  0.000E+00  4.74562E+01  1.494E-01  2.000E+01  2.000E+04 -2.500E-02
   1   15    4     1     4    1.0577E+05 -4.5845E+02   1.0623E+05  0.000E+00  0.000E+00  0.000E+00  4.69793E+01  1.498E-01  2.000E+01  2.000E+04 -2.292E-02
   1   16    5     1     5    1.0623E+05 -1.5584E+03   1.0779E+05  0.000E+00  0.000E+00  0.000E+00  4.65029E+01  1.507E-01  2.000E+01  2.000E+04 -7.792E-02
   1   16    6     1     6    1.0779E+05 -9.8016E+02   1.0877E+05  0.000E+00  0.000E+00  0.000E+00  4.60267E+01  1.517E-01  2.000E+01  2.000E+04 -4.901E-02
   1   16    7     1     7    1.0877E+05 -9.3569E+02   1.0971E+05  0.000E+00  0.000E+00  0.000E+00  4.55503E+01  1.525E-01  2.000E+01  2.000E+04 -4.678E-02
   1   16    8     1     8    1.0971E+05 -8.8292E+02   1.1059E+05  0.000E+00  0.000E+00  0.000E+00  4.50737E+01  1.533E-01  2.000E+01  2.000E+04 -4.415E-02
   1   16    9     1     9    1.1059E+05 -7.9705E+02   1.1139E+05  0.000E+00  0.000E+00  0.000E+00  4.45972E+01  1.540E-01  2.000E+01  2.000E+04 -3.985E-02
   1   16   10     1    10    1.1139E+05 -6.6132E+02   1.1205E+05  0.000E+00  0.000E+00  0.000E+00  4.41205E+01  1.546E-01  2.000E+01  2.000E+04 -3.307E-02
   1   16   11     1    11    1.1205E+05 -4.4556E+02   1.1249E+05  0.000E+00  0.000E+00  0.000E+00  4.36437E+01  1.551E-01  2.000E+01  2.000E+04 -2.228E-02
   1   16   12     1    12    1.1249E+05 -1.1509E+02   1.1261E+05  0.000E+00  0.000E+00  0.000E+00  4.31667E+01  1.553E-01  2.000E+01  2.000E+04 -5.754E-03
   1   15   13     1    13    1.1261E+05 -2.3141E+02   1.1284E+05  0.000E+00  0.000E+00  0.000E+00  4.26895E+01  1.554E-01  2.000E+01  2.000E+04 -1.157E-02
   1   14   14     1    14    1.1284E+05 -7.9334E+02   1.1363E+05  0.000E+00  0.000E+00  0.000E+00  4.22127E+01  1.559E-01  2.000E+01  2.000E+04 -3.967E-02
   1   13   15     1    15    1.1363E+05 -1.5297E+03   1.1516E+05  0.000E+00  0.000E+00  0.000E+00  4.17364E+01  1.568E-01  2.000E+01  2.000E+04 -7.648E-02
   1   12   16     1    16    1.1516E+05 -2.8651E+03   1.1803E+05  0.000E+00  0.000E+00  0.000E+00  4.12609E+01  1.586E-01  2.000E+01  2.000E+04 -1.433E-01
   1   12   17     1    17    1.1803E+05 -1.5555E+03   1.1958E+05  0.000E+00  0.000E+00  0.000E+00  4.07854E+01  1.604E-01  2.000E+01  2.000E+04 -7.777E-02
   1   12   18     1    18    1.1958E+05 -1.4407E+03   1.2102E+05  0.000E+00  0.000E+00  0.000E+00  4.03093E+01  1.616E-01  2.000E+01  2.000E+04 -7.204E-02
   1   12   19     1    19    1.2102E+05 -2.1665E+03   1.2319E+05  0.000E+00  0.000E+00  0.000E+00  3.98335E+01  1.631E-01  2.000E+01  2.000E+04 -1.083E-01
   1   13   20     1    20    1.2319E+05 -8.7704E+02   1.2407E+05  0.000E+00  0.000E+00  0.000E+00  3.93575E+01  1.643E-01  2.000E+01  2.000E+04 -4.385E-02
   1   14   21     1    21    1.2407E+05 -1.2894E+02   1.2420E+05  0.000E+00  0.000E+00  0.000E+00  3.88806E+01  1.647E-01  2.000E+01  2.000E+04 -6.447E-03
   1   14   22     1    22    1.2420E+05  5.0911E+03   1.1911E+05  0.000E+00  0.000E+00  0.000E+00  3.84013E+01  1.627E-01  2.000E+01  2.000E+04  2.546E-01
   1    9   30     2     1    5.0000E+04  5.5117E+01   4.9945E+04  0.000E+00  0.000E+00  0.000E+00  4.02408E+01  1.158E-01  2.000E+01  2.000E+04  2.756E-03
   1    9   29     2     2    4.9945E+04 -3.0984E+02   5.0255E+04  0.000E+00  0.000E+00  0.000E+00  3.99910E+01  1.160E-01  2.000E+01  2.000E+04 -1.549E-02
   1    9   28     2     3    5.0255E+04 -7.1378E+02   5.0969E+04  0.000E+00  0.000E+00  0.000E+00  3.97417E+01  1.167E-01  2.000E+01  2.000E+04 -3.569E-02
   1    9   27     2     4    5.0969E+04 -2.2539E+03   5.3222E+04  0.000E+00  0.000E+00  0.000E+00  3.94938E+01  1.188E-01  2.000E+01  2.000E+04 -1.127E-01
   1   10   26     2     5    5.3222E+04 -1.1237E+03   5.4346E+04  0.000E+00  0.000E+00  0.000E+00  3.92461E+01  1.211E-01  2.000E+01  2.000E+04 -5.619E-02
   1   11   25     2     6    5.4346E+04 -1.0257E+03   5.5372E+04  0.000E+00  0.000E+00  0.000E+00  3.89975E+01  1.225E-01  2.000E+01  2.000E+04 -5.128E-02
   1   12   24     2     7    5.5372E+04 -1.3881E+03   5.6760E+04  0.000E+00  0.000E+00  0.000E+00  3.87491E+01  1.241E-01  2.000E+01  2.000E+04 -6.940E-02
   1   13   23     2     8    5.6760E+04 -2.3756E+02   5.6997E+04  0.000E+00  0.000E+00  0.000E+00  3.85002E+01  1.252E-01  2.000E+01  2.000E+04 -1.188E-02
   1   14   22     2     9    5.6997E+04  2.0440E+03   5.4953E+04  0.000E+00  0.000E+00  0.000E+00  3.82490E+01  1.240E-01  2.000E+01  2.000E+04  1.022E-01
   1   14   22     3     1    1.7406E+05 -8.4285E+03   1.8249E+05  0.000E+00  0.000E+00  0.000E+00  3.77254E+01  1.698E-01  2.000E+01  2.000E+04 -4.214E-01
   1   15   23     3     2    1.8249E+05 -2.7950E+02   1.8277E+05  0.000E+00  0.000E+00  0.000E+00  3.68389E+01  1.723E-01  2.000E+01  2.000E+04 -1.398E-02
   1   15   24     3     3    1.8277E+05 -1.8241E+02   1.8295E+05  0.000E+00  0.000E+00  0.000E+00  3.59502E+01  1.724E-01  2.000E+01  2.000E+04 -9.121E-03
   1   15   25     3     4    1.8295E+05 -1.6811E+02   1.8312E+05  0.000E+00  0.000E+00  0.000E+00  3.50614E+01  1.725E-01  2.000E+01  2.000E+04 -8.406E-03
   1   15   26     3     5    1.8312E+05 -2.3346E+01   1.8314E+05  0.000E+00  0.000E+00  0.000E+00  3.41726E+01  1.726E-01  2.000E+01  2.000E+04 -1.167E-03
   1   16   27     3     6    1.8314E+05  1.9662E+02   1.8294E+05  0.000E+00  0.000E+00  0.000E+00  3.32836E+01  1.725E-01  2.000E+01  2.000E+04  9.831E-03
   1   17   28     3     7    1.8294E+05  2.6121E+03   1.8033E+05  0.000E+00  0.000E+00  0.000E+00  3.23939E+01  1.717E-01  2.000E+01  2.000E+04  1.306E-01
   1   18   29     3     8    1.8033E+05  2.0343E+03   1.7830E+05  0.000E+00  0.000E+00  0.000E+00  3.15037E+01  1.704E-01  2.000E+01  2.000E+04  1.017E-01
   1   18   30     3     9    1.7830E+05 -5.9376E+02   1.7889E+05  0.000E+00  0.000E+00  0.000E+00  3.06144E+01  1.700E-01  2.000E+01  2.000E+04 -2.969E-02



1
              HEAD IN LAYER   1 AT END OF TIME STEP   1 IN STRESS PERIOD    5
  ---------------------------------------------------------------------------

          1      2      3      4      5      6      7      8      9     10
         11     12     13     14     15     16     17     18     19     20
         21     22     23     24     25     26     27     28     29     30
 .........................................................................
   1  ****** ****** ****** ****** ****** ****** ****** ****** ****** ******
      ****** ****** ****** ****** ****** ****** ****** ****** ****** ******
      ****** ****** ****** ****** ****** ****** ****** ****** ****** ******
   2  ****** ****** ****** ****** ****** ****** ****** ****** ****** ******
      ****** ****** ****** ****** ****** ****** ****** ****** ****** ******
      ****** ****** ****** ****** ****** ****** ****** ****** ****** ******
   3  ****** ****** ****** ****** ****** ****** ****** ****** ****** ******
      ****** ****** ****** ****** ****** ****** ****** ****** ****** ******
      ****** ****** ****** ****** ****** ****** ****** ****** ****** ******
   4  ****** ****** ****** ****** ****** ****** ****** ****** ****** ******
      ****** ****** ****** ****** ****** ****** ****** ****** ****** ******
      ****** ****** ****** ****** ****** ****** ****** ****** ****** ******
   5  ****** ****** ****** ****** ****** ****** ****** ****** ****** ******
      ****** ****** ****** ****** ****** ****** ****** ****** ****** ******
      ****** ****** ****** ****** ****** ****** ****** ****** ****** ******
   6  ****** ****** ****** ****** ****** ****** ****** ****** ****** ******
      ****** ****** ****** ****** ****** ****** ****** ****** ****** ******
      ****** ****** ****** ****** ****** ****** ****** ****** ****** ******
   7  ****** ****** ****** ****** ****** ****** ****** ****** ****** ******
      ****** ****** ****** ****** ****** ****** ****** ****** ****** ******
      ****** ****** ****** ****** ****** ****** ****** ****** ****** ******
   8  ****** ****** ****** ****** ****** ****** ****** ****** ****** ******
      ****** ****** ****** ****** ****** ****** ****** ****** ****** ******
      ****** ****** ****** ****** ****** ****** ****** ****** ****** ******
   9  ****** ****** ****** ****** ****** ****** ****** ****** ****** ******
      ****** ****** ****** ****** ****** ****** ****** ****** ****** ******
      ****** ****** ****** ****** ****** ****** ****** ****** ****** ******
  10  ****** ****** ****** ****** ****** ****** ****** ****** ****** ******
      ****** ****** ****** ****** ****** ****** ****** ****** ****** ******
      ****** ****** ****** ****** ****** ****** ****** ****** ****** ******
  11  ****** ****** ****** ****** ****** ****** ****** ****** ****** ******
      ****** ****** ****** ****** ****** ****** ****** ****** ****** ******
      ****** ****** ****** ****** ****** ****** ****** ****** ****** ******
  12  ****** ****** ****** ****** ****** ****** ****** ****** ****** ******
      ****** ****** ****** ****** ****** ****** ****** ****** ****** ******
      ****** ****** ****** ****** ****** ****** ****** ****** ****** ******
  13  ****** ****** ****** ****** ****** ****** ****** ****** ****** ******
      ****** ****** ****** ****** ****** ****** ****** ****** ****** ******
      ****** ****** ****** ****** ****** ****** ****** ****** ****** ******
  14  ****** ****** ****** ****** ****** ****** ****** ****** ****** ******
      ****** ****** ****** ****** ****** ****** ****** ****** ****** ******
      ****** ****** ****** ****** ****** ****** ****** ****** ****** ******
  15  ****** ****** ****** ****** ****** ****** ****** ****** ****** ******
      ****** ****** ****** ****** ****** ****** ****** ****** ****** ******
      ****** ****** ****** ****** ****** ****** ****** ****** ****** ******
  16  ****** ****** ****** ****** ****** ****** ****** ****** ****** ******
      ****** ****** ****** ****** ****** ****** ****** ****** ****** ******
      ****** ****** ****** ****** ****** ****** ****** ****** ****** ******
  17  ****** ****** ****** ****** ****** ****** ****** ****** ****** ******
      ****** ****** ****** ****** ****** ****** ****** ****** ****** ******
      ****** ****** ****** ****** ****** ****** ****** ****** ****** ******
  18  ****** ****** ****** ****** ****** ****** ****** ****** ****** ******
      ****** ****** ****** ****** ****** ****** ****** ****** ****** ******
      ****** ****** ****** ****** ****** ****** ****** ****** ****** ******
  19  ****** ****** ****** ****** ****** ****** ****** ****** ****** ******
      ****** ****** ****** ****** ****** ****** ****** ****** ****** ******
      ****** ****** ****** ****** ****** ****** ****** ****** ****** ******
  20  ****** ****** ****** ****** ****** ****** ****** ****** ****** ******
      ****** ****** ****** ****** ****** ****** ****** ****** ****** ******
      ****** ****** ****** ****** ****** ****** ****** ****** ****** ******
  21  ****** ****** ****** ****** ****** ****** ****** ****** ****** ******
      ****** ****** ****** ****** ****** ****** ****** ****** ****** ******
      ****** ****** ****** ****** ****** ****** ****** ****** ****** ******
  22  ****** ****** ****** ****** ****** ****** ****** ****** ****** ******
      ****** ****** ****** ****** ****** ****** ****** ****** ****** ******
      ****** ****** ****** ****** ****** ****** ****** ****** ****** ******
  23  ****** ****** ****** ****** ****** ****** ****** ****** ****** ******
      ****** ****** ****** ****** ****** ****** ****** ****** ****** ******
      ****** ****** ****** ****** ****** ****** ****** ****** ****** ******
  24  ****** ****** ****** ****** ****** ****** ****** ****** ****** ******
      ****** ****** ****** ****** ****** ****** ****** ****** ****** ******
      ****** ****** ****** ****** ****** ****** ****** ****** ****** ******
  25  ****** ****** ****** ****** ****** ****** ****** ****** ****** ******
      ****** ****** ****** ****** ****** ****** ****** ****** ****** ******
      ****** ****** ****** ****** ****** ****** ****** ****** ****** ******

 HEAD WILL BE SAVED ON UNIT   51 AT END OF TIME STEP    1, STRESS PERIOD    5
1
  VOLUMETRIC BUDGET FOR ENTIRE MODEL AT END OF TIME STEP    1, STRESS PERIOD   5
  ------------------------------------------------------------------------------

     CUMULATIVE VOLUMES      L**3       RATES FOR THIS TIME STEP      L**3/T
     ------------------                 ------------------------

           IN:                                      IN:
           ---                                      ---
             STORAGE =    30956177.8818               STORAGE =       18041.6346
       CONSTANT HEAD =    10432444.3568         CONSTANT HEAD =       31032.9182
               WELLS =           0.0000                 WELLS =           0.0000
            RECHARGE =    10074000.0000              RECHARGE =       13800.0000
      STREAM LEAKAGE =     4010593.5168        STREAM LEAKAGE =       12033.1820

            TOTAL IN =    55473215.7554              TOTAL IN =       74907.7348

          OUT:                                     OUT:
          ----                                     ----
             STORAGE =         533.3835               STORAGE =           0.0000
       CONSTANT HEAD =           0.0000         CONSTANT HEAD =           0.0000
               WELLS =    15529998.3271                 WELLS =       33982.4909
            RECHARGE =           0.0000              RECHARGE =           0.0000
      STREAM LEAKAGE =    39942686.2831        STREAM LEAKAGE =       40925.2470

           TOTAL OUT =    55473217.9937             TOTAL OUT =       74907.7379

            IN - OUT =          -2.2383              IN - OUT =      -3.0304E-03

 PERCENT DISCREPANCY =          -0.00     PERCENT DISCREPANCY =          -0.00






         TIME SUMMARY AT END OF TIME STEP    1 IN STRESS PERIOD    5
                    SECONDS     MINUTES      HOURS       DAYS        YEARS
                    -----------------------------------------------------------
   TIME STEP LENGTH 7.94880E+06 1.32480E+05  2208.0      92.000     0.25188    
 STRESS PERIOD TIME 7.94880E+06 1.32480E+05  2208.0      92.000     0.25188    
         TOTAL TIME 3.94848E+07 6.58080E+05  10968.      457.00      1.2512    
1
1
                            STRESS PERIOD NO.    6, LENGTH =   91.00000    
                            -----------------------------------------------

                              NUMBER OF TIME STEPS =     1

                               MULTIPLIER FOR DELT =     1.500

                            INITIAL TIME STEP SIZE =   91.00000    

 WELL NO.  LAYER   ROW   COL   STRESS RATE         
 --------------------------------------------------
      1      1     14      6       0.000    
      2      1      3      9       0.000    
      3      1     20     10       0.000    
      4      1     14     20       0.000    
      5      1     18     15      -8387.    
      6      1     17     18      -8258.    
      7      1     14     29      -8048.    
      8      1     19     28      -9288.    

      8 WELLS

                 RECHARGE =  2.000000E-03

 REUSING STREAM SEGMENT DATA FROM LAST STRESS PERIOD
 
 SOLVING FOR HEAD 


     7 CALLS TO PCG ROUTINE FOR TIME STEP   1 IN STRESS PERIOD    6
    26 TOTAL ITERATIONS

 OUTPUT CONTROL FOR STRESS PERIOD    6   TIME STEP    1
    SAVE BUDGET
    SAVE HEAD FOR ALL LAYERS
    PRINT HEAD FOR ALL LAYERS
 UBDSV2 SAVING "STREAMFLOW OUT  " ON UNIT  50 AT TIME STEP  1, STRESS PERIOD   6



 STREAM LISTING     PERIOD      6   STEP        1

 LAYER ROW COL. STREAM  RCH.  FLOW INTO     FLOW TO   FLOW OUT OF   OVRLND.     DIRECT     STREAM       STREAM     STREAM     STREAM   STREAMBED  STREAMBED
                SEG.NO.  NO.  STRM. RCH.    AQUIFER    STRM. RCH.    RUNOFF     PRECIP       ET          HEAD       DEPTH      WIDTH   CONDCTNC.   GRADIENT

   1   13    1     1     1    1.0000E+05 -2.4493E+03   1.0245E+05  0.000E+00  0.000E+00  0.000E+00  4.84071E+01  1.457E-01  2.000E+01  2.000E+04 -1.225E-01
   1   13    2     1     2    1.0245E+05 -3.5034E+03   1.0595E+05  0.000E+00  0.000E+00  0.000E+00  4.79324E+01  1.483E-01  2.000E+01  2.000E+04 -1.752E-01
   1   14    3     1     3    1.0595E+05 -6.5583E+02   1.0661E+05  0.000E+00  0.000E+00  0.000E+00  4.74569E+01  1.500E-01  2.000E+01  2.000E+04 -3.279E-02
   1   15    4     1     4    1.0661E+05 -6.2503E+02   1.0723E+05  0.000E+00  0.000E+00  0.000E+00  4.69801E+01  1.506E-01  2.000E+01  2.000E+04 -3.125E-02
   1   16    5     1     5    1.0723E+05 -2.0483E+03   1.0928E+05  0.000E+00  0.000E+00  0.000E+00  4.65040E+01  1.517E-01  2.000E+01  2.000E+04 -1.024E-01
   1   16    6     1     6    1.0928E+05 -1.2682E+03   1.1055E+05  0.000E+00  0.000E+00  0.000E+00  4.60281E+01  1.531E-01  2.000E+01  2.000E+04 -6.341E-02
   1   16    7     1     7    1.1055E+05 -1.2085E+03   1.1176E+05  0.000E+00  0.000E+00  0.000E+00  4.55519E+01  1.541E-01  2.000E+01  2.000E+04 -6.043E-02
   1   16    8     1     8    1.1176E+05 -1.1508E+03   1.1291E+05  0.000E+00  0.000E+00  0.000E+00  4.50756E+01  1.551E-01  2.000E+01  2.000E+04 -5.754E-02
   1   16    9     1     9    1.1291E+05 -1.0638E+03   1.1397E+05  0.000E+00  0.000E+00  0.000E+00  4.45992E+01  1.560E-01  2.000E+01  2.000E+04 -5.319E-02
   1   16   10     1    10    1.1397E+05 -9.2867E+02   1.1490E+05  0.000E+00  0.000E+00  0.000E+00  4.41228E+01  1.568E-01  2.000E+01  2.000E+04 -4.643E-02
   1   16   11     1    11    1.1490E+05 -7.1455E+02   1.1562E+05  0.000E+00  0.000E+00  0.000E+00  4.36462E+01  1.575E-01  2.000E+01  2.000E+04 -3.573E-02
   1   16   12     1    12    1.1562E+05 -5.4750E+02   1.1616E+05  0.000E+00  0.000E+00  0.000E+00  4.31694E+01  1.580E-01  2.000E+01  2.000E+04 -2.738E-02
   1   15   13     1    13    1.1616E+05 -6.8106E+02   1.1684E+05  0.000E+00  0.000E+00  0.000E+00  4.26926E+01  1.585E-01  2.000E+01  2.000E+04 -3.405E-02
   1   14   14     1    14    1.1684E+05 -1.2429E+03   1.1809E+05  0.000E+00  0.000E+00  0.000E+00  4.22161E+01  1.593E-01  2.000E+01  2.000E+04 -6.214E-02
   1   13   15     1    15    1.1809E+05 -1.9648E+03   1.2005E+05  0.000E+00  0.000E+00  0.000E+00  4.17402E+01  1.606E-01  2.000E+01  2.000E+04 -9.824E-02
   1   12   16     1    16    1.2005E+05 -3.2632E+03   1.2332E+05  0.000E+00  0.000E+00  0.000E+00  4.12650E+01  1.627E-01  2.000E+01  2.000E+04 -1.632E-01
   1   12   17     1    17    1.2332E+05 -1.8742E+03   1.2519E+05  0.000E+00  0.000E+00  0.000E+00  4.07898E+01  1.648E-01  2.000E+01  2.000E+04 -9.371E-02
   1   12   18     1    18    1.2519E+05 -1.7621E+03   1.2695E+05  0.000E+00  0.000E+00  0.000E+00  4.03140E+01  1.662E-01  2.000E+01  2.000E+04 -8.810E-02
   1   12   19     1    19    1.2695E+05 -2.5681E+03   1.2952E+05  0.000E+00  0.000E+00  0.000E+00  3.98384E+01  1.679E-01  2.000E+01  2.000E+04 -1.284E-01
   1   13   20     1    20    1.2952E+05 -1.2947E+03   1.3081E+05  0.000E+00  0.000E+00  0.000E+00  3.93626E+01  1.694E-01  2.000E+01  2.000E+04 -6.473E-02
   1   14   21     1    21    1.3081E+05 -5.2449E+02   1.3134E+05  0.000E+00  0.000E+00  0.000E+00  3.88861E+01  1.702E-01  2.000E+01  2.000E+04 -2.622E-02
   1   14   22     1    22    1.3134E+05  4.9872E+03   1.2635E+05  0.000E+00  0.000E+00  0.000E+00  3.84070E+01  1.684E-01  2.000E+01  2.000E+04  2.494E-01
   1    9   30     2     1    5.0000E+04 -3.1199E+02   5.0312E+04  0.000E+00  0.000E+00  0.000E+00  4.02411E+01  1.161E-01  2.000E+01  2.000E+04 -1.560E-02
   1    9   29     2     2    5.0312E+04 -6.7284E+02   5.0985E+04  0.000E+00  0.000E+00  0.000E+00  3.99918E+01  1.168E-01  2.000E+01  2.000E+04 -3.364E-02
   1    9   28     2     3    5.0985E+04 -1.0707E+03   5.2056E+04  0.000E+00  0.000E+00  0.000E+00  3.97430E+01  1.180E-01  2.000E+01  2.000E+04 -5.354E-02
   1    9   27     2     4    5.2056E+04 -2.7086E+03   5.4764E+04  0.000E+00  0.000E+00  0.000E+00  3.94955E+01  1.205E-01  2.000E+01  2.000E+04 -1.354E-01
   1   10   26     2     5    5.4764E+04 -1.6005E+03   5.6365E+04  0.000E+00  0.000E+00  0.000E+00  3.92484E+01  1.234E-01  2.000E+01  2.000E+04 -8.002E-02
   1   11   25     2     6    5.6365E+04 -1.4871E+03   5.7852E+04  0.000E+00  0.000E+00  0.000E+00  3.90005E+01  1.255E-01  2.000E+01  2.000E+04 -7.435E-02
   1   12   24     2     7    5.7852E+04 -1.8044E+03   5.9656E+04  0.000E+00  0.000E+00  0.000E+00  3.87526E+01  1.276E-01  2.000E+01  2.000E+04 -9.022E-02
   1   13   23     2     8    5.9656E+04 -3.7635E+02   6.0032E+04  0.000E+00  0.000E+00  0.000E+00  3.85041E+01  1.291E-01  2.000E+01  2.000E+04 -1.882E-02
   1   14   22     2     9    6.0032E+04  1.9076E+03   5.8125E+04  0.000E+00  0.000E+00  0.000E+00  3.82531E+01  1.281E-01  2.000E+01  2.000E+04  9.538E-02
   1   14   22     3     1    1.8448E+05 -8.5282E+03   1.9301E+05  0.000E+00  0.000E+00  0.000E+00  3.77313E+01  1.757E-01  2.000E+01  2.000E+04 -4.264E-01
   1   15   23     3     2    1.9301E+05 -4.1210E+02   1.9342E+05  0.000E+00  0.000E+00  0.000E+00  3.68449E+01  1.782E-01  2.000E+01  2.000E+04 -2.061E-02
   1   15   24     3     3    1.9342E+05 -3.0165E+02   1.9372E+05  0.000E+00  0.000E+00  0.000E+00  3.59562E+01  1.784E-01  2.000E+01  2.000E+04 -1.508E-02
   1   15   25     3     4    1.9372E+05 -2.9208E+02   1.9401E+05  0.000E+00  0.000E+00  0.000E+00  3.50675E+01  1.786E-01  2.000E+01  2.000E+04 -1.460E-02
   1   15   26     3     5    1.9401E+05 -1.7294E+02   1.9418E+05  0.000E+00  0.000E+00  0.000E+00  3.41787E+01  1.787E-01  2.000E+01  2.000E+04 -8.647E-03
   1   16   27     3     6    1.9418E+05  3.0971E+01   1.9415E+05  0.000E+00  0.000E+00  0.000E+00  3.32898E+01  1.787E-01  2.000E+01  2.000E+04  1.549E-03
   1   17   28     3     7    1.9415E+05  2.1603E+03   1.9199E+05  0.000E+00  0.000E+00  0.000E+00  3.24004E+01  1.781E-01  2.000E+01  2.000E+04  1.080E-01
   1   18   29     3     8    1.9199E+05  1.6170E+03   1.9038E+05  0.000E+00  0.000E+00  0.000E+00  3.15104E+01  1.771E-01  2.000E+01  2.000E+04  8.085E-02
   1   18   30     3     9    1.9038E+05 -9.3624E+02   1.9131E+05  0.000E+00  0.000E+00  0.000E+00  3.06213E+01  1.769E-01  2.000E+01  2.000E+04 -4.681E-02



1
              HEAD IN LAYER   1 AT END OF TIME STEP   1 IN STRESS PERIOD    6
  ---------------------------------------------------------------------------

          1      2      3      4      5      6      7      8      9     10
         11     12     13     14     15     16     17     18     19     20
         21     22     23     24     25     26     27     28     29     30
 .........................................................................
   1  ****** ****** ****** ****** ****** ****** ****** ****** ****** ******
      ****** ****** ****** ****** ****** ****** ****** ****** ****** ******
      ****** ****** ****** ****** ****** ****** ****** ****** ****** ******
   2  ****** ****** ****** ****** ****** ****** ****** ****** ****** ******
      ****** ****** ****** ****** ****** ****** ****** ****** ****** ******
      ****** ****** ****** ****** ****** ****** ****** ****** ****** ******
   3  ****** ****** ****** ****** ****** ****** ****** ****** ****** ******
      ****** ****** ****** ****** ****** ****** ****** ****** ****** ******
      ****** ****** ****** ****** ****** ****** ****** ****** ****** ******
   4  ****** ****** ****** ****** ****** ****** ****** ****** ****** ******
      ****** ****** ****** ****** ****** ****** ****** ****** ****** ******
      ****** ****** ****** ****** ****** ****** ****** ****** ****** ******
   5  ****** ****** ****** ****** ****** ****** ****** ****** ****** ******
      ****** ****** ****** ****** ****** ****** ****** ****** ****** ******
      ****** ****** ****** ****** ****** ****** ****** ****** ****** ******
   6  ****** ****** ****** ****** ****** ****** ****** ****** ****** ******
      ****** ****** ****** ****** ****** ****** ****** ****** ****** ******
      ****** ****** ****** ****** ****** ****** ****** ****** ****** ******
   7  ****** ****** ****** ****** ****** ****** ****** ****** ****** ******
      ****** ****** ****** ****** ****** ****** ****** ****** ****** ******
      ****** ****** ****** ****** ****** ****** ****** ****** ****** ******
   8  ****** ****** ****** ****** ****** ****** ****** ****** ****** ******
      ****** ****** ****** ****** ****** ****** ****** ****** ****** ******
      ****** ****** ****** ****** ****** ****** ****** ****** ****** ******
   9  ****** ****** ****** ****** ****** ****** ****** ****** ****** ******
      ****** ****** ****** ****** ****** ****** ****** ****** ****** ******
      ****** ****** ****** ****** ****** ****** ****** ****** ****** ******
  10  ****** ****** ****** ****** ****** ****** ****** ****** ****** ******
      ****** ****** ****** ****** ****** ****** ****** ****** ****** ******
      ****** ****** ****** ****** ****** ****** ****** ****** ****** ******
  11  ****** ****** ****** ****** ****** ****** ****** ****** ****** ******
      ****** ****** ****** ****** ****** ****** ****** ****** ****** ******
      ****** ****** ****** ****** ****** ****** ****** ****** ****** ******
  12  ****** ****** ****** ****** ****** ****** ****** ****** ****** ******
      ****** ****** ****** ****** ****** ****** ****** ****** ****** ******
      ****** ****** ****** ****** ****** ****** ****** ****** ****** ******
  13  ****** ****** ****** ****** ****** ****** ****** ****** ****** ******
      ****** ****** ****** ****** ****** ****** ****** ****** ****** ******
      ****** ****** ****** ****** ****** ****** ****** ****** ****** ******
  14  ****** ****** ****** ****** ****** ****** ****** ****** ****** ******
      ****** ****** ****** ****** ****** ****** ****** ****** ****** ******
      ****** ****** ****** ****** ****** ****** ****** ****** ****** ******
  15  ****** ****** ****** ****** ****** ****** ****** ****** ****** ******
      ****** ****** ****** ****** ****** ****** ****** ****** ****** ******
      ****** ****** ****** ****** ****** ****** ****** ****** ****** ******
  16  ****** ****** ****** ****** ****** ****** ****** ****** ****** ******
      ****** ****** ****** ****** ****** ****** ****** ****** ****** ******
      ****** ****** ****** ****** ****** ****** ****** ****** ****** ******
  17  ****** ****** ****** ****** ****** ****** ****** ****** ****** ******
      ****** ****** ****** ****** ****** ****** ****** ****** ****** ******
      ****** ****** ****** ****** ****** ****** ****** ****** ****** ******
  18  ****** ****** ****** ****** ****** ****** ****** ****** ****** ******
      ****** ****** ****** ****** ****** ****** ****** ****** ****** ******
      ****** ****** ****** ****** ****** ****** ****** ****** ****** ******
  19  ****** ****** ****** ****** ****** ****** ****** ****** ****** ******
      ****** ****** ****** ****** ****** ****** ****** ****** ****** ******
      ****** ****** ****** ****** ****** ****** ****** ****** ****** ******
  20  ****** ****** ****** ****** ****** ****** ****** ****** ****** ******
      ****** ****** ****** ****** ****** ****** ****** ****** ****** ******
      ****** ****** ****** ****** ****** ****** ****** ****** ****** ******
  21  ****** ****** ****** ****** ****** ****** ****** ****** ****** ******
      ****** ****** ****** ****** ****** ****** ****** ****** ****** ******
      ****** ****** ****** ****** ****** ****** ****** ****** ****** ******
  22  ****** ****** ****** ****** ****** ****** ****** ****** ****** ******
      ****** ****** ****** ****** ****** ****** ****** ****** ****** ******
      ****** ****** ****** ****** ****** ****** ****** ****** ****** ******
  23  ****** ****** ****** ****** ****** ****** ****** ****** ****** ******
      ****** ****** ****** ****** ****** ****** ****** ****** ****** ******
      ****** ****** ****** ****** ****** ****** ****** ****** ****** ******
  24  ****** ****** ****** ****** ****** ****** ****** ****** ****** ******
      ****** ****** ****** ****** ****** ****** ****** ****** ****** ******
      ****** ****** ****** ****** ****** ****** ****** ****** ****** ******
  25  ****** ****** ****** ****** ****** ****** ****** ****** ****** ******
      ****** ****** ****** ****** ****** ****** ****** ****** ****** ******
      ****** ****** ****** ****** ****** ****** ****** ****** ****** ******

 HEAD WILL BE SAVED ON UNIT   51 AT END OF TIME STEP    1, STRESS PERIOD    6
1
  VOLUMETRIC BUDGET FOR ENTIRE MODEL AT END OF TIME STEP    1, STRESS PERIOD   6
  ------------------------------------------------------------------------------

     CUMULATIVE VOLUMES      L**3       RATES FOR THIS TIME STEP      L**3/T
     ------------------                 ------------------------

           IN:                                      IN:
           ---                                      ---
             STORAGE =    30956177.8818               STORAGE =           0.0000
       CONSTANT HEAD =    13081636.5158         CONSTANT HEAD =       29112.0017
               WELLS =           0.0000                 WELLS =           0.0000
            RECHARGE =    15097200.0000              RECHARGE =       55200.0000
      STREAM LEAKAGE =     4984562.9377        STREAM LEAKAGE =       10702.9607

            TOTAL IN =    64119577.3352              TOTAL IN =       95014.9624

          OUT:                                     OUT:
          ----                                     ----
             STORAGE =      821116.4475               STORAGE =        9017.3963
       CONSTANT HEAD =           0.0000         CONSTANT HEAD =           0.0000
               WELLS =    18622404.9961                 WELLS =       33982.4909
            RECHARGE =           0.0000              RECHARGE =           0.0000
      STREAM LEAKAGE =    44676057.8725        STREAM LEAKAGE =       52015.0724

           TOTAL OUT =    64119579.3160             TOTAL OUT =       95014.9596

            IN - OUT =          -1.9808              IN - OUT =       2.8296E-03

 PERCENT DISCREPANCY =          -0.00     PERCENT DISCREPANCY =           0.00






         TIME SUMMARY AT END OF TIME STEP    1 IN STRESS PERIOD    6
                    SECONDS     MINUTES      HOURS       DAYS        YEARS
                    -----------------------------------------------------------
   TIME STEP LENGTH 7.86240E+06 1.31040E+05  2184.0      91.000     0.24914    
 STRESS PERIOD TIME 7.86240E+06 1.31040E+05  2184.0      91.000     0.24914    
         TOTAL TIME 4.73472E+07 7.89120E+05  13152.      548.00      1.5003    
1
1
                            STRESS PERIOD NO.    7, LENGTH =   91.00000    
                            -----------------------------------------------

                              NUMBER OF TIME STEPS =     1

                               MULTIPLIER FOR DELT =     1.500

                            INITIAL TIME STEP SIZE =   91.00000    

 WELL NO.  LAYER   ROW   COL   STRESS RATE         
 --------------------------------------------------
      1      1     14      6       0.000    
      2      1      3      9       0.000    
      3      1     20     10       0.000    
      4      1     14     20       0.000    
      5      1     18     15      -8387.    
      6      1     17     18      -8258.    
      7      1     14     29      -8048.    
      8      1     19     28      -9288.    

      8 WELLS

                 RECHARGE =   0.00000    

 REUSING STREAM SEGMENT DATA FROM LAST STRESS PERIOD
 
 SOLVING FOR HEAD 


     7 CALLS TO PCG ROUTINE FOR TIME STEP   1 IN STRESS PERIOD    7
    26 TOTAL ITERATIONS

 OUTPUT CONTROL FOR STRESS PERIOD    7   TIME STEP    1
    SAVE BUDGET
    SAVE HEAD FOR ALL LAYERS
    PRINT HEAD FOR ALL LAYERS
 UBDSV2 SAVING "STREAMFLOW OUT  " ON UNIT  50 AT TIME STEP  1, STRESS PERIOD   7



 STREAM LISTING     PERIOD      7   STEP        1

 LAYER ROW COL. STREAM  RCH.  FLOW INTO     FLOW TO   FLOW OUT OF   OVRLND.     DIRECT     STREAM       STREAM     STREAM     STREAM   STREAMBED  STREAMBED
                SEG.NO.  NO.  STRM. RCH.    AQUIFER    STRM. RCH.    RUNOFF     PRECIP       ET          HEAD       DEPTH      WIDTH   CONDCTNC.   GRADIENT

   1   13    1     1     1    1.0000E+05 -1.7910E+03   1.0179E+05  0.000E+00  0.000E+00  0.000E+00  4.84068E+01  1.454E-01  2.000E+01  2.000E+04 -8.955E-02
   1   13    2     1     2    1.0179E+05 -2.7672E+03   1.0456E+05  0.000E+00  0.000E+00  0.000E+00  4.79315E+01  1.474E-01  2.000E+01  2.000E+04 -1.384E-01
   1   14    3     1     3    1.0456E+05 -4.0487E+02   1.0496E+05  0.000E+00  0.000E+00  0.000E+00  4.74556E+01  1.487E-01  2.000E+01  2.000E+04 -2.024E-02
   1   15    4     1     4    1.0496E+05 -3.6282E+02   1.0533E+05  0.000E+00  0.000E+00  0.000E+00  4.69786E+01  1.491E-01  2.000E+01  2.000E+04 -1.814E-02
   1   16    5     1     5    1.0533E+05 -1.2914E+03   1.0662E+05  0.000E+00  0.000E+00  0.000E+00  4.65020E+01  1.498E-01  2.000E+01  2.000E+04 -6.457E-02
   1   16    6     1     6    1.0662E+05 -8.1234E+02   1.0743E+05  0.000E+00  0.000E+00  0.000E+00  4.60257E+01  1.507E-01  2.000E+01  2.000E+04 -4.062E-02
   1   16    7     1     7    1.0743E+05 -7.7112E+02   1.0820E+05  0.000E+00  0.000E+00  0.000E+00  4.55491E+01  1.513E-01  2.000E+01  2.000E+04 -3.856E-02
   1   16    8     1     8    1.0820E+05 -7.1919E+02   1.0892E+05  0.000E+00  0.000E+00  0.000E+00  4.50724E+01  1.520E-01  2.000E+01  2.000E+04 -3.596E-02
   1   16    9     1     9    1.0892E+05 -6.3493E+02   1.0955E+05  0.000E+00  0.000E+00  0.000E+00  4.45957E+01  1.525E-01  2.000E+01  2.000E+04 -3.175E-02
   1   16   10     1    10    1.0955E+05 -5.0160E+02   1.1006E+05  0.000E+00  0.000E+00  0.000E+00  4.41189E+01  1.530E-01  2.000E+01  2.000E+04 -2.508E-02
   1   16   11     1    11    1.1006E+05 -2.8528E+02   1.1034E+05  0.000E+00  0.000E+00  0.000E+00  4.36420E+01  1.533E-01  2.000E+01  2.000E+04 -1.426E-02
   1   16   12     1    12    1.1034E+05  1.7464E+02   1.1017E+05  0.000E+00  0.000E+00  0.000E+00  4.31647E+01  1.534E-01  2.000E+01  2.000E+04  8.732E-03
   1   15   13     1    13    1.1017E+05  8.8449E+01   1.1008E+05  0.000E+00  0.000E+00  0.000E+00  4.26874E+01  1.533E-01  2.000E+01  2.000E+04  4.422E-03
   1   14   14     1    14    1.1008E+05 -4.4865E+02   1.1053E+05  0.000E+00  0.000E+00  0.000E+00  4.22102E+01  1.534E-01  2.000E+01  2.000E+04 -2.243E-02
   1   13   15     1    15    1.1053E+05 -1.1717E+03   1.1170E+05  0.000E+00  0.000E+00  0.000E+00  4.17336E+01  1.541E-01  2.000E+01  2.000E+04 -5.858E-02
   1   12   16     1    16    1.1170E+05 -2.4819E+03   1.1418E+05  0.000E+00  0.000E+00  0.000E+00  4.12579E+01  1.556E-01  2.000E+01  2.000E+04 -1.241E-01
   1   12   17     1    17    1.1418E+05 -1.3026E+03   1.1548E+05  0.000E+00  0.000E+00  0.000E+00  4.07822E+01  1.572E-01  2.000E+01  2.000E+04 -6.513E-02
   1   12   18     1    18    1.1548E+05 -1.2035E+03   1.1669E+05  0.000E+00  0.000E+00  0.000E+00  4.03059E+01  1.582E-01  2.000E+01  2.000E+04 -6.018E-02
   1   12   19     1    19    1.1669E+05 -1.8868E+03   1.1857E+05  0.000E+00  0.000E+00  0.000E+00  3.98299E+01  1.595E-01  2.000E+01  2.000E+04 -9.434E-02
   1   13   20     1    20    1.1857E+05 -6.2400E+02   1.1920E+05  0.000E+00  0.000E+00  0.000E+00  3.93537E+01  1.605E-01  2.000E+01  2.000E+04 -3.120E-02
   1   14   21     1    21    1.1920E+05  1.4413E+02   1.1905E+05  0.000E+00  0.000E+00  0.000E+00  3.88766E+01  1.607E-01  2.000E+01  2.000E+04  7.207E-03
   1   14   22     1    22    1.1905E+05  5.1455E+03   1.1391E+05  0.000E+00  0.000E+00  0.000E+00  3.83972E+01  1.585E-01  2.000E+01  2.000E+04  2.573E-01
   1    9   30     2     1    5.0000E+04  1.9941E+02   4.9801E+04  0.000E+00  0.000E+00  0.000E+00  4.02407E+01  1.157E-01  2.000E+01  2.000E+04  9.971E-03
   1    9   29     2     2    4.9801E+04 -1.6338E+02   4.9964E+04  0.000E+00  0.000E+00  0.000E+00  3.99907E+01  1.157E-01  2.000E+01  2.000E+04 -8.169E-03
   1    9   28     2     3    4.9964E+04 -5.6032E+02   5.0524E+04  0.000E+00  0.000E+00  0.000E+00  3.97412E+01  1.162E-01  2.000E+01  2.000E+04 -2.802E-02
   1    9   27     2     4    5.0524E+04 -2.0170E+03   5.2541E+04  0.000E+00  0.000E+00  0.000E+00  3.94930E+01  1.180E-01  2.000E+01  2.000E+04 -1.008E-01
   1   10   26     2     5    5.2541E+04 -9.0582E+02   5.3447E+04  0.000E+00  0.000E+00  0.000E+00  3.92450E+01  1.200E-01  2.000E+01  2.000E+04 -4.529E-02
   1   11   25     2     6    5.3447E+04 -8.2065E+02   5.4268E+04  0.000E+00  0.000E+00  0.000E+00  3.89961E+01  1.211E-01  2.000E+01  2.000E+04 -4.103E-02
   1   12   24     2     7    5.4268E+04 -1.1971E+03   5.5465E+04  0.000E+00  0.000E+00  0.000E+00  3.87475E+01  1.225E-01  2.000E+01  2.000E+04 -5.985E-02
   1   13   23     2     8    5.5465E+04 -1.8508E+02   5.5650E+04  0.000E+00  0.000E+00  0.000E+00  3.84984E+01  1.234E-01  2.000E+01  2.000E+04 -9.254E-03
   1   14   22     2     9    5.5650E+04  2.1447E+03   5.3505E+04  0.000E+00  0.000E+00  0.000E+00  3.82471E+01  1.221E-01  2.000E+01  2.000E+04  1.072E-01
   1   14   22     3     1    1.6741E+05 -8.3673E+03   1.7578E+05  0.000E+00  0.000E+00  0.000E+00  3.77215E+01  1.660E-01  2.000E+01  2.000E+04 -4.184E-01
   1   15   23     3     2    1.7578E+05 -2.0354E+02   1.7598E+05  0.000E+00  0.000E+00  0.000E+00  3.68351E+01  1.684E-01  2.000E+01  2.000E+04 -1.018E-02
   1   15   24     3     3    1.7598E+05 -1.2678E+02   1.7611E+05  0.000E+00  0.000E+00  0.000E+00  3.59463E+01  1.685E-01  2.000E+01  2.000E+04 -6.339E-03
   1   15   25     3     4    1.7611E+05 -1.1427E+02   1.7623E+05  0.000E+00  0.000E+00  0.000E+00  3.50575E+01  1.686E-01  2.000E+01  2.000E+04 -5.713E-03
   1   15   26     3     5    1.7623E+05  2.9028E+01   1.7620E+05  0.000E+00  0.000E+00  0.000E+00  3.41686E+01  1.686E-01  2.000E+01  2.000E+04  1.451E-03
   1   16   27     3     6    1.7620E+05  2.6467E+02   1.7593E+05  0.000E+00  0.000E+00  0.000E+00  3.32797E+01  1.685E-01  2.000E+01  2.000E+04  1.323E-02
   1   17   28     3     7    1.7593E+05  2.8066E+03   1.7312E+05  0.000E+00  0.000E+00  0.000E+00  3.23899E+01  1.677E-01  2.000E+01  2.000E+04  1.403E-01
   1   18   29     3     8    1.7312E+05  2.3133E+03   1.7081E+05  0.000E+00  0.000E+00  0.000E+00  3.14995E+01  1.662E-01  2.000E+01  2.000E+04  1.157E-01
   1   18   30     3     9    1.7081E+05 -4.0162E+02   1.7121E+05  0.000E+00  0.000E+00  0.000E+00  3.06101E+01  1.656E-01  2.000E+01  2.000E+04 -2.008E-02



1
              HEAD IN LAYER   1 AT END OF TIME STEP   1 IN STRESS PERIOD    7
  ---------------------------------------------------------------------------

          1      2      3      4      5      6      7      8      9     10
         11     12     13     14     15     16     17     18     19     20
         21     22     23     24     25     26     27     28     29     30
 .........................................................................
   1  ****** ****** ****** ****** ****** ****** ****** ****** ****** ******
      ****** ****** ****** ****** ****** ****** ****** ****** ****** ******
      ****** ****** ****** ****** ****** ****** ****** ****** ****** ******
   2  ****** ****** ****** ****** ****** ****** ****** ****** ****** ******
      ****** ****** ****** ****** ****** ****** ****** ****** ****** ******
      ****** ****** ****** ****** ****** ****** ****** ****** ****** ******
   3  ****** ****** ****** ****** ****** ****** ****** ****** ****** ******
      ****** ****** ****** ****** ****** ****** ****** ****** ****** ******
      ****** ****** ****** ****** ****** ****** ****** ****** ****** ******
   4  ****** ****** ****** ****** ****** ****** ****** ****** ****** ******
      ****** ****** ****** ****** ****** ****** ****** ****** ****** ******
      ****** ****** ****** ****** ****** ****** ****** ****** ****** ******
   5  ****** ****** ****** ****** ****** ****** ****** ****** ****** ******
      ****** ****** ****** ****** ****** ****** ****** ****** ****** ******
      ****** ****** ****** ****** ****** ****** ****** ****** ****** ******
   6  ****** ****** ****** ****** ****** ****** ****** ****** ****** ******
      ****** ****** ****** ****** ****** ****** ****** ****** ****** ******
      ****** ****** ****** ****** ****** ****** ****** ****** ****** ******
   7  ****** ****** ****** ****** ****** ****** ****** ****** ****** ******
      ****** ****** ****** ****** ****** ****** ****** ****** ****** ******
      ****** ****** ****** ****** ****** ****** ****** ****** ****** ******
   8  ****** ****** ****** ****** ****** ****** ****** ****** ****** ******
      ****** ****** ****** ****** ****** ****** ****** ****** ****** ******
      ****** ****** ****** ****** ****** ****** ****** ****** ****** ******
   9  ****** ****** ****** ****** ****** ****** ****** ****** ****** ******
      ****** ****** ****** ****** ****** ****** ****** ****** ****** ******
      ****** ****** ****** ****** ****** ****** ****** ****** ****** ******
  10  ****** ****** ****** ****** ****** ****** ****** ****** ****** ******
      ****** ****** ****** ****** ****** ****** ****** ****** ****** ******
      ****** ****** ****** ****** ****** ****** ****** ****** ****** ******
  11  ****** ****** ****** ****** ****** ****** ****** ****** ****** ******
      ****** ****** ****** ****** ****** ****** ****** ****** ****** ******
      ****** ****** ****** ****** ****** ****** ****** ****** ****** ******
  12  ****** ****** ****** ****** ****** ****** ****** ****** ****** ******
      ****** ****** ****** ****** ****** ****** ****** ****** ****** ******
      ****** ****** ****** ****** ****** ****** ****** ****** ****** ******
  13  ****** ****** ****** ****** ****** ****** ****** ****** ****** ******
      ****** ****** ****** ****** ****** ****** ****** ****** ****** ******
      ****** ****** ****** ****** ****** ****** ****** ****** ****** ******
  14  ****** ****** ****** ****** ****** ****** ****** ****** ****** ******
      ****** ****** ****** ****** ****** ****** ****** ****** ****** ******
      ****** ****** ****** ****** ****** ****** ****** ****** ****** ******
  15  ****** ****** ****** ****** ****** ****** ****** ****** ****** ******
      ****** ****** ****** ****** ****** ****** ****** ****** ****** ******
      ****** ****** ****** ****** ****** ****** ****** ****** ****** ******
  16  ****** ****** ****** ****** ****** ****** ****** ****** ****** ******
      ****** ****** ****** ****** ****** ****** ****** ****** ****** ******
      ****** ****** ****** ****** ****** ****** ****** ****** ****** ******
  17  ****** ****** ****** ****** ****** ****** ****** ****** ****** ******
      ****** ****** ****** ****** ****** ****** ****** ****** ****** ******
      ****** ****** ****** ****** ****** ****** ****** ****** ****** ******
  18  ****** ****** ****** ****** ****** ****** ****** ****** ****** ******
      ****** ****** ****** ****** ****** ****** ****** ****** ****** ******
      ****** ****** ****** ****** ****** ****** ****** ****** ****** ******
  19  ****** ****** ****** ****** ****** ****** ****** ****** ****** ******
      ****** ****** ****** ****** ****** ****** ****** ****** ****** ******
      ****** ****** ****** ****** ****** ****** ****** ****** ****** ******
  20  ****** ****** ****** ****** ****** ****** ****** ****** ****** ******
      ****** ****** ****** ****** ****** ****** ****** ****** ****** ******
      ****** ****** ****** ****** ****** ****** ****** ****** ****** ******
  21  ****** ****** ****** ****** ****** ****** ****** ****** ****** ******
      ****** ****** ****** ****** ****** ****** ****** ****** ****** ******
      ****** ****** ****** ****** ****** ****** ****** ****** ****** ******
  22  ****** ****** ****** ****** ****** ****** ****** ****** ****** ******
      ****** ****** ****** ****** ****** ****** ****** ****** ****** ******
      ****** ****** ****** ****** ****** ****** ****** ****** ****** ******
  23  ****** ****** ****** ****** ****** ****** ****** ****** ****** ******
      ****** ****** ****** ****** ****** ****** ****** ****** ****** ******
      ****** ****** ****** ****** ****** ****** ****** ****** ****** ******
  24  ****** ****** ****** ****** ****** ****** ****** ****** ****** ******
      ****** ****** ****** ****** ****** ****** ****** ****** ****** ******
      ****** ****** ****** ****** ****** ****** ****** ****** ****** ******
  25  ****** ****** ****** ****** ****** ****** ****** ****** ****** ******
      ****** ****** ****** ****** ****** ****** ****** ****** ****** ******
      ****** ****** ****** ****** ****** ****** ****** ****** ****** ******

 HEAD WILL BE SAVED ON UNIT   51 AT END OF TIME STEP    1, STRESS PERIOD    7
1
  VOLUMETRIC BUDGET FOR ENTIRE MODEL AT END OF TIME STEP    1, STRESS PERIOD   7
  ------------------------------------------------------------------------------

     CUMULATIVE VOLUMES      L**3       RATES FOR THIS TIME STEP      L**3/T
     ------------------                 ------------------------

           IN:                                      IN:
           ---                                      ---
             STORAGE =    32973831.7012               STORAGE =       22172.0200
       CONSTANT HEAD =    16086798.5278         CONSTANT HEAD =       33023.7584
               WELLS =           0.0000                 WELLS =           0.0000
            RECHARGE =    15097200.0000              RECHARGE =           0.0000
      STREAM LEAKAGE =     6195809.1197        STREAM LEAKAGE =       13310.3976

            TOTAL IN =    70353639.3487              TOTAL IN =       68506.1760

          OUT:                                     OUT:
          ----                                     ----
             STORAGE =      821116.4475               STORAGE =           0.0000
       CONSTANT HEAD =           0.0000         CONSTANT HEAD =           0.0000
               WELLS =    21714811.6652                 WELLS =       33982.4909
            RECHARGE =           0.0000              RECHARGE =           0.0000
      STREAM LEAKAGE =    47817713.7053        STREAM LEAKAGE =       34523.6905

           TOTAL OUT =    70353641.8179             TOTAL OUT =       68506.1813

            IN - OUT =          -2.4692              IN - OUT =      -5.3667E-03

 PERCENT DISCREPANCY =          -0.00     PERCENT DISCREPANCY =          -0.00






         TIME SUMMARY AT END OF TIME STEP    1 IN STRESS PERIOD    7
                    SECONDS     MINUTES      HOURS       DAYS        YEARS
                    -----------------------------------------------------------
   TIME STEP LENGTH 7.86240E+06 1.31040E+05  2184.0      91.000     0.24914    
 STRESS PERIOD TIME 7.86240E+06 1.31040E+05  2184.0      91.000     0.24914    
         TOTAL TIME 5.52096E+07 9.20160E+05  15336.      639.00      1.7495    
1
1
                            STRESS PERIOD NO.    8, LENGTH =   91.00000    
                            -----------------------------------------------

                              NUMBER OF TIME STEPS =     1

                               MULTIPLIER FOR DELT =     1.500

                            INITIAL TIME STEP SIZE =   91.00000    

 WELL NO.  LAYER   ROW   COL   STRESS RATE         
 --------------------------------------------------
      1      1     14      6       0.000    
      2      1      3      9       0.000    
      3      1     20     10       0.000    
      4      1     14     20       0.000    
      5      1     18     15      -8387.    
      6      1     17     18      -8258.    
      7      1     14     29      -8048.    
      8      1     19     28      -9288.    

      8 WELLS

                 RECHARGE =  1.000000E-03

 REUSING STREAM SEGMENT DATA FROM LAST STRESS PERIOD
 
 SOLVING FOR HEAD 


     6 CALLS TO PCG ROUTINE FOR TIME STEP   1 IN STRESS PERIOD    8
    22 TOTAL ITERATIONS

 OUTPUT CONTROL FOR STRESS PERIOD    8   TIME STEP    1
    SAVE BUDGET
    SAVE HEAD FOR ALL LAYERS
    PRINT HEAD FOR ALL LAYERS
 UBDSV2 SAVING "STREAMFLOW OUT  " ON UNIT  50 AT TIME STEP  1, STRESS PERIOD   8



 STREAM LISTING     PERIOD      8   STEP        1

 LAYER ROW COL. STREAM  RCH.  FLOW INTO     FLOW TO   FLOW OUT OF   OVRLND.     DIRECT     STREAM       STREAM     STREAM     STREAM   STREAMBED  STREAMBED
                SEG.NO.  NO.  STRM. RCH.    AQUIFER    STRM. RCH.    RUNOFF     PRECIP       ET          HEAD       DEPTH      WIDTH   CONDCTNC.   GRADIENT

   1   13    1     1     1    1.0000E+05 -1.8706E+03   1.0187E+05  0.000E+00  0.000E+00  0.000E+00  4.84068E+01  1.455E-01  2.000E+01  2.000E+04 -9.353E-02
   1   13    2     1     2    1.0187E+05 -2.8475E+03   1.0472E+05  0.000E+00  0.000E+00  0.000E+00  4.79316E+01  1.475E-01  2.000E+01  2.000E+04 -1.424E-01
   1   14    3     1     3    1.0472E+05 -4.6978E+02   1.0519E+05  0.000E+00  0.000E+00  0.000E+00  4.74557E+01  1.489E-01  2.000E+01  2.000E+04 -2.349E-02
   1   15    4     1     4    1.0519E+05 -4.3203E+02   1.0562E+05  0.000E+00  0.000E+00  0.000E+00  4.69788E+01  1.493E-01  2.000E+01  2.000E+04 -2.160E-02
   1   16    5     1     5    1.0562E+05 -1.4635E+03   1.0708E+05  0.000E+00  0.000E+00  0.000E+00  4.65024E+01  1.501E-01  2.000E+01  2.000E+04 -7.317E-02
   1   16    6     1     6    1.0708E+05 -9.1871E+02   1.0800E+05  0.000E+00  0.000E+00  0.000E+00  4.60261E+01  1.511E-01  2.000E+01  2.000E+04 -4.594E-02
   1   16    7     1     7    1.0800E+05 -8.7257E+02   1.0887E+05  0.000E+00  0.000E+00  0.000E+00  4.55496E+01  1.519E-01  2.000E+01  2.000E+04 -4.363E-02
   1   16    8     1     8    1.0887E+05 -8.1972E+02   1.0969E+05  0.000E+00  0.000E+00  0.000E+00  4.50730E+01  1.526E-01  2.000E+01  2.000E+04 -4.099E-02
   1   16    9     1     9    1.0969E+05 -7.3640E+02   1.1043E+05  0.000E+00  0.000E+00  0.000E+00  4.45964E+01  1.532E-01  2.000E+01  2.000E+04 -3.682E-02
   1   16   10     1    10    1.1043E+05 -6.0522E+02   1.1104E+05  0.000E+00  0.000E+00  0.000E+00  4.41197E+01  1.538E-01  2.000E+01  2.000E+04 -3.026E-02
   1   16   11     1    11    1.1104E+05 -3.9142E+02   1.1143E+05  0.000E+00  0.000E+00  0.000E+00  4.36428E+01  1.542E-01  2.000E+01  2.000E+04 -1.957E-02
   1   16   12     1    12    1.1143E+05  1.6474E+01   1.1141E+05  0.000E+00  0.000E+00  0.000E+00  4.31657E+01  1.543E-01  2.000E+01  2.000E+04  8.237E-04
   1   15   13     1    13    1.1141E+05 -7.9196E+01   1.1149E+05  0.000E+00  0.000E+00  0.000E+00  4.26885E+01  1.544E-01  2.000E+01  2.000E+04 -3.960E-03
   1   14   14     1    14    1.1149E+05 -6.1094E+02   1.1210E+05  0.000E+00  0.000E+00  0.000E+00  4.22115E+01  1.547E-01  2.000E+01  2.000E+04 -3.055E-02
   1   13   15     1    15    1.1210E+05 -1.3227E+03   1.1342E+05  0.000E+00  0.000E+00  0.000E+00  4.17350E+01  1.555E-01  2.000E+01  2.000E+04 -6.613E-02
   1   12   16     1    16    1.1342E+05 -2.5977E+03   1.1602E+05  0.000E+00  0.000E+00  0.000E+00  4.12594E+01  1.571E-01  2.000E+01  2.000E+04 -1.299E-01
   1   12   17     1    17    1.1602E+05 -1.4156E+03   1.1744E+05  0.000E+00  0.000E+00  0.000E+00  4.07837E+01  1.587E-01  2.000E+01  2.000E+04 -7.078E-02
   1   12   18     1    18    1.1744E+05 -1.3228E+03   1.1876E+05  0.000E+00  0.000E+00  0.000E+00  4.03076E+01  1.598E-01  2.000E+01  2.000E+04 -6.614E-02
   1   12   19     1    19    1.1876E+05 -2.0377E+03   1.2080E+05  0.000E+00  0.000E+00  0.000E+00  3.98316E+01  1.612E-01  2.000E+01  2.000E+04 -1.019E-01
   1   13   20     1    20    1.2080E+05 -8.0086E+02   1.2160E+05  0.000E+00  0.000E+00  0.000E+00  3.93555E+01  1.623E-01  2.000E+01  2.000E+04 -4.004E-02
   1   14   21     1    21    1.2160E+05 -9.8893E+00   1.2161E+05  0.000E+00  0.000E+00  0.000E+00  3.88786E+01  1.627E-01  2.000E+01  2.000E+04 -4.945E-04
   1   14   22     1    22    1.2161E+05  5.0987E+03   1.1651E+05  0.000E+00  0.000E+00  0.000E+00  3.83992E+01  1.606E-01  2.000E+01  2.000E+04  2.549E-01
   1    9   30     2     1    5.0000E+04  3.5323E+01   4.9965E+04  0.000E+00  0.000E+00  0.000E+00  4.02408E+01  1.158E-01  2.000E+01  2.000E+04  1.766E-03
   1    9   29     2     2    4.9965E+04 -3.2473E+02   5.0289E+04  0.000E+00  0.000E+00  0.000E+00  3.99910E+01  1.160E-01  2.000E+01  2.000E+04 -1.624E-02
   1    9   28     2     3    5.0289E+04 -7.1626E+02   5.1006E+04  0.000E+00  0.000E+00  0.000E+00  3.97418E+01  1.168E-01  2.000E+01  2.000E+04 -3.581E-02
   1    9   27     2     4    5.1006E+04 -2.1972E+03   5.3203E+04  0.000E+00  0.000E+00  0.000E+00  3.94938E+01  1.188E-01  2.000E+01  2.000E+04 -1.099E-01
   1   10   26     2     5    5.3203E+04 -1.1127E+03   5.4316E+04  0.000E+00  0.000E+00  0.000E+00  3.92460E+01  1.210E-01  2.000E+01  2.000E+04 -5.564E-02
   1   11   25     2     6    5.4316E+04 -1.0259E+03   5.5342E+04  0.000E+00  0.000E+00  0.000E+00  3.89975E+01  1.225E-01  2.000E+01  2.000E+04 -5.129E-02
   1   12   24     2     7    5.5342E+04 -1.3834E+03   5.6725E+04  0.000E+00  0.000E+00  0.000E+00  3.87491E+01  1.241E-01  2.000E+01  2.000E+04 -6.917E-02
   1   13   23     2     8    5.6725E+04 -2.5956E+02   5.6984E+04  0.000E+00  0.000E+00  0.000E+00  3.85002E+01  1.252E-01  2.000E+01  2.000E+04 -1.298E-02
   1   14   22     2     9    5.6984E+04  2.0925E+03   5.4892E+04  0.000E+00  0.000E+00  0.000E+00  3.82489E+01  1.239E-01  2.000E+01  2.000E+04  1.046E-01
   1   14   22     3     1    1.7140E+05 -8.4096E+03   1.7981E+05  0.000E+00  0.000E+00  0.000E+00  3.77238E+01  1.683E-01  2.000E+01  2.000E+04 -4.205E-01
   1   15   23     3     2    1.7981E+05 -2.6644E+02   1.8008E+05  0.000E+00  0.000E+00  0.000E+00  3.68374E+01  1.708E-01  2.000E+01  2.000E+04 -1.332E-02
   1   15   24     3     3    1.8008E+05 -1.8651E+02   1.8026E+05  0.000E+00  0.000E+00  0.000E+00  3.59487E+01  1.709E-01  2.000E+01  2.000E+04 -9.326E-03
   1   15   25     3     4    1.8026E+05 -1.7580E+02   1.8044E+05  0.000E+00  0.000E+00  0.000E+00  3.50599E+01  1.710E-01  2.000E+01  2.000E+04 -8.790E-03
   1   15   26     3     5    1.8044E+05 -4.5162E+01   1.8049E+05  0.000E+00  0.000E+00  0.000E+00  3.41711E+01  1.711E-01  2.000E+01  2.000E+04 -2.258E-03
   1   16   27     3     6    1.8049E+05  1.8369E+02   1.8030E+05  0.000E+00  0.000E+00  0.000E+00  3.32821E+01  1.710E-01  2.000E+01  2.000E+04  9.185E-03
   1   17   28     3     7    1.8030E+05  2.6058E+03   1.7770E+05  0.000E+00  0.000E+00  0.000E+00  3.23924E+01  1.702E-01  2.000E+01  2.000E+04  1.303E-01
   1   18   29     3     8    1.7770E+05  2.1541E+03   1.7554E+05  0.000E+00  0.000E+00  0.000E+00  3.15022E+01  1.689E-01  2.000E+01  2.000E+04  1.077E-01
   1   18   30     3     9    1.7554E+05 -5.4444E+02   1.7609E+05  0.000E+00  0.000E+00  0.000E+00  3.06128E+01  1.684E-01  2.000E+01  2.000E+04 -2.722E-02



1
              HEAD IN LAYER   1 AT END OF TIME STEP   1 IN STRESS PERIOD    8
  ---------------------------------------------------------------------------

          1      2      3      4      5      6      7      8      9     10
         11     12     13     14     15     16     17     18     19     20
         21     22     23     24     25     26     27     28     29     30
 .........................................................................
   1  ****** ****** ****** ****** ****** ****** ****** ****** ****** ******
      ****** ****** ****** ****** ****** ****** ****** ****** ****** ******
      ****** ****** ****** ****** ****** ****** ****** ****** ****** ******
   2  ****** ****** ****** ****** ****** ****** ****** ****** ****** ******
      ****** ****** ****** ****** ****** ****** ****** ****** ****** ******
      ****** ****** ****** ****** ****** ****** ****** ****** ****** ******
   3  ****** ****** ****** ****** ****** ****** ****** ****** ****** ******
      ****** ****** ****** ****** ****** ****** ****** ****** ****** ******
      ****** ****** ****** ****** ****** ****** ****** ****** ****** ******
   4  ****** ****** ****** ****** ****** ****** ****** ****** ****** ******
      ****** ****** ****** ****** ****** ****** ****** ****** ****** ******
      ****** ****** ****** ****** ****** ****** ****** ****** ****** ******
   5  ****** ****** ****** ****** ****** ****** ****** ****** ****** ******
      ****** ****** ****** ****** ****** ****** ****** ****** ****** ******
      ****** ****** ****** ****** ****** ****** ****** ****** ****** ******
   6  ****** ****** ****** ****** ****** ****** ****** ****** ****** ******
      ****** ****** ****** ****** ****** ****** ****** ****** ****** ******
      ****** ****** ****** ****** ****** ****** ****** ****** ****** ******
   7  ****** ****** ****** ****** ****** ****** ****** ****** ****** ******
      ****** ****** ****** ****** ****** ****** ****** ****** ****** ******
      ****** ****** ****** ****** ****** ****** ****** ****** ****** ******
   8  ****** ****** ****** ****** ****** ****** ****** ****** ****** ******
      ****** ****** ****** ****** ****** ****** ****** ****** ****** ******
      ****** ****** ****** ****** ****** ****** ****** ****** ****** ******
   9  ****** ****** ****** ****** ****** ****** ****** ****** ****** ******
      ****** ****** ****** ****** ****** ****** ****** ****** ****** ******
      ****** ****** ****** ****** ****** ****** ****** ****** ****** ******
  10  ****** ****** ****** ****** ****** ****** ****** ****** ****** ******
      ****** ****** ****** ****** ****** ****** ****** ****** ****** ******
      ****** ****** ****** ****** ****** ****** ****** ****** ****** ******
  11  ****** ****** ****** ****** ****** ****** ****** ****** ****** ******
      ****** ****** ****** ****** ****** ****** ****** ****** ****** ******
      ****** ****** ****** ****** ****** ****** ****** ****** ****** ******
  12  ****** ****** ****** ****** ****** ****** ****** ****** ****** ******
      ****** ****** ****** ****** ****** ****** ****** ****** ****** ******
      ****** ****** ****** ****** ****** ****** ****** ****** ****** ******
  13  ****** ****** ****** ****** ****** ****** ****** ****** ****** ******
      ****** ****** ****** ****** ****** ****** ****** ****** ****** ******
      ****** ****** ****** ****** ****** ****** ****** ****** ****** ******
  14  ****** ****** ****** ****** ****** ****** ****** ****** ****** ******
      ****** ****** ****** ****** ****** ****** ****** ****** ****** ******
      ****** ****** ****** ****** ****** ****** ****** ****** ****** ******
  15  ****** ****** ****** ****** ****** ****** ****** ****** ****** ******
      ****** ****** ****** ****** ****** ****** ****** ****** ****** ******
      ****** ****** ****** ****** ****** ****** ****** ****** ****** ******
  16  ****** ****** ****** ****** ****** ****** ****** ****** ****** ******
      ****** ****** ****** ****** ****** ****** ****** ****** ****** ******
      ****** ****** ****** ****** ****** ****** ****** ****** ****** ******
  17  ****** ****** ****** ****** ****** ****** ****** ****** ****** ******
      ****** ****** ****** ****** ****** ****** ****** ****** ****** ******
      ****** ****** ****** ****** ****** ****** ****** ****** ****** ******
  18  ****** ****** ****** ****** ****** ****** ****** ****** ****** ******
      ****** ****** ****** ****** ****** ****** ****** ****** ****** ******
      ****** ****** ****** ****** ****** ****** ****** ****** ****** ******
  19  ****** ****** ****** ****** ****** ****** ****** ****** ****** ******
      ****** ****** ****** ****** ****** ****** ****** ****** ****** ******
      ****** ****** ****** ****** ****** ****** ****** ****** ****** ******
  20  ****** ****** ****** ****** ****** ****** ****** ****** ****** ******
      ****** ****** ****** ****** ****** ****** ****** ****** ****** ******
      ****** ****** ****** ****** ****** ****** ****** ****** ****** ******
  21  ****** ****** ****** ****** ****** ****** ****** ****** ****** ******
      ****** ****** ****** ****** ****** ****** ****** ****** ****** ******
      ****** ****** ****** ****** ****** ****** ****** ****** ****** ******
  22  ****** ****** ****** ****** ****** ****** ****** ****** ****** ******
      ****** ****** ****** ****** ****** ****** ****** ****** ****** ******
      ****** ****** ****** ****** ****** ****** ****** ****** ****** ******
  23  ****** ****** ****** ****** ****** ****** ****** ****** ****** ******
      ****** ****** ****** ****** ****** ****** ****** ****** ****** ******
      ****** ****** ****** ****** ****** ****** ****** ****** ****** ******
  24  ****** ****** ****** ****** ****** ****** ****** ****** ****** ******
      ****** ****** ****** ****** ****** ****** ****** ****** ****** ******
      ****** ****** ****** ****** ****** ****** ****** ****** ****** ******
  25  ****** ****** ****** ****** ****** ****** ****** ****** ****** ******
      ****** ****** ****** ****** ****** ****** ****** ****** ****** ******
      ****** ****** ****** ****** ****** ****** ****** ****** ****** ******

 HEAD WILL BE SAVED ON UNIT   51 AT END OF TIME STEP    1, STRESS PERIOD    8
1
  VOLUMETRIC BUDGET FOR ENTIRE MODEL AT END OF TIME STEP    1, STRESS PERIOD   8
  ------------------------------------------------------------------------------

     CUMULATIVE VOLUMES      L**3       RATES FOR THIS TIME STEP      L**3/T
     ------------------                 ------------------------

           IN:                                      IN:
           ---                                      ---
             STORAGE =    33089674.3581               STORAGE =        1272.9962
       CONSTANT HEAD =    19063903.7127         CONSTANT HEAD =       32715.4416
               WELLS =           0.0000                 WELLS =           0.0000
            RECHARGE =    17608800.0000              RECHARGE =       27600.0000
      STREAM LEAKAGE =     7304790.9858        STREAM LEAKAGE =       12186.6139

            TOTAL IN =    77067169.0566              TOTAL IN =       73775.0517

          OUT:                                     OUT:
          ----                                     ----
             STORAGE =      959437.8303               STORAGE =        1520.0152
       CONSTANT HEAD =           0.0000         CONSTANT HEAD =           0.0000
               WELLS =    24807218.3342                 WELLS =       33982.4909
            RECHARGE =           0.0000              RECHARGE =           0.0000
      STREAM LEAKAGE =    51300514.5965        STREAM LEAKAGE =       38272.5373

           TOTAL OUT =    77067170.7611             TOTAL OUT =       73775.0433

            IN - OUT =          -1.7045              IN - OUT =       8.4034E-03

 PERCENT DISCREPANCY =          -0.00     PERCENT DISCREPANCY =           0.00






         TIME SUMMARY AT END OF TIME STEP    1 IN STRESS PERIOD    8
                    SECONDS     MINUTES      HOURS       DAYS        YEARS
                    -----------------------------------------------------------
   TIME STEP LENGTH 7.86240E+06 1.31040E+05  2184.0      91.000     0.24914    
 STRESS PERIOD TIME 7.86240E+06 1.31040E+05  2184.0      91.000     0.24914    
         TOTAL TIME 6.30720E+07 1.05120E+06  17520.      730.00      1.9986    
1
1
                            STRESS PERIOD NO.    9, LENGTH =   92.00000    
                            -----------------------------------------------

                              NUMBER OF TIME STEPS =     1

                               MULTIPLIER FOR DELT =     1.500

                            INITIAL TIME STEP SIZE =   92.00000    

 WELL NO.  LAYER   ROW   COL   STRESS RATE         
 --------------------------------------------------
      1      1     14      6       0.000    
      2      1      3      9       0.000    
      3      1     20     10       0.000    
      4      1     14     20       0.000    
      5      1     18     15      -8387.    
      6      1     17     18      -8258.    
      7      1     14     29      -8048.    
      8      1     19     28      -9288.    

      8 WELLS

                 RECHARGE =  5.000000E-04

 REUSING STREAM SEGMENT DATA FROM LAST STRESS PERIOD
 
 SOLVING FOR HEAD 


     6 CALLS TO PCG ROUTINE FOR TIME STEP   1 IN STRESS PERIOD    9
    23 TOTAL ITERATIONS

 OUTPUT CONTROL FOR STRESS PERIOD    9   TIME STEP    1
    SAVE BUDGET
    SAVE HEAD FOR ALL LAYERS
    PRINT HEAD FOR ALL LAYERS
 UBDSV2 SAVING "STREAMFLOW OUT  " ON UNIT  50 AT TIME STEP  1, STRESS PERIOD   9



 STREAM LISTING     PERIOD      9   STEP        1

 LAYER ROW COL. STREAM  RCH.  FLOW INTO     FLOW TO   FLOW OUT OF   OVRLND.     DIRECT     STREAM       STREAM     STREAM     STREAM   STREAMBED  STREAMBED
                SEG.NO.  NO.  STRM. RCH.    AQUIFER    STRM. RCH.    RUNOFF     PRECIP       ET          HEAD       DEPTH      WIDTH   CONDCTNC.   GRADIENT

   1   13    1     1     1    1.0000E+05 -1.6610E+03   1.0166E+05  0.000E+00  0.000E+00  0.000E+00  4.84067E+01  1.454E-01  2.000E+01  2.000E+04 -8.305E-02
   1   13    2     1     2    1.0166E+05 -2.6104E+03   1.0427E+05  0.000E+00  0.000E+00  0.000E+00  4.79313E+01  1.472E-01  2.000E+01  2.000E+04 -1.305E-01
   1   14    3     1     3    1.0427E+05 -3.9970E+02   1.0467E+05  0.000E+00  0.000E+00  0.000E+00  4.74553E+01  1.485E-01  2.000E+01  2.000E+04 -1.998E-02
   1   15    4     1     4    1.0467E+05 -3.6070E+02   1.0503E+05  0.000E+00  0.000E+00  0.000E+00  4.69784E+01  1.488E-01  2.000E+01  2.000E+04 -1.803E-02
   1   16    5     1     5    1.0503E+05 -1.2703E+03   1.0630E+05  0.000E+00  0.000E+00  0.000E+00  4.65018E+01  1.495E-01  2.000E+01  2.000E+04 -6.351E-02
   1   16    6     1     6    1.0630E+05 -7.9866E+02   1.0710E+05  0.000E+00  0.000E+00  0.000E+00  4.60254E+01  1.504E-01  2.000E+01  2.000E+04 -3.993E-02
   1   16    7     1     7    1.0710E+05 -7.5631E+02   1.0786E+05  0.000E+00  0.000E+00  0.000E+00  4.55488E+01  1.510E-01  2.000E+01  2.000E+04 -3.782E-02
   1   16    8     1     8    1.0786E+05 -7.0493E+02   1.0856E+05  0.000E+00  0.000E+00  0.000E+00  4.50721E+01  1.517E-01  2.000E+01  2.000E+04 -3.525E-02
   1   16    9     1     9    1.0856E+05 -6.2308E+02   1.0919E+05  0.000E+00  0.000E+00  0.000E+00  4.45954E+01  1.522E-01  2.000E+01  2.000E+04 -3.115E-02
   1   16   10     1    10    1.0919E+05 -4.9369E+02   1.0968E+05  0.000E+00  0.000E+00  0.000E+00  4.41186E+01  1.527E-01  2.000E+01  2.000E+04 -2.468E-02
   1   16   11     1    11    1.0968E+05 -2.8054E+02   1.0996E+05  0.000E+00  0.000E+00  0.000E+00  4.36417E+01  1.530E-01  2.000E+01  2.000E+04 -1.403E-02
   1   16   12     1    12    1.0996E+05  2.0623E+02   1.0975E+05  0.000E+00  0.000E+00  0.000E+00  4.31644E+01  1.530E-01  2.000E+01  2.000E+04  1.031E-02
   1   15   13     1    13    1.0975E+05  1.3004E+02   1.0962E+05  0.000E+00  0.000E+00  0.000E+00  4.26870E+01  1.529E-01  2.000E+01  2.000E+04  6.502E-03
   1   14   14     1    14    1.0962E+05 -3.8947E+02   1.1001E+05  0.000E+00  0.000E+00  0.000E+00  4.22098E+01  1.530E-01  2.000E+01  2.000E+04 -1.947E-02
   1   13   15     1    15    1.1001E+05 -1.0965E+03   1.1111E+05  0.000E+00  0.000E+00  0.000E+00  4.17332E+01  1.536E-01  2.000E+01  2.000E+04 -5.482E-02
   1   12   16     1    16    1.1111E+05 -2.3652E+03   1.1347E+05  0.000E+00  0.000E+00  0.000E+00  4.12573E+01  1.551E-01  2.000E+01  2.000E+04 -1.183E-01
   1   12   17     1    17    1.1347E+05 -1.2548E+03   1.1473E+05  0.000E+00  0.000E+00  0.000E+00  4.07816E+01  1.566E-01  2.000E+01  2.000E+04 -6.274E-02
   1   12   18     1    18    1.1473E+05 -1.1691E+03   1.1590E+05  0.000E+00  0.000E+00  0.000E+00  4.03053E+01  1.576E-01  2.000E+01  2.000E+04 -5.845E-02
   1   12   19     1    19    1.1590E+05 -1.8530E+03   1.1775E+05  0.000E+00  0.000E+00  0.000E+00  3.98293E+01  1.588E-01  2.000E+01  2.000E+04 -9.265E-02
   1   13   20     1    20    1.1775E+05 -6.2718E+02   1.1838E+05  0.000E+00  0.000E+00  0.000E+00  3.93530E+01  1.598E-01  2.000E+01  2.000E+04 -3.136E-02
   1   14   21     1    21    1.1838E+05  1.6381E+02   1.1821E+05  0.000E+00  0.000E+00  0.000E+00  3.88759E+01  1.600E-01  2.000E+01  2.000E+04  8.191E-03
   1   14   22     1    22    1.1821E+05  5.1372E+03   1.1308E+05  0.000E+00  0.000E+00  0.000E+00  3.83965E+01  1.578E-01  2.000E+01  2.000E+04  2.569E-01
   1    9   30     2     1    5.0000E+04  1.5793E+02   4.9842E+04  0.000E+00  0.000E+00  0.000E+00  4.02408E+01  1.158E-01  2.000E+01  2.000E+04  7.897E-03
   1    9   29     2     2    4.9842E+04 -2.0195E+02   5.0044E+04  0.000E+00  0.000E+00  0.000E+00  3.99908E+01  1.158E-01  2.000E+01  2.000E+04 -1.010E-02
   1    9   28     2     3    5.0044E+04 -5.9172E+02   5.0636E+04  0.000E+00  0.000E+00  0.000E+00  3.97413E+01  1.163E-01  2.000E+01  2.000E+04 -2.959E-02
   1    9   27     2     4    5.0636E+04 -2.0225E+03   5.2658E+04  0.000E+00  0.000E+00  0.000E+00  3.94931E+01  1.181E-01  2.000E+01  2.000E+04 -1.011E-01
   1   10   26     2     5    5.2658E+04 -9.4058E+02   5.3599E+04  0.000E+00  0.000E+00  0.000E+00  3.92452E+01  1.202E-01  2.000E+01  2.000E+04 -4.703E-02
   1   11   25     2     6    5.3599E+04 -8.6110E+02   5.4460E+04  0.000E+00  0.000E+00  0.000E+00  3.89964E+01  1.214E-01  2.000E+01  2.000E+04 -4.305E-02
   1   12   24     2     7    5.4460E+04 -1.2320E+03   5.5692E+04  0.000E+00  0.000E+00  0.000E+00  3.87478E+01  1.228E-01  2.000E+01  2.000E+04 -6.160E-02
   1   13   23     2     8    5.5692E+04 -2.1266E+02   5.5905E+04  0.000E+00  0.000E+00  0.000E+00  3.84987E+01  1.237E-01  2.000E+01  2.000E+04 -1.063E-02
   1   14   22     2     9    5.5905E+04  2.1568E+03   5.3748E+04  0.000E+00  0.000E+00  0.000E+00  3.82475E+01  1.225E-01  2.000E+01  2.000E+04  1.078E-01
   1   14   22     3     1    1.6683E+05 -8.3687E+03   1.7519E+05  0.000E+00  0.000E+00  0.000E+00  3.77212E+01  1.656E-01  2.000E+01  2.000E+04 -4.184E-01
   1   15   23     3     2    1.7519E+05 -2.1321E+02   1.7541E+05  0.000E+00  0.000E+00  0.000E+00  3.68348E+01  1.681E-01  2.000E+01  2.000E+04 -1.066E-02
   1   15   24     3     3    1.7541E+05 -1.4312E+02   1.7555E+05  0.000E+00  0.000E+00  0.000E+00  3.59460E+01  1.682E-01  2.000E+01  2.000E+04 -7.156E-03
   1   15   25     3     4    1.7555E+05 -1.3219E+02   1.7568E+05  0.000E+00  0.000E+00  0.000E+00  3.50572E+01  1.683E-01  2.000E+01  2.000E+04 -6.609E-03
   1   15   26     3     5    1.7568E+05  2.6562E+00   1.7568E+05  0.000E+00  0.000E+00  0.000E+00  3.41683E+01  1.683E-01  2.000E+01  2.000E+04  1.328E-04
   1   16   27     3     6    1.7568E+05  2.4011E+02   1.7544E+05  0.000E+00  0.000E+00  0.000E+00  3.32794E+01  1.682E-01  2.000E+01  2.000E+04  1.201E-02
   1   17   28     3     7    1.7544E+05  2.7608E+03   1.7268E+05  0.000E+00  0.000E+00  0.000E+00  3.23896E+01  1.674E-01  2.000E+01  2.000E+04  1.380E-01
   1   18   29     3     8    1.7268E+05  2.3332E+03   1.7035E+05  0.000E+00  0.000E+00  0.000E+00  3.14992E+01  1.659E-01  2.000E+01  2.000E+04  1.167E-01
   1   18   30     3     9    1.7035E+05 -4.1039E+02   1.7076E+05  0.000E+00  0.000E+00  0.000E+00  3.06098E+01  1.654E-01  2.000E+01  2.000E+04 -2.052E-02



1
              HEAD IN LAYER   1 AT END OF TIME STEP   1 IN STRESS PERIOD    9
  ---------------------------------------------------------------------------

          1      2      3      4      5      6      7      8      9     10
         11     12     13     14     15     16     17     18     19     20
         21     22     23     24     25     26     27     28     29     30
 .........................................................................
   1  ****** ****** ****** ****** ****** ****** ****** ****** ****** ******
      ****** ****** ****** ****** ****** ****** ****** ****** ****** ******
      ****** ****** ****** ****** ****** ****** ****** ****** ****** ******
   2  ****** ****** ****** ****** ****** ****** ****** ****** ****** ******
      ****** ****** ****** ****** ****** ****** ****** ****** ****** ******
      ****** ****** ****** ****** ****** ****** ****** ****** ****** ******
   3  ****** ****** ****** ****** ****** ****** ****** ****** ****** ******
      ****** ****** ****** ****** ****** ****** ****** ****** ****** ******
      ****** ****** ****** ****** ****** ****** ****** ****** ****** ******
   4  ****** ****** ****** ****** ****** ****** ****** ****** ****** ******
      ****** ****** ****** ****** ****** ****** ****** ****** ****** ******
      ****** ****** ****** ****** ****** ****** ****** ****** ****** ******
   5  ****** ****** ****** ****** ****** ****** ****** ****** ****** ******
      ****** ****** ****** ****** ****** ****** ****** ****** ****** ******
      ****** ****** ****** ****** ****** ****** ****** ****** ****** ******
   6  ****** ****** ****** ****** ****** ****** ****** ****** ****** ******
      ****** ****** ****** ****** ****** ****** ****** ****** ****** ******
      ****** ****** ****** ****** ****** ****** ****** ****** ****** ******
   7  ****** ****** ****** ****** ****** ****** ****** ****** ****** ******
      ****** ****** ****** ****** ****** ****** ****** ****** ****** ******
      ****** ****** ****** ****** ****** ****** ****** ****** ****** ******
   8  ****** ****** ****** ****** ****** ****** ****** ****** ****** ******
      ****** ****** ****** ****** ****** ****** ****** ****** ****** ******
      ****** ****** ****** ****** ****** ****** ****** ****** ****** ******
   9  ****** ****** ****** ****** ****** ****** ****** ****** ****** ******
      ****** ****** ****** ****** ****** ****** ****** ****** ****** ******
      ****** ****** ****** ****** ****** ****** ****** ****** ****** ******
  10  ****** ****** ****** ****** ****** ****** ****** ****** ****** ******
      ****** ****** ****** ****** ****** ****** ****** ****** ****** ******
      ****** ****** ****** ****** ****** ****** ****** ****** ****** ******
  11  ****** ****** ****** ****** ****** ****** ****** ****** ****** ******
      ****** ****** ****** ****** ****** ****** ****** ****** ****** ******
      ****** ****** ****** ****** ****** ****** ****** ****** ****** ******
  12  ****** ****** ****** ****** ****** ****** ****** ****** ****** ******
      ****** ****** ****** ****** ****** ****** ****** ****** ****** ******
      ****** ****** ****** ****** ****** ****** ****** ****** ****** ******
  13  ****** ****** ****** ****** ****** ****** ****** ****** ****** ******
      ****** ****** ****** ****** ****** ****** ****** ****** ****** ******
      ****** ****** ****** ****** ****** ****** ****** ****** ****** ******
  14  ****** ****** ****** ****** ****** ****** ****** ****** ****** ******
      ****** ****** ****** ****** ****** ****** ****** ****** ****** ******
      ****** ****** ****** ****** ****** ****** ****** ****** ****** ******
  15  ****** ****** ****** ****** ****** ****** ****** ****** ****** ******
      ****** ****** ****** ****** ****** ****** ****** ****** ****** ******
      ****** ****** ****** ****** ****** ****** ****** ****** ****** ******
  16  ****** ****** ****** ****** ****** ****** ****** ****** ****** ******
      ****** ****** ****** ****** ****** ****** ****** ****** ****** ******
      ****** ****** ****** ****** ****** ****** ****** ****** ****** ******
  17  ****** ****** ****** ****** ****** ****** ****** ****** ****** ******
      ****** ****** ****** ****** ****** ****** ****** ****** ****** ******
      ****** ****** ****** ****** ****** ****** ****** ****** ****** ******
  18  ****** ****** ****** ****** ****** ****** ****** ****** ****** ******
      ****** ****** ****** ****** ****** ****** ****** ****** ****** ******
      ****** ****** ****** ****** ****** ****** ****** ****** ****** ******
  19  ****** ****** ****** ****** ****** ****** ****** ****** ****** ******
      ****** ****** ****** ****** ****** ****** ****** ****** ****** ******
      ****** ****** ****** ****** ****** ****** ****** ****** ****** ******
  20  ****** ****** ****** ****** ****** ****** ****** ****** ****** ******
      ****** ****** ****** ****** ****** ****** ****** ****** ****** ******
      ****** ****** ****** ****** ****** ****** ****** ****** ****** ******
  21  ****** ****** ****** ****** ****** ****** ****** ****** ****** ******
      ****** ****** ****** ****** ****** ****** ****** ****** ****** ******
      ****** ****** ****** ****** ****** ****** ****** ****** ****** ******
  22  ****** ****** ****** ****** ****** ****** ****** ****** ****** ******
      ****** ****** ****** ****** ****** ****** ****** ****** ****** ******
      ****** ****** ****** ****** ****** ****** ****** ****** ****** ******
  23  ****** ****** ****** ****** ****** ****** ****** ****** ****** ******
      ****** ****** ****** ****** ****** ****** ****** ****** ****** ******
      ****** ****** ****** ****** ****** ****** ****** ****** ****** ******
  24  ****** ****** ****** ****** ****** ****** ****** ****** ****** ******
      ****** ****** ****** ****** ****** ****** ****** ****** ****** ******
      ****** ****** ****** ****** ****** ****** ****** ****** ****** ******
  25  ****** ****** ****** ****** ****** ****** ****** ****** ****** ******
      ****** ****** ****** ****** ****** ****** ****** ****** ****** ******
      ****** ****** ****** ****** ****** ****** ****** ****** ****** ******

 HEAD WILL BE SAVED ON UNIT   51 AT END OF TIME STEP    1, STRESS PERIOD    9
1
  VOLUMETRIC BUDGET FOR ENTIRE MODEL AT END OF TIME STEP    1, STRESS PERIOD   9
  ------------------------------------------------------------------------------

     CUMULATIVE VOLUMES      L**3       RATES FOR THIS TIME STEP      L**3/T
     ------------------                 ------------------------

           IN:                                      IN:
           ---                                      ---
             STORAGE =    33740012.2302               STORAGE =        7068.8899
       CONSTANT HEAD =    22179903.0260         CONSTANT HEAD =       33869.5578
               WELLS =           0.0000                 WELLS =           0.0000
            RECHARGE =    18878400.0000              RECHARGE =       13800.0000
      STREAM LEAKAGE =     8527350.0508        STREAM LEAKAGE =       13288.6855

            TOTAL IN =    83325665.3070              TOTAL IN =       68027.1332

          OUT:                                     OUT:
          ----                                     ----
             STORAGE =      959437.8303               STORAGE =           0.0000
       CONSTANT HEAD =           0.0000         CONSTANT HEAD =           0.0000
               WELLS =    27933607.4942                 WELLS =       33982.4909
            RECHARGE =           0.0000              RECHARGE =           0.0000
      STREAM LEAKAGE =    54432621.7543        STREAM LEAKAGE =       34044.6430

           TOTAL OUT =    83325667.0789             TOTAL OUT =       68027.1339

            IN - OUT =          -1.7718              IN - OUT =      -7.3253E-04

 PERCENT DISCREPANCY =          -0.00     PERCENT DISCREPANCY =          -0.00






         TIME SUMMARY AT END OF TIME STEP    1 IN STRESS PERIOD    9
                    SECONDS     MINUTES      HOURS       DAYS        YEARS
                    -----------------------------------------------------------
   TIME STEP LENGTH 7.94880E+06 1.32480E+05  2208.0      92.000     0.25188    
 STRESS PERIOD TIME 7.94880E+06 1.32480E+05  2208.0      92.000     0.25188    
         TOTAL TIME 7.10208E+07 1.18368E+06  19728.      822.00      2.2505    
1
1
                            STRESS PERIOD NO.   10, LENGTH =   91.00000    
                            -----------------------------------------------

                              NUMBER OF TIME STEPS =     1

                               MULTIPLIER FOR DELT =     1.500

                            INITIAL TIME STEP SIZE =   91.00000    

 WELL NO.  LAYER   ROW   COL   STRESS RATE         
 --------------------------------------------------
      1      1     14      6       0.000    
      2      1      3      9       0.000    
      3      1     20     10       0.000    
      4      1     14     20       0.000    
      5      1     18     15      -8387.    
      6      1     17     18      -8258.    
      7      1     14     29      -8048.    
      8      1     19     28      -9288.    

      8 WELLS

                 RECHARGE =  2.000000E-03

 REUSING STREAM SEGMENT DATA FROM LAST STRESS PERIOD
 
 SOLVING FOR HEAD 


     7 CALLS TO PCG ROUTINE FOR TIME STEP   1 IN STRESS PERIOD   10
    26 TOTAL ITERATIONS

 OUTPUT CONTROL FOR STRESS PERIOD   10   TIME STEP    1
    SAVE BUDGET
    SAVE HEAD FOR ALL LAYERS
    PRINT HEAD FOR ALL LAYERS
 UBDSV2 SAVING "STREAMFLOW OUT  " ON UNIT  50 AT TIME STEP  1, STRESS PERIOD  10



 STREAM LISTING     PERIOD     10   STEP        1

 LAYER ROW COL. STREAM  RCH.  FLOW INTO     FLOW TO   FLOW OUT OF   OVRLND.     DIRECT     STREAM       STREAM     STREAM     STREAM   STREAMBED  STREAMBED
                SEG.NO.  NO.  STRM. RCH.    AQUIFER    STRM. RCH.    RUNOFF     PRECIP       ET          HEAD       DEPTH      WIDTH   CONDCTNC.   GRADIENT

   1   13    1     1     1    1.0000E+05 -2.1171E+03   1.0212E+05  0.000E+00  0.000E+00  0.000E+00  4.84069E+01  1.456E-01  2.000E+01  2.000E+04 -1.059E-01
   1   13    2     1     2    1.0212E+05 -3.1161E+03   1.0523E+05  0.000E+00  0.000E+00  0.000E+00  4.79319E+01  1.478E-01  2.000E+01  2.000E+04 -1.558E-01
   1   14    3     1     3    1.0523E+05 -5.8681E+02   1.0582E+05  0.000E+00  0.000E+00  0.000E+00  4.74562E+01  1.494E-01  2.000E+01  2.000E+04 -2.934E-02
   1   15    4     1     4    1.0582E+05 -5.6055E+02   1.0638E+05  0.000E+00  0.000E+00  0.000E+00  4.69794E+01  1.499E-01  2.000E+01  2.000E+04 -2.803E-02
   1   16    5     1     5    1.0638E+05 -1.8889E+03   1.0827E+05  0.000E+00  0.000E+00  0.000E+00  4.65032E+01  1.509E-01  2.000E+01  2.000E+04 -9.445E-02
   1   16    6     1     6    1.0827E+05 -1.1610E+03   1.0943E+05  0.000E+00  0.000E+00  0.000E+00  4.60272E+01  1.522E-01  2.000E+01  2.000E+04 -5.805E-02
   1   16    7     1     7    1.0943E+05 -1.1009E+03   1.1053E+05  0.000E+00  0.000E+00  0.000E+00  4.55509E+01  1.531E-01  2.000E+01  2.000E+04 -5.504E-02
   1   16    8     1     8    1.1053E+05 -1.0440E+03   1.1158E+05  0.000E+00  0.000E+00  0.000E+00  4.50745E+01  1.540E-01  2.000E+01  2.000E+04 -5.220E-02
   1   16    9     1     9    1.1158E+05 -9.6057E+02   1.1254E+05  0.000E+00  0.000E+00  0.000E+00  4.45981E+01  1.549E-01  2.000E+01  2.000E+04 -4.803E-02
   1   16   10     1    10    1.1254E+05 -8.3119E+02   1.1337E+05  0.000E+00  0.000E+00  0.000E+00  4.41215E+01  1.556E-01  2.000E+01  2.000E+04 -4.156E-02
   1   16   11     1    11    1.1337E+05 -6.2128E+02   1.1399E+05  0.000E+00  0.000E+00  0.000E+00  4.36449E+01  1.562E-01  2.000E+01  2.000E+04 -3.106E-02
   1   16   12     1    12    1.1399E+05 -3.6259E+02   1.1435E+05  0.000E+00  0.000E+00  0.000E+00  4.31680E+01  1.566E-01  2.000E+01  2.000E+04 -1.813E-02
   1   15   13     1    13    1.1435E+05 -4.5698E+02   1.1481E+05  0.000E+00  0.000E+00  0.000E+00  4.26911E+01  1.570E-01  2.000E+01  2.000E+04 -2.285E-02
   1   14   14     1    14    1.1481E+05 -9.8449E+02   1.1579E+05  0.000E+00  0.000E+00  0.000E+00  4.22144E+01  1.576E-01  2.000E+01  2.000E+04 -4.922E-02
   1   13   15     1    15    1.1579E+05 -1.6822E+03   1.1747E+05  0.000E+00  0.000E+00  0.000E+00  4.17382E+01  1.586E-01  2.000E+01  2.000E+04 -8.411E-02
   1   12   16     1    16    1.1747E+05 -2.9308E+03   1.2041E+05  0.000E+00  0.000E+00  0.000E+00  4.12628E+01  1.605E-01  2.000E+01  2.000E+04 -1.465E-01
   1   12   17     1    17    1.2041E+05 -1.6820E+03   1.2209E+05  0.000E+00  0.000E+00  0.000E+00  4.07874E+01  1.624E-01  2.000E+01  2.000E+04 -8.410E-02
   1   12   18     1    18    1.2209E+05 -1.5918E+03   1.2368E+05  0.000E+00  0.000E+00  0.000E+00  4.03114E+01  1.637E-01  2.000E+01  2.000E+04 -7.959E-02
   1   12   19     1    19    1.2368E+05 -2.3733E+03   1.2605E+05  0.000E+00  0.000E+00  0.000E+00  3.98357E+01  1.653E-01  2.000E+01  2.000E+04 -1.187E-01
   1   13   20     1    20    1.2605E+05 -1.1486E+03   1.2720E+05  0.000E+00  0.000E+00  0.000E+00  3.93598E+01  1.667E-01  2.000E+01  2.000E+04 -5.743E-02
   1   14   21     1    21    1.2720E+05 -3.6013E+02   1.2756E+05  0.000E+00  0.000E+00  0.000E+00  3.88832E+01  1.673E-01  2.000E+01  2.000E+04 -1.801E-02
   1   14   22     1    22    1.2756E+05  5.0112E+03   1.2255E+05  0.000E+00  0.000E+00  0.000E+00  3.84041E+01  1.654E-01  2.000E+01  2.000E+04  2.506E-01
   1    9   30     2     1    5.0000E+04 -2.5677E+02   5.0257E+04  0.000E+00  0.000E+00  0.000E+00  4.02410E+01  1.160E-01  2.000E+01  2.000E+04 -1.284E-02
   1    9   29     2     2    5.0257E+04 -6.1440E+02   5.0871E+04  0.000E+00  0.000E+00  0.000E+00  3.99916E+01  1.166E-01  2.000E+01  2.000E+04 -3.072E-02
   1    9   28     2     3    5.0871E+04 -1.0035E+03   5.1875E+04  0.000E+00  0.000E+00  0.000E+00  3.97428E+01  1.178E-01  2.000E+01  2.000E+04 -5.017E-02
   1    9   27     2     4    5.1875E+04 -2.5767E+03   5.4451E+04  0.000E+00  0.000E+00  0.000E+00  3.94952E+01  1.202E-01  2.000E+01  2.000E+04 -1.288E-01
   1   10   26     2     5    5.4451E+04 -1.4946E+03   5.5946E+04  0.000E+00  0.000E+00  0.000E+00  3.92480E+01  1.230E-01  2.000E+01  2.000E+04 -7.473E-02
   1   11   25     2     6    5.5946E+04 -1.3905E+03   5.7336E+04  0.000E+00  0.000E+00  0.000E+00  3.89999E+01  1.249E-01  2.000E+01  2.000E+04 -6.953E-02
   1   12   24     2     7    5.7336E+04 -1.7112E+03   5.9048E+04  0.000E+00  0.000E+00  0.000E+00  3.87519E+01  1.269E-01  2.000E+01  2.000E+04 -8.556E-02
   1   13   23     2     8    5.9048E+04 -3.6152E+02   5.9409E+04  0.000E+00  0.000E+00  0.000E+00  3.85033E+01  1.283E-01  2.000E+01  2.000E+04 -1.808E-02
   1   14   22     2     9    5.9409E+04  1.9742E+03   5.7435E+04  0.000E+00  0.000E+00  0.000E+00  3.82522E+01  1.272E-01  2.000E+01  2.000E+04  9.871E-02
   1   14   22     3     1    1.7999E+05 -8.4950E+03   1.8848E+05  0.000E+00  0.000E+00  0.000E+00  3.77287E+01  1.732E-01  2.000E+01  2.000E+04 -4.248E-01
   1   15   23     3     2    1.8848E+05 -3.7540E+02   1.8886E+05  0.000E+00  0.000E+00  0.000E+00  3.68423E+01  1.757E-01  2.000E+01  2.000E+04 -1.877E-02
   1   15   24     3     3    1.8886E+05 -2.8009E+02   1.8914E+05  0.000E+00  0.000E+00  0.000E+00  3.59536E+01  1.759E-01  2.000E+01  2.000E+04 -1.400E-02
   1   15   25     3     4    1.8914E+05 -2.7259E+02   1.8941E+05  0.000E+00  0.000E+00  0.000E+00  3.50649E+01  1.760E-01  2.000E+01  2.000E+04 -1.363E-02
   1   15   26     3     5    1.8941E+05 -1.5947E+02   1.8957E+05  0.000E+00  0.000E+00  0.000E+00  3.41761E+01  1.761E-01  2.000E+01  2.000E+04 -7.973E-03
   1   16   27     3     6    1.8957E+05  5.4466E+01   1.8951E+05  0.000E+00  0.000E+00  0.000E+00  3.32873E+01  1.762E-01  2.000E+01  2.000E+04  2.723E-03
   1   17   28     3     7    1.8951E+05  2.2409E+03   1.8727E+05  0.000E+00  0.000E+00  0.000E+00  3.23977E+01  1.755E-01  2.000E+01  2.000E+04  1.120E-01
   1   18   29     3     8    1.8727E+05  1.7834E+03   1.8549E+05  0.000E+00  0.000E+00  0.000E+00  3.15077E+01  1.744E-01  2.000E+01  2.000E+04  8.917E-02
   1   18   30     3     9    1.8549E+05 -8.3465E+02   1.8632E+05  0.000E+00  0.000E+00  0.000E+00  3.06186E+01  1.741E-01  2.000E+01  2.000E+04 -4.173E-02



1
              HEAD IN LAYER   1 AT END OF TIME STEP   1 IN STRESS PERIOD   10
  ---------------------------------------------------------------------------

          1      2      3      4      5      6      7      8      9     10
         11     12     13     14     15     16     17     18     19     20
         21     22     23     24     25     26     27     28     29     30
 .........................................................................
   1  ****** ****** ****** ****** ****** ****** ****** ****** ****** ******
      ****** ****** ****** ****** ****** ****** ****** ****** ****** ******
      ****** ****** ****** ****** ****** ****** ****** ****** ****** ******
   2  ****** ****** ****** ****** ****** ****** ****** ****** ****** ******
      ****** ****** ****** ****** ****** ****** ****** ****** ****** ******
      ****** ****** ****** ****** ****** ****** ****** ****** ****** ******
   3  ****** ****** ****** ****** ****** ****** ****** ****** ****** ******
      ****** ****** ****** ****** ****** ****** ****** ****** ****** ******
      ****** ****** ****** ****** ****** ****** ****** ****** ****** ******
   4  ****** ****** ****** ****** ****** ****** ****** ****** ****** ******
      ****** ****** ****** ****** ****** ****** ****** ****** ****** ******
      ****** ****** ****** ****** ****** ****** ****** ****** ****** ******
   5  ****** ****** ****** ****** ****** ****** ****** ****** ****** ******
      ****** ****** ****** ****** ****** ****** ****** ****** ****** ******
      ****** ****** ****** ****** ****** ****** ****** ****** ****** ******
   6  ****** ****** ****** ****** ****** ****** ****** ****** ****** ******
      ****** ****** ****** ****** ****** ****** ****** ****** ****** ******
      ****** ****** ****** ****** ****** ****** ****** ****** ****** ******
   7  ****** ****** ****** ****** ****** ****** ****** ****** ****** ******
      ****** ****** ****** ****** ****** ****** ****** ****** ****** ******
      ****** ****** ****** ****** ****** ****** ****** ****** ****** ******
   8  ****** ****** ****** ****** ****** ****** ****** ****** ****** ******
      ****** ****** ****** ****** ****** ****** ****** ****** ****** ******
      ****** ****** ****** ****** ****** ****** ****** ****** ****** ******
   9  ****** ****** ****** ****** ****** ****** ****** ****** ****** ******
      ****** ****** ****** ****** ****** ****** ****** ****** ****** ******
      ****** ****** ****** ****** ****** ****** ****** ****** ****** ******
  10  ****** ****** ****** ****** ****** ****** ****** ****** ****** ******
      ****** ****** ****** ****** ****** ****** ****** ****** ****** ******
      ****** ****** ****** ****** ****** ****** ****** ****** ****** ******
  11  ****** ****** ****** ****** ****** ****** ****** ****** ****** ******
      ****** ****** ****** ****** ****** ****** ****** ****** ****** ******
      ****** ****** ****** ****** ****** ****** ****** ****** ****** ******
  12  ****** ****** ****** ****** ****** ****** ****** ****** ****** ******
      ****** ****** ****** ****** ****** ****** ****** ****** ****** ******
      ****** ****** ****** ****** ****** ****** ****** ****** ****** ******
  13  ****** ****** ****** ****** ****** ****** ****** ****** ****** ******
      ****** ****** ****** ****** ****** ****** ****** ****** ****** ******
      ****** ****** ****** ****** ****** ****** ****** ****** ****** ******
  14  ****** ****** ****** ****** ****** ****** ****** ****** ****** ******
      ****** ****** ****** ****** ****** ****** ****** ****** ****** ******
      ****** ****** ****** ****** ****** ****** ****** ****** ****** ******
  15  ****** ****** ****** ****** ****** ****** ****** ****** ****** ******
      ****** ****** ****** ****** ****** ****** ****** ****** ****** ******
      ****** ****** ****** ****** ****** ****** ****** ****** ****** ******
  16  ****** ****** ****** ****** ****** ****** ****** ****** ****** ******
      ****** ****** ****** ****** ****** ****** ****** ****** ****** ******
      ****** ****** ****** ****** ****** ****** ****** ****** ****** ******
  17  ****** ****** ****** ****** ****** ****** ****** ****** ****** ******
      ****** ****** ****** ****** ****** ****** ****** ****** ****** ******
      ****** ****** ****** ****** ****** ****** ****** ****** ****** ******
  18  ****** ****** ****** ****** ****** ****** ****** ****** ****** ******
      ****** ****** ****** ****** ****** ****** ****** ****** ****** ******
      ****** ****** ****** ****** ****** ****** ****** ****** ****** ******
  19  ****** ****** ****** ****** ****** ****** ****** ****** ****** ******
      ****** ****** ****** ****** ****** ****** ****** ****** ****** ******
      ****** ****** ****** ****** ****** ****** ****** ****** ****** ******
  20  ****** ****** ****** ****** ****** ****** ****** ****** ****** ******
      ****** ****** ****** ****** ****** ****** ****** ****** ****** ******
      ****** ****** ****** ****** ****** ****** ****** ****** ****** ******
  21  ****** ****** ****** ****** ****** ****** ****** ****** ****** ******
      ****** ****** ****** ****** ****** ****** ****** ****** ****** ******
      ****** ****** ****** ****** ****** ****** ****** ****** ****** ******
  22  ****** ****** ****** ****** ****** ****** ****** ****** ****** ******
      ****** ****** ****** ****** ****** ****** ****** ****** ****** ******
      ****** ****** ****** ****** ****** ****** ****** ****** ****** ******
  23  ****** ****** ****** ****** ****** ****** ****** ****** ****** ******
      ****** ****** ****** ****** ****** ****** ****** ****** ****** ******
      ****** ****** ****** ****** ****** ****** ****** ****** ****** ******
  24  ****** ****** ****** ****** ****** ****** ****** ****** ****** ******
      ****** ****** ****** ****** ****** ****** ****** ****** ****** ******
      ****** ****** ****** ****** ****** ****** ****** ****** ****** ******
  25  ****** ****** ****** ****** ****** ****** ****** ****** ****** ******
      ****** ****** ****** ****** ****** ****** ****** ****** ****** ******
      ****** ****** ****** ****** ****** ****** ****** ****** ****** ******

 HEAD WILL BE SAVED ON UNIT   51 AT END OF TIME STEP    1, STRESS PERIOD   10
1
  VOLUMETRIC BUDGET FOR ENTIRE MODEL AT END OF TIME STEP    1, STRESS PERIOD  10
  ------------------------------------------------------------------------------

     CUMULATIVE VOLUMES      L**3       RATES FOR THIS TIME STEP      L**3/T
     ------------------                 ------------------------

           IN:                                      IN:
           ---                                      ---
             STORAGE =    33740012.2302               STORAGE =           0.0000
       CONSTANT HEAD =    24992347.2021         CONSTANT HEAD =       30905.9800
               WELLS =           0.0000                 WELLS =           0.0000
            RECHARGE =    23901600.0000              RECHARGE =       55200.0000
      STREAM LEAKAGE =     9534192.6458        STREAM LEAKAGE =       11064.2043

            TOTAL IN =    92168152.0781              TOTAL IN =       97170.1843

          OUT:                                     OUT:
          ----                                     ----
             STORAGE =     2397232.9054               STORAGE =       15799.9459
       CONSTANT HEAD =           0.0000         CONSTANT HEAD =           0.0000
               WELLS =    31026014.1632                 WELLS =       33982.4909
            RECHARGE =           0.0000              RECHARGE =           0.0000
      STREAM LEAKAGE =    58744906.5058        STREAM LEAKAGE =       47387.7445

           TOTAL OUT =    92168153.5745             TOTAL OUT =       97170.1813

            IN - OUT =          -1.4963              IN - OUT =       3.0274E-03

 PERCENT DISCREPANCY =          -0.00     PERCENT DISCREPANCY =           0.00






         TIME SUMMARY AT END OF TIME STEP    1 IN STRESS PERIOD   10
                    SECONDS     MINUTES      HOURS       DAYS        YEARS
                    -----------------------------------------------------------
   TIME STEP LENGTH 7.86240E+06 1.31040E+05  2184.0      91.000     0.24914    
 STRESS PERIOD TIME 7.86240E+06 1.31040E+05  2184.0      91.000     0.24914    
         TOTAL TIME 7.88832E+07 1.31472E+06  21912.      913.00      2.4997    
1
1
                            STRESS PERIOD NO.   11, LENGTH =   91.00000    
                            -----------------------------------------------

                              NUMBER OF TIME STEPS =     1

                               MULTIPLIER FOR DELT =     1.500

                            INITIAL TIME STEP SIZE =   91.00000    

 WELL NO.  LAYER   ROW   COL   STRESS RATE         
 --------------------------------------------------
      1      1     14      6       0.000    
      2      1      3      9       0.000    
      3      1     20     10       0.000    
      4      1     14     20       0.000    
      5      1     18     15      -8387.    
      6      1     17     18      -8258.    
      7      1     14     29      -8048.    
      8      1     19     28      -9288.    

      8 WELLS

                 RECHARGE =   0.00000    

 REUSING STREAM SEGMENT DATA FROM LAST STRESS PERIOD
 
 SOLVING FOR HEAD 


     7 CALLS TO PCG ROUTINE FOR TIME STEP   1 IN STRESS PERIOD   11
    26 TOTAL ITERATIONS

 OUTPUT CONTROL FOR STRESS PERIOD   11   TIME STEP    1
    SAVE BUDGET
    SAVE HEAD FOR ALL LAYERS
    PRINT HEAD FOR ALL LAYERS
 UBDSV2 SAVING "STREAMFLOW OUT  " ON UNIT  50 AT TIME STEP  1, STRESS PERIOD  11



 STREAM LISTING     PERIOD     11   STEP        1

 LAYER ROW COL. STREAM  RCH.  FLOW INTO     FLOW TO   FLOW OUT OF   OVRLND.     DIRECT     STREAM       STREAM     STREAM     STREAM   STREAMBED  STREAMBED
                SEG.NO.  NO.  STRM. RCH.    AQUIFER    STRM. RCH.    RUNOFF     PRECIP       ET          HEAD       DEPTH      WIDTH   CONDCTNC.   GRADIENT

   1   13    1     1     1    1.0000E+05 -1.5520E+03   1.0155E+05  0.000E+00  0.000E+00  0.000E+00  4.84067E+01  1.453E-01  2.000E+01  2.000E+04 -7.760E-02
   1   13    2     1     2    1.0155E+05 -2.4871E+03   1.0404E+05  0.000E+00  0.000E+00  0.000E+00  4.79312E+01  1.471E-01  2.000E+01  2.000E+04 -1.244E-01
   1   14    3     1     3    1.0404E+05 -3.5637E+02   1.0440E+05  0.000E+00  0.000E+00  0.000E+00  4.74551E+01  1.483E-01  2.000E+01  2.000E+04 -1.782E-02
   1   15    4     1     4    1.0440E+05 -3.1900E+02   1.0471E+05  0.000E+00  0.000E+00  0.000E+00  4.69781E+01  1.486E-01  2.000E+01  2.000E+04 -1.595E-02
   1   16    5     1     5    1.0471E+05 -1.2010E+03   1.0592E+05  0.000E+00  0.000E+00  0.000E+00  4.65015E+01  1.492E-01  2.000E+01  2.000E+04 -6.005E-02
   1   16    6     1     6    1.0592E+05 -7.4686E+02   1.0666E+05  0.000E+00  0.000E+00  0.000E+00  4.60250E+01  1.500E-01  2.000E+01  2.000E+04 -3.734E-02
   1   16    7     1     7    1.0666E+05 -7.0441E+02   1.0737E+05  0.000E+00  0.000E+00  0.000E+00  4.55484E+01  1.507E-01  2.000E+01  2.000E+04 -3.522E-02
   1   16    8     1     8    1.0737E+05 -6.5305E+02   1.0802E+05  0.000E+00  0.000E+00  0.000E+00  4.50717E+01  1.512E-01  2.000E+01  2.000E+04 -3.265E-02
   1   16    9     1     9    1.0802E+05 -5.7174E+02   1.0859E+05  0.000E+00  0.000E+00  0.000E+00  4.45949E+01  1.517E-01  2.000E+01  2.000E+04 -2.859E-02
   1   16   10     1    10    1.0859E+05 -4.4334E+02   1.0903E+05  0.000E+00  0.000E+00  0.000E+00  4.41181E+01  1.522E-01  2.000E+01  2.000E+04 -2.217E-02
   1   16   11     1    11    1.0903E+05 -2.3146E+02   1.0927E+05  0.000E+00  0.000E+00  0.000E+00  4.36411E+01  1.525E-01  2.000E+01  2.000E+04 -1.157E-02
   1   16   12     1    12    1.0927E+05  2.8328E+02   1.0898E+05  0.000E+00  0.000E+00  0.000E+00  4.31638E+01  1.524E-01  2.000E+01  2.000E+04  1.416E-02
   1   15   13     1    13    1.0898E+05  2.3094E+02   1.0875E+05  0.000E+00  0.000E+00  0.000E+00  4.26863E+01  1.522E-01  2.000E+01  2.000E+04  1.155E-02
   1   14   14     1    14    1.0875E+05 -2.7939E+02   1.0903E+05  0.000E+00  0.000E+00  0.000E+00  4.22091E+01  1.522E-01  2.000E+01  2.000E+04 -1.397E-02
   1   13   15     1    15    1.0903E+05 -9.8318E+02   1.1001E+05  0.000E+00  0.000E+00  0.000E+00  4.17323E+01  1.528E-01  2.000E+01  2.000E+04 -4.916E-02
   1   12   16     1    16    1.1001E+05 -2.2561E+03   1.1227E+05  0.000E+00  0.000E+00  0.000E+00  4.12564E+01  1.541E-01  2.000E+01  2.000E+04 -1.128E-01
   1   12   17     1    17    1.1227E+05 -1.1765E+03   1.1345E+05  0.000E+00  0.000E+00  0.000E+00  4.07805E+01  1.555E-01  2.000E+01  2.000E+04 -5.882E-02
   1   12   18     1    18    1.1345E+05 -1.0937E+03   1.1454E+05  0.000E+00  0.000E+00  0.000E+00  4.03042E+01  1.565E-01  2.000E+01  2.000E+04 -5.469E-02
   1   12   19     1    19    1.1454E+05 -1.7618E+03   1.1630E+05  0.000E+00  0.000E+00  0.000E+00  3.98281E+01  1.577E-01  2.000E+01  2.000E+04 -8.809E-02
   1   13   20     1    20    1.1630E+05 -5.3652E+02   1.1684E+05  0.000E+00  0.000E+00  0.000E+00  3.93518E+01  1.586E-01  2.000E+01  2.000E+04 -2.683E-02
   1   14   21     1    21    1.1684E+05  2.3723E+02   1.1660E+05  0.000E+00  0.000E+00  0.000E+00  3.88746E+01  1.587E-01  2.000E+01  2.000E+04  1.186E-02
   1   14   22     1    22    1.1660E+05  5.1571E+03   1.1145E+05  0.000E+00  0.000E+00  0.000E+00  3.83951E+01  1.565E-01  2.000E+01  2.000E+04  2.579E-01
   1    9   30     2     1    5.0000E+04  2.3094E+02   4.9769E+04  0.000E+00  0.000E+00  0.000E+00  4.02407E+01  1.157E-01  2.000E+01  2.000E+04  1.155E-02
   1    9   29     2     2    4.9769E+04 -1.2977E+02   4.9899E+04  0.000E+00  0.000E+00  0.000E+00  3.99906E+01  1.156E-01  2.000E+01  2.000E+04 -6.489E-03
   1    9   28     2     3    4.9899E+04 -5.2109E+02   5.0420E+04  0.000E+00  0.000E+00  0.000E+00  3.97411E+01  1.161E-01  2.000E+01  2.000E+04 -2.605E-02
   1    9   27     2     4    5.0420E+04 -1.9379E+03   5.2358E+04  0.000E+00  0.000E+00  0.000E+00  3.94928E+01  1.178E-01  2.000E+01  2.000E+04 -9.690E-02
   1   10   26     2     5    5.2358E+04 -8.4119E+02   5.3199E+04  0.000E+00  0.000E+00  0.000E+00  3.92447E+01  1.197E-01  2.000E+01  2.000E+04 -4.206E-02
   1   11   25     2     6    5.3199E+04 -7.6089E+02   5.3960E+04  0.000E+00  0.000E+00  0.000E+00  3.89958E+01  1.208E-01  2.000E+01  2.000E+04 -3.804E-02
   1   12   24     2     7    5.3960E+04 -1.1386E+03   5.5099E+04  0.000E+00  0.000E+00  0.000E+00  3.87471E+01  1.221E-01  2.000E+01  2.000E+04 -5.693E-02
   1   13   23     2     8    5.5099E+04 -1.7576E+02   5.5274E+04  0.000E+00  0.000E+00  0.000E+00  3.84979E+01  1.229E-01  2.000E+01  2.000E+04 -8.788E-03
   1   14   22     2     9    5.5274E+04  2.1860E+03   5.3088E+04  0.000E+00  0.000E+00  0.000E+00  3.82466E+01  1.216E-01  2.000E+01  2.000E+04  1.093E-01
   1   14   22     3     1    1.6453E+05 -8.3490E+03   1.7288E+05  0.000E+00  0.000E+00  0.000E+00  3.77198E+01  1.643E-01  2.000E+01  2.000E+04 -4.175E-01
   1   15   23     3     2    1.7288E+05 -1.8318E+02   1.7307E+05  0.000E+00  0.000E+00  0.000E+00  3.68334E+01  1.668E-01  2.000E+01  2.000E+04 -9.159E-03
   1   15   24     3     3    1.7307E+05 -1.1485E+02   1.7318E+05  0.000E+00  0.000E+00  0.000E+00  3.59446E+01  1.668E-01  2.000E+01  2.000E+04 -5.742E-03
   1   15   25     3     4    1.7318E+05 -1.0353E+02   1.7328E+05  0.000E+00  0.000E+00  0.000E+00  3.50558E+01  1.669E-01  2.000E+01  2.000E+04 -5.177E-03
   1   15   26     3     5    1.7328E+05  3.6288E+01   1.7325E+05  0.000E+00  0.000E+00  0.000E+00  3.41669E+01  1.669E-01  2.000E+01  2.000E+04  1.814E-03
   1   16   27     3     6    1.7325E+05  2.7760E+02   1.7297E+05  0.000E+00  0.000E+00  0.000E+00  3.32779E+01  1.668E-01  2.000E+01  2.000E+04  1.388E-02
   1   17   28     3     7    1.7297E+05  2.8510E+03   1.7012E+05  0.000E+00  0.000E+00  0.000E+00  3.23882E+01  1.659E-01  2.000E+01  2.000E+04  1.426E-01
   1   18   29     3     8    1.7012E+05  2.4061E+03   1.6771E+05  0.000E+00  0.000E+00  0.000E+00  3.14977E+01  1.644E-01  2.000E+01  2.000E+04  1.203E-01
   1   18   30     3     9    1.6771E+05 -3.4507E+02   1.6806E+05  0.000E+00  0.000E+00  0.000E+00  3.06082E+01  1.638E-01  2.000E+01  2.000E+04 -1.725E-02



1
              HEAD IN LAYER   1 AT END OF TIME STEP   1 IN STRESS PERIOD   11
  ---------------------------------------------------------------------------

          1      2      3      4      5      6      7      8      9     10
         11     12     13     14     15     16     17     18     19     20
         21     22     23     24     25     26     27     28     29     30
 .........................................................................
   1  ****** ****** ****** ****** ****** ****** ****** ****** ****** ******
      ****** ****** ****** ****** ****** ****** ****** ****** ****** ******
      ****** ****** ****** ****** ****** ****** ****** ****** ****** ******
   2  ****** ****** ****** ****** ****** ****** ****** ****** ****** ******
      ****** ****** ****** ****** ****** ****** ****** ****** ****** ******
      ****** ****** ****** ****** ****** ****** ****** ****** ****** ******
   3  ****** ****** ****** ****** ****** ****** ****** ****** ****** ******
      ****** ****** ****** ****** ****** ****** ****** ****** ****** ******
      ****** ****** ****** ****** ****** ****** ****** ****** ****** ******
   4  ****** ****** ****** ****** ****** ****** ****** ****** ****** ******
      ****** ****** ****** ****** ****** ****** ****** ****** ****** ******
      ****** ****** ****** ****** ****** ****** ****** ****** ****** ******
   5  ****** ****** ****** ****** ****** ****** ****** ****** ****** ******
      ****** ****** ****** ****** ****** ****** ****** ****** ****** ******
      ****** ****** ****** ****** ****** ****** ****** ****** ****** ******
   6  ****** ****** ****** ****** ****** ****** ****** ****** ****** ******
      ****** ****** ****** ****** ****** ****** ****** ****** ****** ******
      ****** ****** ****** ****** ****** ****** ****** ****** ****** ******
   7  ****** ****** ****** ****** ****** ****** ****** ****** ****** ******
      ****** ****** ****** ****** ****** ****** ****** ****** ****** ******
      ****** ****** ****** ****** ****** ****** ****** ****** ****** ******
   8  ****** ****** ****** ****** ****** ****** ****** ****** ****** ******
      ****** ****** ****** ****** ****** ****** ****** ****** ****** ******
      ****** ****** ****** ****** ****** ****** ****** ****** ****** ******
   9  ****** ****** ****** ****** ****** ****** ****** ****** ****** ******
      ****** ****** ****** ****** ****** ****** ****** ****** ****** ******
      ****** ****** ****** ****** ****** ****** ****** ****** ****** ******
  10  ****** ****** ****** ****** ****** ****** ****** ****** ****** ******
      ****** ****** ****** ****** ****** ****** ****** ****** ****** ******
      ****** ****** ****** ****** ****** ****** ****** ****** ****** ******
  11  ****** ****** ****** ****** ****** ****** ****** ****** ****** ******
      ****** ****** ****** ****** ****** ****** ****** ****** ****** ******
      ****** ****** ****** ****** ****** ****** ****** ****** ****** ******
  12  ****** ****** ****** ****** ****** ****** ****** ****** ****** ******
      ****** ****** ****** ****** ****** ****** ****** ****** ****** ******
      ****** ****** ****** ****** ****** ****** ****** ****** ****** ******
  13  ****** ****** ****** ****** ****** ****** ****** ****** ****** ******
      ****** ****** ****** ****** ****** ****** ****** ****** ****** ******
      ****** ****** ****** ****** ****** ****** ****** ****** ****** ******
  14  ****** ****** ****** ****** ****** ****** ****** ****** ****** ******
      ****** ****** ****** ****** ****** ****** ****** ****** ****** ******
      ****** ****** ****** ****** ****** ****** ****** ****** ****** ******
  15  ****** ****** ****** ****** ****** ****** ****** ****** ****** ******
      ****** ****** ****** ****** ****** ****** ****** ****** ****** ******
      ****** ****** ****** ****** ****** ****** ****** ****** ****** ******
  16  ****** ****** ****** ****** ****** ****** ****** ****** ****** ******
      ****** ****** ****** ****** ****** ****** ****** ****** ****** ******
      ****** ****** ****** ****** ****** ****** ****** ****** ****** ******
  17  ****** ****** ****** ****** ****** ****** ****** ****** ****** ******
      ****** ****** ****** ****** ****** ****** ****** ****** ****** ******
      ****** ****** ****** ****** ****** ****** ****** ****** ****** ******
  18  ****** ****** ****** ****** ****** ****** ****** ****** ****** ******
      ****** ****** ****** ****** ****** ****** ****** ****** ****** ******
      ****** ****** ****** ****** ****** ****** ****** ****** ****** ******
  19  ****** ****** ****** ****** ****** ****** ****** ****** ****** ******
      ****** ****** ****** ****** ****** ****** ****** ****** ****** ******
      ****** ****** ****** ****** ****** ****** ****** ****** ****** ******
  20  ****** ****** ****** ****** ****** ****** ****** ****** ****** ******
      ****** ****** ****** ****** ****** ****** ****** ****** ****** ******
      ****** ****** ****** ****** ****** ****** ****** ****** ****** ******
  21  ****** ****** ****** ****** ****** ****** ****** ****** ****** ******
      ****** ****** ****** ****** ****** ****** ****** ****** ****** ******
      ****** ****** ****** ****** ****** ****** ****** ****** ****** ******
  22  ****** ****** ****** ****** ****** ****** ****** ****** ****** ******
      ****** ****** ****** ****** ****** ****** ****** ****** ****** ******
      ****** ****** ****** ****** ****** ****** ****** ****** ****** ******
  23  ****** ****** ****** ****** ****** ****** ****** ****** ****** ******
      ****** ****** ****** ****** ****** ****** ****** ****** ****** ******
      ****** ****** ****** ****** ****** ****** ****** ****** ****** ******
  24  ****** ****** ****** ****** ****** ****** ****** ****** ****** ******
      ****** ****** ****** ****** ****** ****** ****** ****** ****** ******
      ****** ****** ****** ****** ****** ****** ****** ****** ****** ******
  25  ****** ****** ****** ****** ****** ****** ****** ****** ****** ******
      ****** ****** ****** ****** ****** ****** ****** ****** ****** ******
      ****** ****** ****** ****** ****** ****** ****** ****** ****** ******

 HEAD WILL BE SAVED ON UNIT   51 AT END OF TIME STEP    1, STRESS PERIOD   11
1
  VOLUMETRIC BUDGET FOR ENTIRE MODEL AT END OF TIME STEP    1, STRESS PERIOD  11
  ------------------------------------------------------------------------------

     CUMULATIVE VOLUMES      L**3       RATES FOR THIS TIME STEP      L**3/T
     ------------------                 ------------------------

           IN:                                      IN:
           ---                                      ---
             STORAGE =    35364993.8409               STORAGE =       17856.9408
       CONSTANT HEAD =    28103043.8710         CONSTANT HEAD =       34183.4799
               WELLS =           0.0000                 WELLS =           0.0000
            RECHARGE =    23901600.0000              RECHARGE =           0.0000
      STREAM LEAKAGE =    10798776.4762        STREAM LEAKAGE =       13896.5256

            TOTAL IN =    98168414.1881              TOTAL IN =       65936.9463

          OUT:                                     OUT:
          ----                                     ----
             STORAGE =     2397232.9054               STORAGE =           0.0000
       CONSTANT HEAD =           0.0000         CONSTANT HEAD =           0.0000
               WELLS =    34118420.8323                 WELLS =       33982.4909
            RECHARGE =           0.0000              RECHARGE =           0.0000
      STREAM LEAKAGE =    61652762.3807        STREAM LEAKAGE =       31954.4602

           TOTAL OUT =    98168416.1184             TOTAL OUT =       65936.9510

            IN - OUT =          -1.9303              IN - OUT =      -4.7689E-03

 PERCENT DISCREPANCY =          -0.00     PERCENT DISCREPANCY =          -0.00






         TIME SUMMARY AT END OF TIME STEP    1 IN STRESS PERIOD   11
                    SECONDS     MINUTES      HOURS       DAYS        YEARS
                    -----------------------------------------------------------
   TIME STEP LENGTH 7.86240E+06 1.31040E+05  2184.0      91.000     0.24914    
 STRESS PERIOD TIME 7.86240E+06 1.31040E+05  2184.0      91.000     0.24914    
         TOTAL TIME 8.67456E+07 1.44576E+06  24096.      1004.0      2.7488    
1
1
                            STRESS PERIOD NO.   12, LENGTH =   91.00000    
                            -----------------------------------------------

                              NUMBER OF TIME STEPS =     1

                               MULTIPLIER FOR DELT =     1.500

                            INITIAL TIME STEP SIZE =   91.00000    

 WELL NO.  LAYER   ROW   COL   STRESS RATE         
 --------------------------------------------------
      1      1     14      6       0.000    
      2      1      3      9       0.000    
      3      1     20     10       0.000    
      4      1     14     20       0.000    
      5      1     18     15      -8387.    
      6      1     17     18      -8258.    
      7      1     14     29      -8048.    
      8      1     19     28      -9288.    

      8 WELLS

                 RECHARGE =  1.000000E-03

 REUSING STREAM SEGMENT DATA FROM LAST STRESS PERIOD
 
 SOLVING FOR HEAD 


     7 CALLS TO PCG ROUTINE FOR TIME STEP   1 IN STRESS PERIOD   12
    24 TOTAL ITERATIONS

 OUTPUT CONTROL FOR STRESS PERIOD   12   TIME STEP    1
    SAVE BUDGET
    SAVE HEAD FOR ALL LAYERS
    PRINT HEAD FOR ALL LAYERS
 UBDSV2 SAVING "STREAMFLOW OUT  " ON UNIT  50 AT TIME STEP  1, STRESS PERIOD  12



 STREAM LISTING     PERIOD     12   STEP        1

 LAYER ROW COL. STREAM  RCH.  FLOW INTO     FLOW TO   FLOW OUT OF   OVRLND.     DIRECT     STREAM       STREAM     STREAM     STREAM   STREAMBED  STREAMBED
                SEG.NO.  NO.  STRM. RCH.    AQUIFER    STRM. RCH.    RUNOFF     PRECIP       ET          HEAD       DEPTH      WIDTH   CONDCTNC.   GRADIENT

   1   13    1     1     1    1.0000E+05 -1.6982E+03   1.0170E+05  0.000E+00  0.000E+00  0.000E+00  4.84068E+01  1.454E-01  2.000E+01  2.000E+04 -8.491E-02
   1   13    2     1     2    1.0170E+05 -2.6445E+03   1.0434E+05  0.000E+00  0.000E+00  0.000E+00  4.79313E+01  1.473E-01  2.000E+01  2.000E+04 -1.322E-01
   1   14    3     1     3    1.0434E+05 -4.3528E+02   1.0478E+05  0.000E+00  0.000E+00  0.000E+00  4.74554E+01  1.486E-01  2.000E+01  2.000E+04 -2.176E-02
   1   15    4     1     4    1.0478E+05 -4.0163E+02   1.0518E+05  0.000E+00  0.000E+00  0.000E+00  4.69785E+01  1.489E-01  2.000E+01  2.000E+04 -2.008E-02
   1   16    5     1     5    1.0518E+05 -1.4108E+03   1.0659E+05  0.000E+00  0.000E+00  0.000E+00  4.65020E+01  1.497E-01  2.000E+01  2.000E+04 -7.054E-02
   1   16    6     1     6    1.0659E+05 -8.7748E+02   1.0747E+05  0.000E+00  0.000E+00  0.000E+00  4.60257E+01  1.507E-01  2.000E+01  2.000E+04 -4.387E-02
   1   16    7     1     7    1.0747E+05 -8.2998E+02   1.0830E+05  0.000E+00  0.000E+00  0.000E+00  4.55491E+01  1.514E-01  2.000E+01  2.000E+04 -4.150E-02
   1   16    8     1     8    1.0830E+05 -7.7757E+02   1.0908E+05  0.000E+00  0.000E+00  0.000E+00  4.50725E+01  1.521E-01  2.000E+01  2.000E+04 -3.888E-02
   1   16    9     1     9    1.0908E+05 -6.9664E+02   1.0977E+05  0.000E+00  0.000E+00  0.000E+00  4.45959E+01  1.527E-01  2.000E+01  2.000E+04 -3.483E-02
   1   16   10     1    10    1.0977E+05 -5.6947E+02   1.1034E+05  0.000E+00  0.000E+00  0.000E+00  4.41191E+01  1.532E-01  2.000E+01  2.000E+04 -2.847E-02
   1   16   11     1    11    1.1034E+05 -3.5971E+02   1.1070E+05  0.000E+00  0.000E+00  0.000E+00  4.36422E+01  1.536E-01  2.000E+01  2.000E+04 -1.799E-02
   1   16   12     1    12    1.1070E+05  8.1628E+01   1.1062E+05  0.000E+00  0.000E+00  0.000E+00  4.31651E+01  1.537E-01  2.000E+01  2.000E+04  4.081E-03
   1   15   13     1    13    1.1062E+05  1.3461E+01   1.1061E+05  0.000E+00  0.000E+00  0.000E+00  4.26878E+01  1.537E-01  2.000E+01  2.000E+04  6.731E-04
   1   14   14     1    14    1.1061E+05 -4.9782E+02   1.1110E+05  0.000E+00  0.000E+00  0.000E+00  4.22107E+01  1.539E-01  2.000E+01  2.000E+04 -2.489E-02
   1   13   15     1    15    1.1110E+05 -1.1946E+03   1.1230E+05  0.000E+00  0.000E+00  0.000E+00  4.17341E+01  1.546E-01  2.000E+01  2.000E+04 -5.973E-02
   1   12   16     1    16    1.1230E+05 -2.4417E+03   1.1474E+05  0.000E+00  0.000E+00  0.000E+00  4.12584E+01  1.561E-01  2.000E+01  2.000E+04 -1.221E-01
   1   12   17     1    17    1.1474E+05 -1.3310E+03   1.1607E+05  0.000E+00  0.000E+00  0.000E+00  4.07826E+01  1.576E-01  2.000E+01  2.000E+04 -6.655E-02
   1   12   18     1    18    1.1607E+05 -1.2502E+03   1.1732E+05  0.000E+00  0.000E+00  0.000E+00  4.03064E+01  1.587E-01  2.000E+01  2.000E+04 -6.251E-02
   1   12   19     1    19    1.1732E+05 -1.9553E+03   1.1928E+05  0.000E+00  0.000E+00  0.000E+00  3.98305E+01  1.600E-01  2.000E+01  2.000E+04 -9.777E-02
   1   13   20     1    20    1.1928E+05 -7.4716E+02   1.2002E+05  0.000E+00  0.000E+00  0.000E+00  3.93543E+01  1.611E-01  2.000E+01  2.000E+04 -3.736E-02
   1   14   21     1    21    1.2002E+05  4.3388E+01   1.1998E+05  0.000E+00  0.000E+00  0.000E+00  3.88773E+01  1.614E-01  2.000E+01  2.000E+04  2.169E-03
   1   14   22     1    22    1.1998E+05  5.1044E+03   1.1488E+05  0.000E+00  0.000E+00  0.000E+00  3.83979E+01  1.593E-01  2.000E+01  2.000E+04  2.552E-01
   1    9   30     2     1    5.0000E+04  5.4289E+01   4.9946E+04  0.000E+00  0.000E+00  0.000E+00  4.02408E+01  1.158E-01  2.000E+01  2.000E+04  2.714E-03
   1    9   29     2     2    4.9946E+04 -3.0439E+02   5.0250E+04  0.000E+00  0.000E+00  0.000E+00  3.99910E+01  1.160E-01  2.000E+01  2.000E+04 -1.522E-02
   1    9   28     2     3    5.0250E+04 -6.9223E+02   5.0942E+04  0.000E+00  0.000E+00  0.000E+00  3.97417E+01  1.167E-01  2.000E+01  2.000E+04 -3.461E-02
   1    9   27     2     4    5.0942E+04 -2.1477E+03   5.3090E+04  0.000E+00  0.000E+00  0.000E+00  3.94936E+01  1.186E-01  2.000E+01  2.000E+04 -1.074E-01
   1   10   26     2     5    5.3090E+04 -1.0716E+03   5.4162E+04  0.000E+00  0.000E+00  0.000E+00  3.92458E+01  1.208E-01  2.000E+01  2.000E+04 -5.358E-02
   1   11   25     2     6    5.4162E+04 -9.8733E+02   5.5149E+04  0.000E+00  0.000E+00  0.000E+00  3.89972E+01  1.222E-01  2.000E+01  2.000E+04 -4.937E-02
   1   12   24     2     7    5.5149E+04 -1.3453E+03   5.6494E+04  0.000E+00  0.000E+00  0.000E+00  3.87488E+01  1.238E-01  2.000E+01  2.000E+04 -6.727E-02
   1   13   23     2     8    5.6494E+04 -2.5348E+02   5.6748E+04  0.000E+00  0.000E+00  0.000E+00  3.84998E+01  1.248E-01  2.000E+01  2.000E+04 -1.267E-02
   1   14   22     2     9    5.6748E+04  2.1180E+03   5.4630E+04  0.000E+00  0.000E+00  0.000E+00  3.82486E+01  1.236E-01  2.000E+01  2.000E+04  1.059E-01
   1   14   22     3     1    1.6951E+05 -8.3994E+03   1.7791E+05  0.000E+00  0.000E+00  0.000E+00  3.77227E+01  1.672E-01  2.000E+01  2.000E+04 -4.200E-01
   1   15   23     3     2    1.7791E+05 -2.5511E+02   1.7816E+05  0.000E+00  0.000E+00  0.000E+00  3.68363E+01  1.697E-01  2.000E+01  2.000E+04 -1.276E-02
   1   15   24     3     3    1.7816E+05 -1.7988E+02   1.7834E+05  0.000E+00  0.000E+00  0.000E+00  3.59476E+01  1.698E-01  2.000E+01  2.000E+04 -8.994E-03
   1   15   25     3     4    1.7834E+05 -1.6984E+02   1.7851E+05  0.000E+00  0.000E+00  0.000E+00  3.50588E+01  1.699E-01  2.000E+01  2.000E+04 -8.492E-03
   1   15   26     3     5    1.7851E+05 -4.1166E+01   1.7855E+05  0.000E+00  0.000E+00  0.000E+00  3.41700E+01  1.700E-01  2.000E+01  2.000E+04 -2.058E-03
   1   16   27     3     6    1.7855E+05  1.9087E+02   1.7836E+05  0.000E+00  0.000E+00  0.000E+00  3.32810E+01  1.699E-01  2.000E+01  2.000E+04  9.544E-03
   1   17   28     3     7    1.7836E+05  2.6305E+03   1.7573E+05  0.000E+00  0.000E+00  0.000E+00  3.23913E+01  1.691E-01  2.000E+01  2.000E+04  1.315E-01
   1   18   29     3     8    1.7573E+05  2.2060E+03   1.7352E+05  0.000E+00  0.000E+00  0.000E+00  3.15010E+01  1.677E-01  2.000E+01  2.000E+04  1.103E-01
   1   18   30     3     9    1.7352E+05 -5.1289E+02   1.7404E+05  0.000E+00  0.000E+00  0.000E+00  3.06117E+01  1.672E-01  2.000E+01  2.000E+04 -2.564E-02



1
              HEAD IN LAYER   1 AT END OF TIME STEP   1 IN STRESS PERIOD   12
  ---------------------------------------------------------------------------

          1      2      3      4      5      6      7      8      9     10
         11     12     13     14     15     16     17     18     19     20
         21     22     23     24     25     26     27     28     29     30
 .........................................................................
   1  ****** ****** ****** ****** ****** ****** ****** ****** ****** ******
      ****** ****** ****** ****** ****** ****** ****** ****** ****** ******
      ****** ****** ****** ****** ****** ****** ****** ****** ****** ******
   2  ****** ****** ****** ****** ****** ****** ****** ****** ****** ******
      ****** ****** ****** ****** ****** ****** ****** ****** ****** ******
      ****** ****** ****** ****** ****** ****** ****** ****** ****** ******
   3  ****** ****** ****** ****** ****** ****** ****** ****** ****** ******
      ****** ****** ****** ****** ****** ****** ****** ****** ****** ******
      ****** ****** ****** ****** ****** ****** ****** ****** ****** ******
   4  ****** ****** ****** ****** ****** ****** ****** ****** ****** ******
      ****** ****** ****** ****** ****** ****** ****** ****** ****** ******
      ****** ****** ****** ****** ****** ****** ****** ****** ****** ******
   5  ****** ****** ****** ****** ****** ****** ****** ****** ****** ******
      ****** ****** ****** ****** ****** ****** ****** ****** ****** ******
      ****** ****** ****** ****** ****** ****** ****** ****** ****** ******
   6  ****** ****** ****** ****** ****** ****** ****** ****** ****** ******
      ****** ****** ****** ****** ****** ****** ****** ****** ****** ******
      ****** ****** ****** ****** ****** ****** ****** ****** ****** ******
   7  ****** ****** ****** ****** ****** ****** ****** ****** ****** ******
      ****** ****** ****** ****** ****** ****** ****** ****** ****** ******
      ****** ****** ****** ****** ****** ****** ****** ****** ****** ******
   8  ****** ****** ****** ****** ****** ****** ****** ****** ****** ******
      ****** ****** ****** ****** ****** ****** ****** ****** ****** ******
      ****** ****** ****** ****** ****** ****** ****** ****** ****** ******
   9  ****** ****** ****** ****** ****** ****** ****** ****** ****** ******
      ****** ****** ****** ****** ****** ****** ****** ****** ****** ******
      ****** ****** ****** ****** ****** ****** ****** ****** ****** ******
  10  ****** ****** ****** ****** ****** ****** ****** ****** ****** ******
      ****** ****** ****** ****** ****** ****** ****** ****** ****** ******
      ****** ****** ****** ****** ****** ****** ****** ****** ****** ******
  11  ****** ****** ****** ****** ****** ****** ****** ****** ****** ******
      ****** ****** ****** ****** ****** ****** ****** ****** ****** ******
      ****** ****** ****** ****** ****** ****** ****** ****** ****** ******
  12  ****** ****** ****** ****** ****** ****** ****** ****** ****** ******
      ****** ****** ****** ****** ****** ****** ****** ****** ****** ******
      ****** ****** ****** ****** ****** ****** ****** ****** ****** ******
  13  ****** ****** ****** ****** ****** ****** ****** ****** ****** ******
      ****** ****** ****** ****** ****** ****** ****** ****** ****** ******
      ****** ****** ****** ****** ****** ****** ****** ****** ****** ******
  14  ****** ****** ****** ****** ****** ****** ****** ****** ****** ******
      ****** ****** ****** ****** ****** ****** ****** ****** ****** ******
      ****** ****** ****** ****** ****** ****** ****** ****** ****** ******
  15  ****** ****** ****** ****** ****** ****** ****** ****** ****** ******
      ****** ****** ****** ****** ****** ****** ****** ****** ****** ******
      ****** ****** ****** ****** ****** ****** ****** ****** ****** ******
  16  ****** ****** ****** ****** ****** ****** ****** ****** ****** ******
      ****** ****** ****** ****** ****** ****** ****** ****** ****** ******
      ****** ****** ****** ****** ****** ****** ****** ****** ****** ******
  17  ****** ****** ****** ****** ****** ****** ****** ****** ****** ******
      ****** ****** ****** ****** ****** ****** ****** ****** ****** ******
      ****** ****** ****** ****** ****** ****** ****** ****** ****** ******
  18  ****** ****** ****** ****** ****** ****** ****** ****** ****** ******
      ****** ****** ****** ****** ****** ****** ****** ****** ****** ******
      ****** ****** ****** ****** ****** ****** ****** ****** ****** ******
  19  ****** ****** ****** ****** ****** ****** ****** ****** ****** ******
      ****** ****** ****** ****** ****** ****** ****** ****** ****** ******
      ****** ****** ****** ****** ****** ****** ****** ****** ****** ******
  20  ****** ****** ****** ****** ****** ****** ****** ****** ****** ******
      ****** ****** ****** ****** ****** ****** ****** ****** ****** ******
      ****** ****** ****** ****** ****** ****** ****** ****** ****** ******
  21  ****** ****** ****** ****** ****** ****** ****** ****** ****** ******
      ****** ****** ****** ****** ****** ****** ****** ****** ****** ******
      ****** ****** ****** ****** ****** ****** ****** ****** ****** ******
  22  ****** ****** ****** ****** ****** ****** ****** ****** ****** ******
      ****** ****** ****** ****** ****** ****** ****** ****** ****** ******
      ****** ****** ****** ****** ****** ****** ****** ****** ****** ******
  23  ****** ****** ****** ****** ****** ****** ****** ****** ****** ******
      ****** ****** ****** ****** ****** ****** ****** ****** ****** ******
      ****** ****** ****** ****** ****** ****** ****** ****** ****** ******
  24  ****** ****** ****** ****** ****** ****** ****** ****** ****** ******
      ****** ****** ****** ****** ****** ****** ****** ****** ****** ******
      ****** ****** ****** ****** ****** ****** ****** ****** ****** ******
  25  ****** ****** ****** ****** ****** ****** ****** ****** ****** ******
      ****** ****** ****** ****** ****** ****** ****** ****** ****** ******
      ****** ****** ****** ****** ****** ****** ****** ****** ****** ******

 HEAD WILL BE SAVED ON UNIT   51 AT END OF TIME STEP    1, STRESS PERIOD   12
1
  VOLUMETRIC BUDGET FOR ENTIRE MODEL AT END OF TIME STEP    1, STRESS PERIOD  12
  ------------------------------------------------------------------------------

     CUMULATIVE VOLUMES      L**3       RATES FOR THIS TIME STEP      L**3/T
     ------------------                 ------------------------

           IN:                                      IN:
           ---                                      ---
             STORAGE =    35365434.7090               STORAGE =           4.8447
       CONSTANT HEAD =    31149822.7201         CONSTANT HEAD =       33481.0863
               WELLS =           0.0000                 WELLS =           0.0000
            RECHARGE =    26413200.0000              RECHARGE =       27600.0000
      STREAM LEAKAGE =    11931044.8848        STREAM LEAKAGE =       12442.5100

            TOTAL IN =   104859502.3139              TOTAL IN =       73528.4409

          OUT:                                     OUT:
          ----                                     ----
             STORAGE =     2676291.0351               STORAGE =        3066.5729
       CONSTANT HEAD =           0.0000         CONSTANT HEAD =           0.0000
               WELLS =    37210827.5014                 WELLS =       33982.4909
            RECHARGE =           0.0000              RECHARGE =           0.0000
      STREAM LEAKAGE =    64972385.6200        STREAM LEAKAGE =       36479.3763

           TOTAL OUT =   104859504.1565             TOTAL OUT =       73528.4400

            IN - OUT =          -1.8426              IN - OUT =       9.6400E-04

 PERCENT DISCREPANCY =          -0.00     PERCENT DISCREPANCY =           0.00






         TIME SUMMARY AT END OF TIME STEP    1 IN STRESS PERIOD   12
                    SECONDS     MINUTES      HOURS       DAYS        YEARS
                    -----------------------------------------------------------
   TIME STEP LENGTH 7.86240E+06 1.31040E+05  2184.0      91.000     0.24914    
 STRESS PERIOD TIME 7.86240E+06 1.31040E+05  2184.0      91.000     0.24914    
         TOTAL TIME 9.46080E+07 1.57680E+06  26280.      1095.0      2.9979    
1

 Run end date and time (yyyy/mm/dd hh:mm:ss): 2018/10/14 14:55:16
 Elapsed run time:  0.071 Seconds

