                                  MODFLOW-2005     
      U.S. GEOLOGICAL SURVEY MODULAR FINITE-DIFFERENCE GROUND-WATER FLOW MODEL
                            VERSION 1.11.00 8/8/2013

 LIST FILE: supply2.lst
                         UNIT   10

 OPENING ..\data\supply.dis
 FILE TYPE:DIS   UNIT   11   STATUS:OLD    
 FORMAT:FORMATTED              ACCESS:SEQUENTIAL          

 OPENING ..\data\supply.ba6
 FILE TYPE:BAS6   UNIT   12   STATUS:OLD    
 FORMAT:FORMATTED              ACCESS:SEQUENTIAL          

 OPENING ..\data\supply_het.bc6
 FILE TYPE:BCF6   UNIT   13   STATUS:OLD    
 FORMAT:FORMATTED              ACCESS:SEQUENTIAL          

 OPENING ..\data\supply.rch
 FILE TYPE:RCH   UNIT   15   STATUS:OLD    
 FORMAT:FORMATTED              ACCESS:SEQUENTIAL          

 OPENING ..\data\supply2.sfr
 FILE TYPE:SFR   UNIT   16   STATUS:OLD    
 FORMAT:FORMATTED              ACCESS:SEQUENTIAL          

 OPENING ..\data\supply.oc
 FILE TYPE:OC   UNIT   17   STATUS:OLD    
 FORMAT:FORMATTED              ACCESS:SEQUENTIAL          

 OPENING ..\data\supply.pcg
 FILE TYPE:PCG   UNIT   18   STATUS:OLD    
 FORMAT:FORMATTED              ACCESS:SEQUENTIAL          

 OPENING supply2.wel
 FILE TYPE:WEL   UNIT   19   STATUS:OLD    
 FORMAT:FORMATTED              ACCESS:SEQUENTIAL          

 OPENING supply2sf.cbc
 FILE TYPE:DATA(BINARY)   UNIT   50   STATUS:UNKNOWN
 FORMAT:BINARY                 ACCESS:SEQUENTIAL          

 OPENING supply2hd.bhd
 FILE TYPE:DATA(BINARY)   UNIT   51   STATUS:UNKNOWN
 FORMAT:BINARY                 ACCESS:SEQUENTIAL          

 BAS -- BASIC PACKAGE, VERSION 7, 5/2/2005 INPUT READ FROM UNIT   12
 
 MODFLOW was compiled using uniform precision
 Precision of REAL and DOUBLE PRECISION variables:          15

 DISCRETIZATION INPUT DATA READ FROM UNIT   11
    1 LAYERS        25 ROWS        30 COLUMNS
   12 STRESS PERIOD(S) IN SIMULATION
 MODEL TIME UNIT IS DAYS
 MODEL LENGTH UNIT IS UNDEFINED
  Confining bed flag for each layer:
   0

                     DELR =   200.000    

                     DELC =   200.000    

 TOP ELEVATION OF LAYER 1 =  100.0000    

   MODEL LAYER BOTTOM EL. =   0.00000     FOR LAYER   1


 STRESS PERIOD     LENGTH       TIME STEPS     MULTIPLIER FOR DELT    SS FLAG
 ----------------------------------------------------------------------------
        1         92.00000          1                    1.500         TR
        2         91.00000          1                    1.500         TR
        3         91.00000          1                    1.500         TR
        4         91.00000          1                    1.500         TR
        5         92.00000          1                    1.500         TR
        6         91.00000          1                    1.500         TR
        7         91.00000          1                    1.500         TR
        8         91.00000          1                    1.500         TR
        9         92.00000          1                    1.500         TR
       10         91.00000          1                    1.500         TR
       11         91.00000          1                    1.500         TR
       12         91.00000          1                    1.500         TR

 TRANSIENT SIMULATION



 
 #MODOFC transient water supply sample problem                                   
 #                                                                               
 THE FREE FORMAT OPTION HAS BEEN SELECTED



                     BOUNDARY ARRAY FOR LAYER   1
 READING ON UNIT   12 WITH FORMAT: (20I4)              

 AQUIFER HEAD WILL BE SET TO   0.0000     AT ALL NO-FLOW NODES (IBOUND=0).



                       INITIAL HEAD FOR LAYER   1
 READING ON UNIT   12 WITH FORMAT: (10F13.0)           

 OUTPUT CONTROL IS SPECIFIED ONLY AT TIME STEPS FOR WHICH OUTPUT IS DESIRED
 COMPACT CELL-BY-CELL BUDGET FILES WILL BE WRITTEN
 HEAD PRINT FORMAT CODE IS  18    DRAWDOWN PRINT FORMAT CODE IS   0
 HEADS WILL BE SAVED ON UNIT   51    DRAWDOWNS WILL BE SAVED ON UNIT    0

 BCF -- BLOCK-CENTERED FLOW PACKAGE, VERSION 7, 5/2/2005
         INPUT READ FROM UNIT 13
 TRANSIENT SIMULATION
 HEAD AT CELLS THAT CONVERT TO DRY=   0.0000    
 WETTING CAPABILITY IS NOT ACTIVE
      LAYER  LAYER-TYPE CODE     INTERBLOCK T
      --------------------------------------------
         1            0          0 -- HARMONIC    

 COLUMN TO ROW ANISOTROPY =  1.000000    

     PRIMARY STORAGE COEF =  5.000000E-02 FOR LAYER   1



               TRANSMIS. ALONG ROWS FOR LAYER   1
 READING ON UNIT   13 WITH FORMAT: (FREE)              

 WEL -- WELL PACKAGE, VERSION 7, 5/2/2005 INPUT READ FROM UNIT   19
 # Well package input file written by MMProc
 No named parameters
 MAXIMUM OF      8 ACTIVE WELLS AT ONE TIME


     0 Well parameters

 RCH -- RECHARGE PACKAGE, VERSION 7, 5/2/2005 INPUT READ FROM UNIT   15
 No named parameters
 OPTION 1 -- RECHARGE TO TOP LAYER


     0 Recharge parameters

 SFR7 -- STREAMFLOW ROUTING PACKAGE, VERSION 1.0.7, 2013-01-15
         INPUT READ FROM UNIT  16
 #  Supply2 test problem for GWM-VI
 #  The eighth entry in the first data line is ISTCB2 -
 #    Setting this to a negative number indicates that
 #    streamflows out of the reach will be saved to a
 #    binary file.  The absolute value of ISTCB2 is the
 #    unit to which unformatted flows will be written.
 #
 No named parameters
 Segment information will not be 
 read by reach
 No named parameters
 No specifed inflow files


 NUMBER OF STREAM REACHES IS   40

 NUMBER OF STREAM SEGMENTS IS    3

 NUMBER OF STREAM PARAMETERS IS    0

 NUMBER OF STREAM SEGMENTS DEFINED USING PARAMETERS IS              0

 MAXIMUM ERROR FOR STREAM LEAKAGE RATES IS  1.00E-04

 CONSTANT FOR MANNINGS EQUATION IS  1.2839E+05





   STREAM NETWORK DESCRIPTION: 

   LAYER    ROW    COL   SEGMENT   REACH     LENGTH
                          NUMBER   NUMBER    IN CELL        
   --------------------------------------------------
      1     13      1       1        1    2.0000E+02
      1     13      2       1        2    2.0000E+02
      1     14      3       1        3    2.0000E+02
      1     15      4       1        4    2.0000E+02
      1     16      5       1        5    2.0000E+02
      1     16      6       1        6    2.0000E+02
      1     16      7       1        7    2.0000E+02
      1     16      8       1        8    2.0000E+02
      1     16      9       1        9    2.0000E+02
      1     16     10       1       10    2.0000E+02
      1     16     11       1       11    2.0000E+02
      1     16     12       1       12    2.0000E+02
      1     15     13       1       13    2.0000E+02
      1     14     14       1       14    2.0000E+02
      1     13     15       1       15    2.0000E+02
      1     12     16       1       16    2.0000E+02
      1     12     17       1       17    2.0000E+02
      1     12     18       1       18    2.0000E+02
      1     12     19       1       19    2.0000E+02
      1     13     20       1       20    2.0000E+02
      1     14     21       1       21    2.0000E+02
      1     14     22       1       22    2.0000E+02
      1      9     30       2        1    2.0000E+02
      1      9     29       2        2    2.0000E+02
      1      9     28       2        3    2.0000E+02
      1      9     27       2        4    2.0000E+02
      1     10     26       2        5    2.0000E+02
      1     11     25       2        6    2.0000E+02
      1     12     24       2        7    2.0000E+02
      1     13     23       2        8    2.0000E+02
      1     14     22       2        9    2.0000E+02
      1     14     22       3        1    2.0000E+02
      1     15     23       3        2    2.0000E+02
      1     15     24       3        3    2.0000E+02
      1     15     25       3        4    2.0000E+02
      1     15     26       3        5    2.0000E+02
      1     16     27       3        6    2.0000E+02
      1     17     28       3        7    2.0000E+02
      1     18     29       3        8    2.0000E+02
      1     18     30       3        9    2.0000E+02




 PCG -- CONJUGATE-GRADIENT SOLUTION PACKAGE, VERSION 7, 5/2/2005
 MAXIMUM OF    500 CALLS OF SOLUTION ROUTINE
 MAXIMUM OF      5 INTERNAL ITERATIONS PER CALL TO SOLUTION ROUTINE
 MATRIX PRECONDITIONING TYPE :    1



                                    SOLUTION BY THE CONJUGATE-GRADIENT METHOD
                                   -------------------------------------------
                    MAXIMUM NUMBER OF CALLS TO PCG ROUTINE =      500
                        MAXIMUM ITERATIONS PER CALL TO PCG =        5
                               MATRIX PRECONDITIONING TYPE =        1
        RELAXATION FACTOR (ONLY USED WITH PRECOND. TYPE 1) =    0.10000E+01
 PARAMETER OF POLYNOMIAL PRECOND. = 2 (2) OR IS CALCULATED :        0
                         HEAD CHANGE CRITERION FOR CLOSURE =    0.10000E-05
                     RESIDUAL CHANGE CRITERION FOR CLOSURE =    0.10000E+01
            PCG HEAD AND RESIDUAL CHANGE PRINTOUT INTERVAL =        1
     PRINTING FROM SOLVER IS LIMITED(1) OR SUPPRESSED (>1) =        1
                            STEADY-STATE DAMPING PARAMETER =    0.10000E+01
                               TRANSIENT DAMPING PARAMETER =    0.10000E+01
1
                            STRESS PERIOD NO.    1, LENGTH =   92.00000    
                            -----------------------------------------------

                              NUMBER OF TIME STEPS =     1

                               MULTIPLIER FOR DELT =     1.500

                            INITIAL TIME STEP SIZE =   92.00000    

 WELL NO.  LAYER   ROW   COL   STRESS RATE         
 --------------------------------------------------
      1      1     14      6       0.000    
      2      1      3      9       0.000    
      3      1     20     10       0.000    
      4      1     14     20       0.000    
      5      1     22     27      -6314.    
      6      1     16     14     -0.1197E+05
      7      1     11      6      -1537.    
      8      1     17     21      -8632.    

      8 WELLS

                 RECHARGE =  5.000000E-04



 CLASSIFICATION & COUNT OF STREAM SEGMENTS BASED ON SOURCE OF INFLOW:

                HEADWATER     DIVERSION     RECEIVES TRIBUTARY FLOW
                ---------     ---------     -----------------------
                     2              0               1



                    INPUT DATA FOR EACH STREAM SEGMENT
 ---------------------------------------------------------------------------------------------

 SEGMENT    SEG.     INFLOW   OVERLAND   STREAM    STREAM   ICALC  OUTFLOW  DIVERSION PRIORITY
    NO.    LENGTH     RATE     RUNOFF      ET       PPT.    METH.  TO SEG.  FROM SEG.    NO.

      1  4.400E+03 1.000E+05 0.000E+00 0.000E+00 0.000E+00    1        3        0        0
      2  1.800E+03 5.000E+04 0.000E+00 0.000E+00 0.000E+00    1        3        0        0
      3  1.800E+03 0.000E+00 0.000E+00 0.000E+00 0.000E+00    1        0        0        0


         STREAMBED PROPERTIES AND STREAM DIMENSIONS

 SEGMENT     BED HYD. COND.      BED THICKNESS     ELEV.-TOP OF BED     WIDTH OF STREAM     DEPTH OF STREAM    STREAM ROUGHNESS
    No.     UPPER     LOWER     UPPER     LOWER     UPPER     LOWER     UPPER     LOWER     UPPER     LOWER   CHANNEL      BANK

     1  5.000E+00 5.000E+00 1.000E+00 1.000E+00 4.850E+01 3.800E+01 2.000E+01 2.000E+01                     5.000E-02
     2  5.000E+00 5.000E+00 1.000E+00 1.000E+00 4.025E+01 3.800E+01 2.000E+01 2.000E+01                     5.000E-02
     3  5.000E+00 5.000E+00 1.000E+00 1.000E+00 3.800E+01 3.000E+01 2.000E+01 2.000E+01                     5.000E-02



 
 SOLVING FOR HEAD 


     9 CALLS TO PCG ROUTINE FOR TIME STEP   1 IN STRESS PERIOD    1
    36 TOTAL ITERATIONS

 OUTPUT CONTROL FOR STRESS PERIOD    1   TIME STEP    1
    SAVE BUDGET
    SAVE HEAD FOR ALL LAYERS
    PRINT HEAD FOR ALL LAYERS
 UBDSV2 SAVING "STREAMFLOW OUT  " ON UNIT  50 AT TIME STEP  1, STRESS PERIOD   1



 STREAM LISTING     PERIOD      1   STEP        1

 LAYER ROW COL. STREAM  RCH.  FLOW INTO     FLOW TO   FLOW OUT OF   OVRLND.     DIRECT     STREAM       STREAM     STREAM     STREAM   STREAMBED  STREAMBED
                SEG.NO.  NO.  STRM. RCH.    AQUIFER    STRM. RCH.    RUNOFF     PRECIP       ET          HEAD       DEPTH      WIDTH   CONDCTNC.   GRADIENT

   1   13    1     1     1    1.0000E+05 -6.0958E+03   1.0610E+05  0.000E+00  0.000E+00  0.000E+00  4.84086E+01  1.473E-01  2.000E+01  2.000E+04 -3.048E-01
   1   13    2     1     2    1.0610E+05 -7.5460E+03   1.1364E+05  0.000E+00  0.000E+00  0.000E+00  4.79371E+01  1.531E-01  2.000E+01  2.000E+04 -3.773E-01
   1   14    3     1     3    1.1364E+05 -2.1802E+03   1.1582E+05  0.000E+00  0.000E+00  0.000E+00  4.74639E+01  1.571E-01  2.000E+01  2.000E+04 -1.090E-01
   1   15    4     1     4    1.1582E+05 -2.2527E+03   1.1807E+05  0.000E+00  0.000E+00  0.000E+00  4.69884E+01  1.589E-01  2.000E+01  2.000E+04 -1.126E-01
   1   16    5     1     5    1.1807E+05 -7.1456E+03   1.2522E+05  0.000E+00  0.000E+00  0.000E+00  4.65150E+01  1.627E-01  2.000E+01  2.000E+04 -3.573E-01
   1   16    6     1     6    1.2522E+05 -4.2636E+03   1.2948E+05  0.000E+00  0.000E+00  0.000E+00  4.60422E+01  1.672E-01  2.000E+01  2.000E+04 -2.132E-01
   1   16    7     1     7    1.2948E+05 -4.0884E+03   1.3357E+05  0.000E+00  0.000E+00  0.000E+00  4.55682E+01  1.705E-01  2.000E+01  2.000E+04 -2.044E-01
   1   16    8     1     8    1.3357E+05 -4.0310E+03   1.3760E+05  0.000E+00  0.000E+00  0.000E+00  4.50941E+01  1.736E-01  2.000E+01  2.000E+04 -2.015E-01
   1   16    9     1     9    1.3760E+05 -3.9888E+03   1.4159E+05  0.000E+00  0.000E+00  0.000E+00  4.46199E+01  1.767E-01  2.000E+01  2.000E+04 -1.994E-01
   1   16   10     1    10    1.4159E+05 -3.9228E+03   1.4551E+05  0.000E+00  0.000E+00  0.000E+00  4.41456E+01  1.797E-01  2.000E+01  2.000E+04 -1.961E-01
   1   16   11     1    11    1.4551E+05 -3.7908E+03   1.4931E+05  0.000E+00  0.000E+00  0.000E+00  4.36712E+01  1.826E-01  2.000E+01  2.000E+04 -1.895E-01
   1   16   12     1    12    1.4931E+05 -4.9237E+03   1.5423E+05  0.000E+00  0.000E+00  0.000E+00  4.31972E+01  1.858E-01  2.000E+01  2.000E+04 -2.462E-01
   1   15   13     1    13    1.5423E+05 -4.3017E+03   1.5853E+05  0.000E+00  0.000E+00  0.000E+00  4.27233E+01  1.892E-01  2.000E+01  2.000E+04 -2.151E-01
   1   14   14     1    14    1.5853E+05 -5.8264E+03   1.6436E+05  0.000E+00  0.000E+00  0.000E+00  4.22496E+01  1.928E-01  2.000E+01  2.000E+04 -2.913E-01
   1   13   15     1    15    1.6436E+05 -7.4794E+03   1.7184E+05  0.000E+00  0.000E+00  0.000E+00  4.17771E+01  1.975E-01  2.000E+01  2.000E+04 -3.740E-01
   1   12   16     1    16    1.7184E+05 -8.6574E+03   1.8049E+05  0.000E+00  0.000E+00  0.000E+00  4.13055E+01  2.032E-01  2.000E+01  2.000E+04 -4.329E-01
   1   12   17     1    17    1.8049E+05 -6.0562E+03   1.8655E+05  0.000E+00  0.000E+00  0.000E+00  4.08332E+01  2.082E-01  2.000E+01  2.000E+04 -3.028E-01
   1   12   18     1    18    1.8655E+05 -5.9111E+03   1.9246E+05  0.000E+00  0.000E+00  0.000E+00  4.03600E+01  2.123E-01  2.000E+01  2.000E+04 -2.956E-01
   1   12   19     1    19    1.9246E+05 -7.5682E+03   2.0003E+05  0.000E+00  0.000E+00  0.000E+00  3.98872E+01  2.168E-01  2.000E+01  2.000E+04 -3.784E-01
   1   13   20     1    20    2.0003E+05 -6.2565E+03   2.0629E+05  0.000E+00  0.000E+00  0.000E+00  3.94145E+01  2.213E-01  2.000E+01  2.000E+04 -3.128E-01
   1   14   21     1    21    2.0629E+05 -4.9518E+03   2.1124E+05  0.000E+00  0.000E+00  0.000E+00  3.89409E+01  2.250E-01  2.000E+01  2.000E+04 -2.476E-01
   1   14   22     1    22    2.1124E+05  3.9279E+03   2.0731E+05  0.000E+00  0.000E+00  0.000E+00  3.84639E+01  2.253E-01  2.000E+01  2.000E+04  1.964E-01
   1    9   30     2     1    5.0000E+04 -4.8589E+03   5.4859E+04  0.000E+00  0.000E+00  0.000E+00  4.02442E+01  1.192E-01  2.000E+01  2.000E+04 -2.429E-01
   1    9   29     2     2    5.4859E+04 -5.1551E+03   6.0014E+04  0.000E+00  0.000E+00  0.000E+00  4.00009E+01  1.259E-01  2.000E+01  2.000E+04 -2.578E-01
   1    9   28     2     3    6.0014E+04 -5.4421E+03   6.5456E+04  0.000E+00  0.000E+00  0.000E+00  3.97578E+01  1.328E-01  2.000E+01  2.000E+04 -2.721E-01
   1    9   27     2     4    6.5456E+04 -8.3091E+03   7.3765E+04  0.000E+00  0.000E+00  0.000E+00  3.95163E+01  1.413E-01  2.000E+01  2.000E+04 -4.155E-01
   1   10   26     2     5    7.3765E+04 -7.3492E+03   8.1114E+04  0.000E+00  0.000E+00  0.000E+00  3.92756E+01  1.506E-01  2.000E+01  2.000E+04 -3.675E-01
   1   11   25     2     6    8.1114E+04 -6.8070E+03   8.7921E+04  0.000E+00  0.000E+00  0.000E+00  3.90338E+01  1.588E-01  2.000E+01  2.000E+04 -3.403E-01
   1   12   24     2     7    8.7921E+04 -6.3209E+03   9.4242E+04  0.000E+00  0.000E+00  0.000E+00  3.87910E+01  1.660E-01  2.000E+01  2.000E+04 -3.160E-01
   1   13   23     2     8    9.4242E+04 -1.6539E+03   9.5896E+04  0.000E+00  0.000E+00  0.000E+00  3.85454E+01  1.704E-01  2.000E+01  2.000E+04 -8.270E-02
   1   14   22     2     9    9.5896E+04  5.6830E+02   9.5328E+04  0.000E+00  0.000E+00  0.000E+00  3.82960E+01  1.710E-01  2.000E+01  2.000E+04  2.842E-02
   1   14   22     3     1    3.0264E+05 -9.5304E+03   3.1217E+05  0.000E+00  0.000E+00  0.000E+00  3.77910E+01  2.355E-01  2.000E+01  2.000E+04 -4.765E-01
   1   15   23     3     2    3.1217E+05 -1.6827E+03   3.1385E+05  0.000E+00  0.000E+00  0.000E+00  3.69047E+01  2.380E-01  2.000E+01  2.000E+04 -8.414E-02
   1   15   24     3     3    3.1385E+05 -1.4758E+03   3.1533E+05  0.000E+00  0.000E+00  0.000E+00  3.60165E+01  2.388E-01  2.000E+01  2.000E+04 -7.379E-02
   1   15   25     3     4    3.1533E+05 -1.5522E+03   3.1688E+05  0.000E+00  0.000E+00  0.000E+00  3.51283E+01  2.394E-01  2.000E+01  2.000E+04 -7.761E-02
   1   15   26     3     5    3.1688E+05 -1.8688E+03   3.1875E+05  0.000E+00  0.000E+00  0.000E+00  3.42402E+01  2.402E-01  2.000E+01  2.000E+04 -9.344E-02
   1   16   27     3     6    3.1875E+05 -2.1326E+03   3.2088E+05  0.000E+00  0.000E+00  0.000E+00  3.33522E+01  2.411E-01  2.000E+01  2.000E+04 -1.066E-01
   1   17   28     3     7    3.2088E+05 -6.2322E+03   3.2711E+05  0.000E+00  0.000E+00  0.000E+00  3.24652E+01  2.430E-01  2.000E+01  2.000E+04 -3.116E-01
   1   18   29     3     8    3.2711E+05 -7.0193E+03   3.3413E+05  0.000E+00  0.000E+00  0.000E+00  3.15793E+01  2.460E-01  2.000E+01  2.000E+04 -3.510E-01
   1   18   30     3     9    3.3413E+05 -6.5619E+03   3.4069E+05  0.000E+00  0.000E+00  0.000E+00  3.06934E+01  2.490E-01  2.000E+01  2.000E+04 -3.281E-01



1
              HEAD IN LAYER   1 AT END OF TIME STEP   1 IN STRESS PERIOD    1
  ---------------------------------------------------------------------------

          1      2      3      4      5      6      7      8      9     10
         11     12     13     14     15     16     17     18     19     20
         21     22     23     24     25     26     27     28     29     30
 .........................................................................
   1  ****** ****** ****** ****** ****** ****** ****** ****** ****** ******
      ****** ****** ****** ****** ****** ****** ****** ****** ****** ******
      ****** ****** ****** ****** ****** ****** ****** ****** ****** ******
   2  ****** ****** ****** ****** ****** ****** ****** ****** ****** ******
      ****** ****** ****** ****** ****** ****** ****** ****** ****** ******
      ****** ****** ****** ****** ****** ****** ****** ****** ****** ******
   3  ****** ****** ****** ****** ****** ****** ****** ****** ****** ******
      ****** ****** ****** ****** ****** ****** ****** ****** ****** ******
      ****** ****** ****** ****** ****** ****** ****** ****** ****** ******
   4  ****** ****** ****** ****** ****** ****** ****** ****** ****** ******
      ****** ****** ****** ****** ****** ****** ****** ****** ****** ******
      ****** ****** ****** ****** ****** ****** ****** ****** ****** ******
   5  ****** ****** ****** ****** ****** ****** ****** ****** ****** ******
      ****** ****** ****** ****** ****** ****** ****** ****** ****** ******
      ****** ****** ****** ****** ****** ****** ****** ****** ****** ******
   6  ****** ****** ****** ****** ****** ****** ****** ****** ****** ******
      ****** ****** ****** ****** ****** ****** ****** ****** ****** ******
      ****** ****** ****** ****** ****** ****** ****** ****** ****** ******
   7  ****** ****** ****** ****** ****** ****** ****** ****** ****** ******
      ****** ****** ****** ****** ****** ****** ****** ****** ****** ******
      ****** ****** ****** ****** ****** ****** ****** ****** ****** ******
   8  ****** ****** ****** ****** ****** ****** ****** ****** ****** ******
      ****** ****** ****** ****** ****** ****** ****** ****** ****** ******
      ****** ****** ****** ****** ****** ****** ****** ****** ****** ******
   9  ****** ****** ****** ****** ****** ****** ****** ****** ****** ******
      ****** ****** ****** ****** ****** ****** ****** ****** ****** ******
      ****** ****** ****** ****** ****** ****** ****** ****** ****** ******
  10  ****** ****** ****** ****** ****** ****** ****** ****** ****** ******
      ****** ****** ****** ****** ****** ****** ****** ****** ****** ******
      ****** ****** ****** ****** ****** ****** ****** ****** ****** ******
  11  ****** ****** ****** ****** ****** ****** ****** ****** ****** ******
      ****** ****** ****** ****** ****** ****** ****** ****** ****** ******
      ****** ****** ****** ****** ****** ****** ****** ****** ****** ******
  12  ****** ****** ****** ****** ****** ****** ****** ****** ****** ******
      ****** ****** ****** ****** ****** ****** ****** ****** ****** ******
      ****** ****** ****** ****** ****** ****** ****** ****** ****** ******
  13  ****** ****** ****** ****** ****** ****** ****** ****** ****** ******
      ****** ****** ****** ****** ****** ****** ****** ****** ****** ******
      ****** ****** ****** ****** ****** ****** ****** ****** ****** ******
  14  ****** ****** ****** ****** ****** ****** ****** ****** ****** ******
      ****** ****** ****** ****** ****** ****** ****** ****** ****** ******
      ****** ****** ****** ****** ****** ****** ****** ****** ****** ******
  15  ****** ****** ****** ****** ****** ****** ****** ****** ****** ******
      ****** ****** ****** ****** ****** ****** ****** ****** ****** ******
      ****** ****** ****** ****** ****** ****** ****** ****** ****** ******
  16  ****** ****** ****** ****** ****** ****** ****** ****** ****** ******
      ****** ****** ****** ****** ****** ****** ****** ****** ****** ******
      ****** ****** ****** ****** ****** ****** ****** ****** ****** ******
  17  ****** ****** ****** ****** ****** ****** ****** ****** ****** ******
      ****** ****** ****** ****** ****** ****** ****** ****** ****** ******
      ****** ****** ****** ****** ****** ****** ****** ****** ****** ******
  18  ****** ****** ****** ****** ****** ****** ****** ****** ****** ******
      ****** ****** ****** ****** ****** ****** ****** ****** ****** ******
      ****** ****** ****** ****** ****** ****** ****** ****** ****** ******
  19  ****** ****** ****** ****** ****** ****** ****** ****** ****** ******
      ****** ****** ****** ****** ****** ****** ****** ****** ****** ******
      ****** ****** ****** ****** ****** ****** ****** ****** ****** ******
  20  ****** ****** ****** ****** ****** ****** ****** ****** ****** ******
      ****** ****** ****** ****** ****** ****** ****** ****** ****** ******
      ****** ****** ****** ****** ****** ****** ****** ****** ****** ******
  21  ****** ****** ****** ****** ****** ****** ****** ****** ****** ******
      ****** ****** ****** ****** ****** ****** ****** ****** ****** ******
      ****** ****** ****** ****** ****** ****** ****** ****** ****** ******
  22  ****** ****** ****** ****** ****** ****** ****** ****** ****** ******
      ****** ****** ****** ****** ****** ****** ****** ****** ****** ******
      ****** ****** ****** ****** ****** ****** ****** ****** ****** ******
  23  ****** ****** ****** ****** ****** ****** ****** ****** ****** ******
      ****** ****** ****** ****** ****** ****** ****** ****** ****** ******
      ****** ****** ****** ****** ****** ****** ****** ****** ****** ******
  24  ****** ****** ****** ****** ****** ****** ****** ****** ****** ******
      ****** ****** ****** ****** ****** ****** ****** ****** ****** ******
      ****** ****** ****** ****** ****** ****** ****** ****** ****** ******
  25  ****** ****** ****** ****** ****** ****** ****** ****** ****** ******
      ****** ****** ****** ****** ****** ****** ****** ****** ****** ******
      ****** ****** ****** ****** ****** ****** ****** ****** ****** ******

 HEAD WILL BE SAVED ON UNIT   51 AT END OF TIME STEP    1, STRESS PERIOD    1
1
  VOLUMETRIC BUDGET FOR ENTIRE MODEL AT END OF TIME STEP    1, STRESS PERIOD   1
  ------------------------------------------------------------------------------

     CUMULATIVE VOLUMES      L**3       RATES FOR THIS TIME STEP      L**3/T
     ------------------                 ------------------------

           IN:                                      IN:
           ---                                      ---
             STORAGE =    17723491.1980               STORAGE =      192646.6435
       CONSTANT HEAD =     1168468.3651         CONSTANT HEAD =       12700.7431
               WELLS =           0.0000                 WELLS =           0.0000
            RECHARGE =     1269600.0000              RECHARGE =       13800.0000
      STREAM LEAKAGE =      413647.1570        STREAM LEAKAGE =        4496.1648

            TOTAL IN =    20575206.7201              TOTAL IN =      223643.5513

          OUT:                                     OUT:
          ----                                     ----
             STORAGE =           0.0000               STORAGE =           0.0000
       CONSTANT HEAD =           0.0000         CONSTANT HEAD =           0.0000
               WELLS =     2617710.6363                 WELLS =       28453.3765
            RECHARGE =           0.0000              RECHARGE =           0.0000
      STREAM LEAKAGE =    17957496.3751        STREAM LEAKAGE =      195190.1780

           TOTAL OUT =    20575207.0114             TOTAL OUT =      223643.5545

            IN - OUT =          -0.2913              IN - OUT =      -3.1667E-03

 PERCENT DISCREPANCY =          -0.00     PERCENT DISCREPANCY =          -0.00






         TIME SUMMARY AT END OF TIME STEP    1 IN STRESS PERIOD    1
                    SECONDS     MINUTES      HOURS       DAYS        YEARS
                    -----------------------------------------------------------
   TIME STEP LENGTH 7.94880E+06 1.32480E+05  2208.0      92.000     0.25188    
 STRESS PERIOD TIME 7.94880E+06 1.32480E+05  2208.0      92.000     0.25188    
         TOTAL TIME 7.94880E+06 1.32480E+05  2208.0      92.000     0.25188    
1
1
                            STRESS PERIOD NO.    2, LENGTH =   91.00000    
                            -----------------------------------------------

                              NUMBER OF TIME STEPS =     1

                               MULTIPLIER FOR DELT =     1.500

                            INITIAL TIME STEP SIZE =   91.00000    

 WELL NO.  LAYER   ROW   COL   STRESS RATE         
 --------------------------------------------------
      1      1     14      6       0.000    
      2      1      3      9       0.000    
      3      1     20     10       0.000    
      4      1     14     20       0.000    
      5      1     22     27      -6314.    
      6      1     16     14     -0.1197E+05
      7      1     11      6      -1537.    
      8      1     17     21      -8632.    

      8 WELLS

                 RECHARGE =  2.000000E-03

 REUSING STREAM SEGMENT DATA FROM LAST STRESS PERIOD
 
 SOLVING FOR HEAD 


     7 CALLS TO PCG ROUTINE FOR TIME STEP   1 IN STRESS PERIOD    2
    27 TOTAL ITERATIONS

 OUTPUT CONTROL FOR STRESS PERIOD    2   TIME STEP    1
    SAVE BUDGET
    SAVE HEAD FOR ALL LAYERS
    PRINT HEAD FOR ALL LAYERS
 UBDSV2 SAVING "STREAMFLOW OUT  " ON UNIT  50 AT TIME STEP  1, STRESS PERIOD   2



 STREAM LISTING     PERIOD      2   STEP        1

 LAYER ROW COL. STREAM  RCH.  FLOW INTO     FLOW TO   FLOW OUT OF   OVRLND.     DIRECT     STREAM       STREAM     STREAM     STREAM   STREAMBED  STREAMBED
                SEG.NO.  NO.  STRM. RCH.    AQUIFER    STRM. RCH.    RUNOFF     PRECIP       ET          HEAD       DEPTH      WIDTH   CONDCTNC.   GRADIENT

   1   13    1     1     1    1.0000E+05 -3.9506E+03   1.0395E+05  0.000E+00  0.000E+00  0.000E+00  4.84077E+01  1.464E-01  2.000E+01  2.000E+04 -1.975E-01
   1   13    2     1     2    1.0395E+05 -5.1735E+03   1.0912E+05  0.000E+00  0.000E+00  0.000E+00  4.79343E+01  1.503E-01  2.000E+01  2.000E+04 -2.587E-01
   1   14    3     1     3    1.0912E+05 -1.0766E+03   1.1020E+05  0.000E+00  0.000E+00  0.000E+00  4.74597E+01  1.529E-01  2.000E+01  2.000E+04 -5.383E-02
   1   15    4     1     4    1.1020E+05 -1.1064E+03   1.1131E+05  0.000E+00  0.000E+00  0.000E+00  4.69833E+01  1.538E-01  2.000E+01  2.000E+04 -5.532E-02
   1   16    5     1     5    1.1131E+05 -4.1709E+03   1.1548E+05  0.000E+00  0.000E+00  0.000E+00  4.65083E+01  1.560E-01  2.000E+01  2.000E+04 -2.085E-01
   1   16    6     1     6    1.1548E+05 -2.4284E+03   1.1791E+05  0.000E+00  0.000E+00  0.000E+00  4.60337E+01  1.587E-01  2.000E+01  2.000E+04 -1.214E-01
   1   16    7     1     7    1.1791E+05 -2.3185E+03   1.2022E+05  0.000E+00  0.000E+00  0.000E+00  4.55583E+01  1.606E-01  2.000E+01  2.000E+04 -1.159E-01
   1   16    8     1     8    1.2022E+05 -2.2661E+03   1.2249E+05  0.000E+00  0.000E+00  0.000E+00  4.50829E+01  1.625E-01  2.000E+01  2.000E+04 -1.133E-01
   1   16    9     1     9    1.2249E+05 -2.2029E+03   1.2469E+05  0.000E+00  0.000E+00  0.000E+00  4.46074E+01  1.643E-01  2.000E+01  2.000E+04 -1.101E-01
   1   16   10     1    10    1.2469E+05 -2.0964E+03   1.2679E+05  0.000E+00  0.000E+00  0.000E+00  4.41319E+01  1.660E-01  2.000E+01  2.000E+04 -1.048E-01
   1   16   11     1    11    1.2679E+05 -1.8989E+03   1.2869E+05  0.000E+00  0.000E+00  0.000E+00  4.36562E+01  1.675E-01  2.000E+01  2.000E+04 -9.494E-02
   1   16   12     1    12    1.2869E+05 -1.7135E+03   1.3040E+05  0.000E+00  0.000E+00  0.000E+00  4.31803E+01  1.690E-01  2.000E+01  2.000E+04 -8.567E-02
   1   15   13     1    13    1.3040E+05 -7.5289E+02   1.3116E+05  0.000E+00  0.000E+00  0.000E+00  4.27040E+01  1.699E-01  2.000E+01  2.000E+04 -3.764E-02
   1   14   14     1    14    1.3116E+05 -2.2293E+03   1.3338E+05  0.000E+00  0.000E+00  0.000E+00  4.22279E+01  1.711E-01  2.000E+01  2.000E+04 -1.115E-01
   1   13   15     1    15    1.3338E+05 -3.9977E+03   1.3738E+05  0.000E+00  0.000E+00  0.000E+00  4.17530E+01  1.735E-01  2.000E+01  2.000E+04 -1.999E-01
   1   12   16     1    16    1.3738E+05 -5.5148E+03   1.4290E+05  0.000E+00  0.000E+00  0.000E+00  4.12794E+01  1.771E-01  2.000E+01  2.000E+04 -2.757E-01
   1   12   17     1    17    1.4290E+05 -3.5154E+03   1.4641E+05  0.000E+00  0.000E+00  0.000E+00  4.08055E+01  1.805E-01  2.000E+01  2.000E+04 -1.758E-01
   1   12   18     1    18    1.4641E+05 -3.3636E+03   1.4978E+05  0.000E+00  0.000E+00  0.000E+00  4.03308E+01  1.831E-01  2.000E+01  2.000E+04 -1.682E-01
   1   12   19     1    19    1.4978E+05 -4.4494E+03   1.5423E+05  0.000E+00  0.000E+00  0.000E+00  3.98564E+01  1.860E-01  2.000E+01  2.000E+04 -2.225E-01
   1   13   20     1    20    1.5423E+05 -2.9750E+03   1.5720E+05  0.000E+00  0.000E+00  0.000E+00  3.93819E+01  1.887E-01  2.000E+01  2.000E+04 -1.488E-01
   1   14   21     1    21    1.5720E+05 -1.8126E+03   1.5901E+05  0.000E+00  0.000E+00  0.000E+00  3.89063E+01  1.904E-01  2.000E+01  2.000E+04 -9.063E-02
   1   14   22     1    22    1.5901E+05  4.7523E+03   1.5426E+05  0.000E+00  0.000E+00  0.000E+00  3.84280E+01  1.893E-01  2.000E+01  2.000E+04  2.376E-01
   1    9   30     2     1    5.0000E+04 -2.1580E+03   5.2158E+04  0.000E+00  0.000E+00  0.000E+00  4.02424E+01  1.174E-01  2.000E+01  2.000E+04 -1.079E-01
   1    9   29     2     2    5.2158E+04 -2.4696E+03   5.4628E+04  0.000E+00  0.000E+00  0.000E+00  3.99955E+01  1.205E-01  2.000E+01  2.000E+04 -1.235E-01
   1    9   28     2     3    5.4628E+04 -2.7785E+03   5.7406E+04  0.000E+00  0.000E+00  0.000E+00  3.97490E+01  1.240E-01  2.000E+01  2.000E+04 -1.389E-01
   1    9   27     2     4    5.7406E+04 -4.9024E+03   6.2308E+04  0.000E+00  0.000E+00  0.000E+00  3.95041E+01  1.291E-01  2.000E+01  2.000E+04 -2.451E-01
   1   10   26     2     5    6.2308E+04 -3.8017E+03   6.6110E+04  0.000E+00  0.000E+00  0.000E+00  3.92596E+01  1.346E-01  2.000E+01  2.000E+04 -1.901E-01
   1   11   25     2     6    6.6110E+04 -3.4161E+03   6.9526E+04  0.000E+00  0.000E+00  0.000E+00  3.90141E+01  1.391E-01  2.000E+01  2.000E+04 -1.708E-01
   1   12   24     2     7    6.9526E+04 -3.2855E+03   7.2812E+04  0.000E+00  0.000E+00  0.000E+00  3.87682E+01  1.432E-01  2.000E+01  2.000E+04 -1.643E-01
   1   13   23     2     8    7.2812E+04 -6.1915E+02   7.3431E+04  0.000E+00  0.000E+00  0.000E+00  3.85205E+01  1.455E-01  2.000E+01  2.000E+04 -3.096E-02
   1   14   22     2     9    7.3431E+04  1.5919E+03   7.1839E+04  0.000E+00  0.000E+00  0.000E+00  3.82700E+01  1.450E-01  2.000E+01  2.000E+04  7.960E-02
   1   14   22     3     1    2.2610E+05 -8.7344E+03   2.3483E+05  0.000E+00  0.000E+00  0.000E+00  3.77536E+01  1.981E-01  2.000E+01  2.000E+04 -4.367E-01
   1   15   23     3     2    2.3483E+05 -6.3688E+02   2.3547E+05  0.000E+00  0.000E+00  0.000E+00  3.68672E+01  2.005E-01  2.000E+01  2.000E+04 -3.184E-02
   1   15   24     3     3    2.3547E+05 -5.7116E+02   2.3604E+05  0.000E+00  0.000E+00  0.000E+00  3.59786E+01  2.008E-01  2.000E+01  2.000E+04 -2.856E-02
   1   15   25     3     4    2.3604E+05 -6.1691E+02   2.3666E+05  0.000E+00  0.000E+00  0.000E+00  3.50900E+01  2.011E-01  2.000E+01  2.000E+04 -3.085E-02
   1   15   26     3     5    2.3666E+05 -7.4295E+02   2.3740E+05  0.000E+00  0.000E+00  0.000E+00  3.42015E+01  2.015E-01  2.000E+01  2.000E+04 -3.715E-02
   1   16   27     3     6    2.3740E+05 -8.3406E+02   2.3824E+05  0.000E+00  0.000E+00  0.000E+00  3.33130E+01  2.019E-01  2.000E+01  2.000E+04 -4.170E-02
   1   17   28     3     7    2.3824E+05 -2.7104E+03   2.4095E+05  0.000E+00  0.000E+00  0.000E+00  3.24250E+01  2.028E-01  2.000E+01  2.000E+04 -1.355E-01
   1   18   29     3     8    2.4095E+05 -3.5761E+03   2.4452E+05  0.000E+00  0.000E+00  0.000E+00  3.15377E+01  2.044E-01  2.000E+01  2.000E+04 -1.788E-01
   1   18   30     3     9    2.4452E+05 -3.7513E+03   2.4827E+05  0.000E+00  0.000E+00  0.000E+00  3.06506E+01  2.062E-01  2.000E+01  2.000E+04 -1.876E-01



1
              HEAD IN LAYER   1 AT END OF TIME STEP   1 IN STRESS PERIOD    2
  ---------------------------------------------------------------------------

          1      2      3      4      5      6      7      8      9     10
         11     12     13     14     15     16     17     18     19     20
         21     22     23     24     25     26     27     28     29     30
 .........................................................................
   1  ****** ****** ****** ****** ****** ****** ****** ****** ****** ******
      ****** ****** ****** ****** ****** ****** ****** ****** ****** ******
      ****** ****** ****** ****** ****** ****** ****** ****** ****** ******
   2  ****** ****** ****** ****** ****** ****** ****** ****** ****** ******
      ****** ****** ****** ****** ****** ****** ****** ****** ****** ******
      ****** ****** ****** ****** ****** ****** ****** ****** ****** ******
   3  ****** ****** ****** ****** ****** ****** ****** ****** ****** ******
      ****** ****** ****** ****** ****** ****** ****** ****** ****** ******
      ****** ****** ****** ****** ****** ****** ****** ****** ****** ******
   4  ****** ****** ****** ****** ****** ****** ****** ****** ****** ******
      ****** ****** ****** ****** ****** ****** ****** ****** ****** ******
      ****** ****** ****** ****** ****** ****** ****** ****** ****** ******
   5  ****** ****** ****** ****** ****** ****** ****** ****** ****** ******
      ****** ****** ****** ****** ****** ****** ****** ****** ****** ******
      ****** ****** ****** ****** ****** ****** ****** ****** ****** ******
   6  ****** ****** ****** ****** ****** ****** ****** ****** ****** ******
      ****** ****** ****** ****** ****** ****** ****** ****** ****** ******
      ****** ****** ****** ****** ****** ****** ****** ****** ****** ******
   7  ****** ****** ****** ****** ****** ****** ****** ****** ****** ******
      ****** ****** ****** ****** ****** ****** ****** ****** ****** ******
      ****** ****** ****** ****** ****** ****** ****** ****** ****** ******
   8  ****** ****** ****** ****** ****** ****** ****** ****** ****** ******
      ****** ****** ****** ****** ****** ****** ****** ****** ****** ******
      ****** ****** ****** ****** ****** ****** ****** ****** ****** ******
   9  ****** ****** ****** ****** ****** ****** ****** ****** ****** ******
      ****** ****** ****** ****** ****** ****** ****** ****** ****** ******
      ****** ****** ****** ****** ****** ****** ****** ****** ****** ******
  10  ****** ****** ****** ****** ****** ****** ****** ****** ****** ******
      ****** ****** ****** ****** ****** ****** ****** ****** ****** ******
      ****** ****** ****** ****** ****** ****** ****** ****** ****** ******
  11  ****** ****** ****** ****** ****** ****** ****** ****** ****** ******
      ****** ****** ****** ****** ****** ****** ****** ****** ****** ******
      ****** ****** ****** ****** ****** ****** ****** ****** ****** ******
  12  ****** ****** ****** ****** ****** ****** ****** ****** ****** ******
      ****** ****** ****** ****** ****** ****** ****** ****** ****** ******
      ****** ****** ****** ****** ****** ****** ****** ****** ****** ******
  13  ****** ****** ****** ****** ****** ****** ****** ****** ****** ******
      ****** ****** ****** ****** ****** ****** ****** ****** ****** ******
      ****** ****** ****** ****** ****** ****** ****** ****** ****** ******
  14  ****** ****** ****** ****** ****** ****** ****** ****** ****** ******
      ****** ****** ****** ****** ****** ****** ****** ****** ****** ******
      ****** ****** ****** ****** ****** ****** ****** ****** ****** ******
  15  ****** ****** ****** ****** ****** ****** ****** ****** ****** ******
      ****** ****** ****** ****** ****** ****** ****** ****** ****** ******
      ****** ****** ****** ****** ****** ****** ****** ****** ****** ******
  16  ****** ****** ****** ****** ****** ****** ****** ****** ****** ******
      ****** ****** ****** ****** ****** ****** ****** ****** ****** ******
      ****** ****** ****** ****** ****** ****** ****** ****** ****** ******
  17  ****** ****** ****** ****** ****** ****** ****** ****** ****** ******
      ****** ****** ****** ****** ****** ****** ****** ****** ****** ******
      ****** ****** ****** ****** ****** ****** ****** ****** ****** ******
  18  ****** ****** ****** ****** ****** ****** ****** ****** ****** ******
      ****** ****** ****** ****** ****** ****** ****** ****** ****** ******
      ****** ****** ****** ****** ****** ****** ****** ****** ****** ******
  19  ****** ****** ****** ****** ****** ****** ****** ****** ****** ******
      ****** ****** ****** ****** ****** ****** ****** ****** ****** ******
      ****** ****** ****** ****** ****** ****** ****** ****** ****** ******
  20  ****** ****** ****** ****** ****** ****** ****** ****** ****** ******
      ****** ****** ****** ****** ****** ****** ****** ****** ****** ******
      ****** ****** ****** ****** ****** ****** ****** ****** ****** ******
  21  ****** ****** ****** ****** ****** ****** ****** ****** ****** ******
      ****** ****** ****** ****** ****** ****** ****** ****** ****** ******
      ****** ****** ****** ****** ****** ****** ****** ****** ****** ******
  22  ****** ****** ****** ****** ****** ****** ****** ****** ****** ******
      ****** ****** ****** ****** ****** ****** ****** ****** ****** ******
      ****** ****** ****** ****** ****** ****** ****** ****** ****** ******
  23  ****** ****** ****** ****** ****** ****** ****** ****** ****** ******
      ****** ****** ****** ****** ****** ****** ****** ****** ****** ******
      ****** ****** ****** ****** ****** ****** ****** ****** ****** ******
  24  ****** ****** ****** ****** ****** ****** ****** ****** ****** ******
      ****** ****** ****** ****** ****** ****** ****** ****** ****** ******
      ****** ****** ****** ****** ****** ****** ****** ****** ****** ******
  25  ****** ****** ****** ****** ****** ****** ****** ****** ****** ******
      ****** ****** ****** ****** ****** ****** ****** ****** ****** ******
      ****** ****** ****** ****** ****** ****** ****** ****** ****** ******

 HEAD WILL BE SAVED ON UNIT   51 AT END OF TIME STEP    1, STRESS PERIOD    2
1
  VOLUMETRIC BUDGET FOR ENTIRE MODEL AT END OF TIME STEP    1, STRESS PERIOD   2
  ------------------------------------------------------------------------------

     CUMULATIVE VOLUMES      L**3       RATES FOR THIS TIME STEP      L**3/T
     ------------------                 ------------------------

           IN:                                      IN:
           ---                                      ---
             STORAGE =    22657106.9301               STORAGE =       54215.5575
       CONSTANT HEAD =     2743884.0180         CONSTANT HEAD =       17312.2599
               WELLS =           0.0000                 WELLS =           0.0000
            RECHARGE =     6292800.0000              RECHARGE =       55200.0000
      STREAM LEAKAGE =      990971.2383        STREAM LEAKAGE =        6344.2207

            TOTAL IN =    32684762.1863              TOTAL IN =      133072.0381

          OUT:                                     OUT:
          ----                                     ----
             STORAGE =           0.0000               STORAGE =           0.0000
       CONSTANT HEAD =           0.0000         CONSTANT HEAD =           0.0000
               WELLS =     5206967.8962                 WELLS =       28453.3765
            RECHARGE =           0.0000              RECHARGE =           0.0000
      STREAM LEAKAGE =    27477795.5365        STREAM LEAKAGE =      104618.6721

           TOTAL OUT =    32684763.4327             TOTAL OUT =      133072.0486

            IN - OUT =          -1.2464              IN - OUT =      -1.0495E-02

 PERCENT DISCREPANCY =          -0.00     PERCENT DISCREPANCY =          -0.00






         TIME SUMMARY AT END OF TIME STEP    1 IN STRESS PERIOD    2
                    SECONDS     MINUTES      HOURS       DAYS        YEARS
                    -----------------------------------------------------------
   TIME STEP LENGTH 7.86240E+06 1.31040E+05  2184.0      91.000     0.24914    
 STRESS PERIOD TIME 7.86240E+06 1.31040E+05  2184.0      91.000     0.24914    
         TOTAL TIME 1.58112E+07 2.63520E+05  4392.0      183.00     0.50103    
1
1
                            STRESS PERIOD NO.    3, LENGTH =   91.00000    
                            -----------------------------------------------

                              NUMBER OF TIME STEPS =     1

                               MULTIPLIER FOR DELT =     1.500

                            INITIAL TIME STEP SIZE =   91.00000    

 WELL NO.  LAYER   ROW   COL   STRESS RATE         
 --------------------------------------------------
      1      1     14      6       0.000    
      2      1      3      9       0.000    
      3      1     20     10       0.000    
      4      1     14     20       0.000    
      5      1     22     27      -6314.    
      6      1     16     14     -0.1197E+05
      7      1     11      6      -1537.    
      8      1     17     21      -8632.    

      8 WELLS

                 RECHARGE =   0.00000    

 REUSING STREAM SEGMENT DATA FROM LAST STRESS PERIOD
 
 SOLVING FOR HEAD 


     7 CALLS TO PCG ROUTINE FOR TIME STEP   1 IN STRESS PERIOD    3
    27 TOTAL ITERATIONS

 OUTPUT CONTROL FOR STRESS PERIOD    3   TIME STEP    1
    SAVE BUDGET
    SAVE HEAD FOR ALL LAYERS
    PRINT HEAD FOR ALL LAYERS
 UBDSV2 SAVING "STREAMFLOW OUT  " ON UNIT  50 AT TIME STEP  1, STRESS PERIOD   3



 STREAM LISTING     PERIOD      3   STEP        1

 LAYER ROW COL. STREAM  RCH.  FLOW INTO     FLOW TO   FLOW OUT OF   OVRLND.     DIRECT     STREAM       STREAM     STREAM     STREAM   STREAMBED  STREAMBED
                SEG.NO.  NO.  STRM. RCH.    AQUIFER    STRM. RCH.    RUNOFF     PRECIP       ET          HEAD       DEPTH      WIDTH   CONDCTNC.   GRADIENT

   1   13    1     1     1    1.0000E+05 -2.6809E+03   1.0268E+05  0.000E+00  0.000E+00  0.000E+00  4.84072E+01  1.458E-01  2.000E+01  2.000E+04 -1.340E-01
   1   13    2     1     2    1.0268E+05 -3.7368E+03   1.0642E+05  0.000E+00  0.000E+00  0.000E+00  4.79327E+01  1.486E-01  2.000E+01  2.000E+04 -1.868E-01
   1   14    3     1     3    1.0642E+05 -6.0063E+02   1.0702E+05  0.000E+00  0.000E+00  0.000E+00  4.74572E+01  1.504E-01  2.000E+01  2.000E+04 -3.003E-02
   1   15    4     1     4    1.0702E+05 -5.8635E+02   1.0760E+05  0.000E+00  0.000E+00  0.000E+00  4.69805E+01  1.509E-01  2.000E+01  2.000E+04 -2.932E-02
   1   16    5     1     5    1.0760E+05 -2.3441E+03   1.0995E+05  0.000E+00  0.000E+00  0.000E+00  4.65044E+01  1.521E-01  2.000E+01  2.000E+04 -1.172E-01
   1   16    6     1     6    1.0995E+05 -1.3980E+03   1.1135E+05  0.000E+00  0.000E+00  0.000E+00  4.60287E+01  1.537E-01  2.000E+01  2.000E+04 -6.990E-02
   1   16    7     1     7    1.1135E+05 -1.3437E+03   1.1269E+05  0.000E+00  0.000E+00  0.000E+00  4.55526E+01  1.548E-01  2.000E+01  2.000E+04 -6.718E-02
   1   16    8     1     8    1.1269E+05 -1.3068E+03   1.1400E+05  0.000E+00  0.000E+00  0.000E+00  4.50764E+01  1.559E-01  2.000E+01  2.000E+04 -6.534E-02
   1   16    9     1     9    1.1400E+05 -1.2445E+03   1.1524E+05  0.000E+00  0.000E+00  0.000E+00  4.46002E+01  1.570E-01  2.000E+01  2.000E+04 -6.223E-02
   1   16   10     1    10    1.1524E+05 -1.1324E+03   1.1637E+05  0.000E+00  0.000E+00  0.000E+00  4.41239E+01  1.580E-01  2.000E+01  2.000E+04 -5.662E-02
   1   16   11     1    11    1.1637E+05 -9.1786E+02   1.1729E+05  0.000E+00  0.000E+00  0.000E+00  4.36474E+01  1.588E-01  2.000E+01  2.000E+04 -4.589E-02
   1   16   12     1    12    1.1729E+05  1.6962E+01   1.1728E+05  0.000E+00  0.000E+00  0.000E+00  4.31705E+01  1.592E-01  2.000E+01  2.000E+04  8.481E-04
   1   15   13     1    13    1.1728E+05  9.9245E+02   1.1628E+05  0.000E+00  0.000E+00  0.000E+00  4.26929E+01  1.588E-01  2.000E+01  2.000E+04  4.962E-02
   1   14   14     1    14    1.1628E+05 -4.5766E+02   1.1674E+05  0.000E+00  0.000E+00  0.000E+00  4.22154E+01  1.585E-01  2.000E+01  2.000E+04 -2.288E-02
   1   13   15     1    15    1.1674E+05 -2.2517E+03   1.1899E+05  0.000E+00  0.000E+00  0.000E+00  4.17392E+01  1.596E-01  2.000E+01  2.000E+04 -1.126E-01
   1   12   16     1    16    1.1899E+05 -3.7646E+03   1.2276E+05  0.000E+00  0.000E+00  0.000E+00  4.12644E+01  1.621E-01  2.000E+01  2.000E+04 -1.882E-01
   1   12   17     1    17    1.2276E+05 -2.2290E+03   1.2499E+05  0.000E+00  0.000E+00  0.000E+00  4.07895E+01  1.645E-01  2.000E+01  2.000E+04 -1.115E-01
   1   12   18     1    18    1.2499E+05 -2.0940E+03   1.2708E+05  0.000E+00  0.000E+00  0.000E+00  4.03139E+01  1.662E-01  2.000E+01  2.000E+04 -1.047E-01
   1   12   19     1    19    1.2708E+05 -2.8779E+03   1.2996E+05  0.000E+00  0.000E+00  0.000E+00  3.98386E+01  1.682E-01  2.000E+01  2.000E+04 -1.439E-01
   1   13   20     1    20    1.2996E+05 -1.4602E+03   1.3142E+05  0.000E+00  0.000E+00  0.000E+00  3.93630E+01  1.698E-01  2.000E+01  2.000E+04 -7.301E-02
   1   14   21     1    21    1.3142E+05 -1.8066E+02   1.3160E+05  0.000E+00  0.000E+00  0.000E+00  3.88864E+01  1.705E-01  2.000E+01  2.000E+04 -9.033E-03
   1   14   22     1    22    1.3160E+05  5.1278E+03   1.2647E+05  0.000E+00  0.000E+00  0.000E+00  3.84072E+01  1.686E-01  2.000E+01  2.000E+04  2.564E-01
   1    9   30     2     1    5.0000E+04 -9.7264E+02   5.0973E+04  0.000E+00  0.000E+00  0.000E+00  4.02415E+01  1.165E-01  2.000E+01  2.000E+04 -4.863E-02
   1    9   29     2     2    5.0973E+04 -1.2869E+03   5.2260E+04  0.000E+00  0.000E+00  0.000E+00  3.99931E+01  1.181E-01  2.000E+01  2.000E+04 -6.435E-02
   1    9   28     2     3    5.2260E+04 -1.5853E+03   5.3845E+04  0.000E+00  0.000E+00  0.000E+00  3.97451E+01  1.201E-01  2.000E+01  2.000E+04 -7.927E-02
   1    9   27     2     4    5.3845E+04 -3.1957E+03   5.7041E+04  0.000E+00  0.000E+00  0.000E+00  3.94983E+01  1.233E-01  2.000E+01  2.000E+04 -1.598E-01
   1   10   26     2     5    5.7041E+04 -2.2057E+03   5.9246E+04  0.000E+00  0.000E+00  0.000E+00  3.92518E+01  1.268E-01  2.000E+01  2.000E+04 -1.103E-01
   1   11   25     2     6    5.9246E+04 -1.9296E+03   6.1176E+04  0.000E+00  0.000E+00  0.000E+00  3.90045E+01  1.295E-01  2.000E+01  2.000E+04 -9.648E-02
   1   12   24     2     7    6.1176E+04 -1.9581E+03   6.3134E+04  0.000E+00  0.000E+00  0.000E+00  3.87570E+01  1.320E-01  2.000E+01  2.000E+04 -9.790E-02
   1   13   23     2     8    6.3134E+04 -2.8720E+02   6.3421E+04  0.000E+00  0.000E+00  0.000E+00  3.85085E+01  1.335E-01  2.000E+01  2.000E+04 -1.436E-02
   1   14   22     2     9    6.3421E+04  2.1295E+03   6.1292E+04  0.000E+00  0.000E+00  0.000E+00  3.82573E+01  1.323E-01  2.000E+01  2.000E+04  1.065E-01
   1   14   22     3     1    1.8776E+05 -8.3550E+03   1.9612E+05  0.000E+00  0.000E+00  0.000E+00  3.77331E+01  1.775E-01  2.000E+01  2.000E+04 -4.177E-01
   1   15   23     3     2    1.9612E+05 -2.0137E+02   1.9632E+05  0.000E+00  0.000E+00  0.000E+00  3.68465E+01  1.799E-01  2.000E+01  2.000E+04 -1.007E-02
   1   15   24     3     3    1.9632E+05 -2.2694E+02   1.9655E+05  0.000E+00  0.000E+00  0.000E+00  3.59578E+01  1.800E-01  2.000E+01  2.000E+04 -1.135E-02
   1   15   25     3     4    1.9655E+05 -2.6053E+02   1.9681E+05  0.000E+00  0.000E+00  0.000E+00  3.50690E+01  1.801E-01  2.000E+01  2.000E+04 -1.303E-02
   1   15   26     3     5    1.9681E+05 -3.2832E+02   1.9713E+05  0.000E+00  0.000E+00  0.000E+00  3.41803E+01  1.803E-01  2.000E+01  2.000E+04 -1.642E-02
   1   16   27     3     6    1.9713E+05 -3.4707E+02   1.9748E+05  0.000E+00  0.000E+00  0.000E+00  3.32916E+01  1.805E-01  2.000E+01  2.000E+04 -1.735E-02
   1   17   28     3     7    1.9748E+05 -1.1978E+03   1.9868E+05  0.000E+00  0.000E+00  0.000E+00  3.24031E+01  1.809E-01  2.000E+01  2.000E+04 -5.989E-02
   1   18   29     3     8    1.9868E+05 -1.8215E+03   2.0050E+05  0.000E+00  0.000E+00  0.000E+00  3.15150E+01  1.817E-01  2.000E+01  2.000E+04 -9.108E-02
   1   18   30     3     9    2.0050E+05 -2.4658E+03   2.0297E+05  0.000E+00  0.000E+00  0.000E+00  3.06273E+01  1.829E-01  2.000E+01  2.000E+04 -1.233E-01



1
              HEAD IN LAYER   1 AT END OF TIME STEP   1 IN STRESS PERIOD    3
  ---------------------------------------------------------------------------

          1      2      3      4      5      6      7      8      9     10
         11     12     13     14     15     16     17     18     19     20
         21     22     23     24     25     26     27     28     29     30
 .........................................................................
   1  ****** ****** ****** ****** ****** ****** ****** ****** ****** ******
      ****** ****** ****** ****** ****** ****** ****** ****** ****** ******
      ****** ****** ****** ****** ****** ****** ****** ****** ****** ******
   2  ****** ****** ****** ****** ****** ****** ****** ****** ****** ******
      ****** ****** ****** ****** ****** ****** ****** ****** ****** ******
      ****** ****** ****** ****** ****** ****** ****** ****** ****** ******
   3  ****** ****** ****** ****** ****** ****** ****** ****** ****** ******
      ****** ****** ****** ****** ****** ****** ****** ****** ****** ******
      ****** ****** ****** ****** ****** ****** ****** ****** ****** ******
   4  ****** ****** ****** ****** ****** ****** ****** ****** ****** ******
      ****** ****** ****** ****** ****** ****** ****** ****** ****** ******
      ****** ****** ****** ****** ****** ****** ****** ****** ****** ******
   5  ****** ****** ****** ****** ****** ****** ****** ****** ****** ******
      ****** ****** ****** ****** ****** ****** ****** ****** ****** ******
      ****** ****** ****** ****** ****** ****** ****** ****** ****** ******
   6  ****** ****** ****** ****** ****** ****** ****** ****** ****** ******
      ****** ****** ****** ****** ****** ****** ****** ****** ****** ******
      ****** ****** ****** ****** ****** ****** ****** ****** ****** ******
   7  ****** ****** ****** ****** ****** ****** ****** ****** ****** ******
      ****** ****** ****** ****** ****** ****** ****** ****** ****** ******
      ****** ****** ****** ****** ****** ****** ****** ****** ****** ******
   8  ****** ****** ****** ****** ****** ****** ****** ****** ****** ******
      ****** ****** ****** ****** ****** ****** ****** ****** ****** ******
      ****** ****** ****** ****** ****** ****** ****** ****** ****** ******
   9  ****** ****** ****** ****** ****** ****** ****** ****** ****** ******
      ****** ****** ****** ****** ****** ****** ****** ****** ****** ******
      ****** ****** ****** ****** ****** ****** ****** ****** ****** ******
  10  ****** ****** ****** ****** ****** ****** ****** ****** ****** ******
      ****** ****** ****** ****** ****** ****** ****** ****** ****** ******
      ****** ****** ****** ****** ****** ****** ****** ****** ****** ******
  11  ****** ****** ****** ****** ****** ****** ****** ****** ****** ******
      ****** ****** ****** ****** ****** ****** ****** ****** ****** ******
      ****** ****** ****** ****** ****** ****** ****** ****** ****** ******
  12  ****** ****** ****** ****** ****** ****** ****** ****** ****** ******
      ****** ****** ****** ****** ****** ****** ****** ****** ****** ******
      ****** ****** ****** ****** ****** ****** ****** ****** ****** ******
  13  ****** ****** ****** ****** ****** ****** ****** ****** ****** ******
      ****** ****** ****** ****** ****** ****** ****** ****** ****** ******
      ****** ****** ****** ****** ****** ****** ****** ****** ****** ******
  14  ****** ****** ****** ****** ****** ****** ****** ****** ****** ******
      ****** ****** ****** ****** ****** ****** ****** ****** ****** ******
      ****** ****** ****** ****** ****** ****** ****** ****** ****** ******
  15  ****** ****** ****** ****** ****** ****** ****** ****** ****** ******
      ****** ****** ****** ****** ****** ****** ****** ****** ****** ******
      ****** ****** ****** ****** ****** ****** ****** ****** ****** ******
  16  ****** ****** ****** ****** ****** ****** ****** ****** ****** ******
      ****** ****** ****** ****** ****** ****** ****** ****** ****** ******
      ****** ****** ****** ****** ****** ****** ****** ****** ****** ******
  17  ****** ****** ****** ****** ****** ****** ****** ****** ****** ******
      ****** ****** ****** ****** ****** ****** ****** ****** ****** ******
      ****** ****** ****** ****** ****** ****** ****** ****** ****** ******
  18  ****** ****** ****** ****** ****** ****** ****** ****** ****** ******
      ****** ****** ****** ****** ****** ****** ****** ****** ****** ******
      ****** ****** ****** ****** ****** ****** ****** ****** ****** ******
  19  ****** ****** ****** ****** ****** ****** ****** ****** ****** ******
      ****** ****** ****** ****** ****** ****** ****** ****** ****** ******
      ****** ****** ****** ****** ****** ****** ****** ****** ****** ******
  20  ****** ****** ****** ****** ****** ****** ****** ****** ****** ******
      ****** ****** ****** ****** ****** ****** ****** ****** ****** ******
      ****** ****** ****** ****** ****** ****** ****** ****** ****** ******
  21  ****** ****** ****** ****** ****** ****** ****** ****** ****** ******
      ****** ****** ****** ****** ****** ****** ****** ****** ****** ******
      ****** ****** ****** ****** ****** ****** ****** ****** ****** ******
  22  ****** ****** ****** ****** ****** ****** ****** ****** ****** ******
      ****** ****** ****** ****** ****** ****** ****** ****** ****** ******
      ****** ****** ****** ****** ****** ****** ****** ****** ****** ******
  23  ****** ****** ****** ****** ****** ****** ****** ****** ****** ******
      ****** ****** ****** ****** ****** ****** ****** ****** ****** ******
      ****** ****** ****** ****** ****** ****** ****** ****** ****** ******
  24  ****** ****** ****** ****** ****** ****** ****** ****** ****** ******
      ****** ****** ****** ****** ****** ****** ****** ****** ****** ******
      ****** ****** ****** ****** ****** ****** ****** ****** ****** ******
  25  ****** ****** ****** ****** ****** ****** ****** ****** ****** ******
      ****** ****** ****** ****** ****** ****** ****** ****** ****** ******
      ****** ****** ****** ****** ****** ****** ****** ****** ****** ******

 HEAD WILL BE SAVED ON UNIT   51 AT END OF TIME STEP    1, STRESS PERIOD    3
1
  VOLUMETRIC BUDGET FOR ENTIRE MODEL AT END OF TIME STEP    1, STRESS PERIOD   3
  ------------------------------------------------------------------------------

     CUMULATIVE VOLUMES      L**3       RATES FOR THIS TIME STEP      L**3/T
     ------------------                 ------------------------

           IN:                                      IN:
           ---                                      ---
             STORAGE =    27706997.6848               STORAGE =       55493.3050
       CONSTANT HEAD =     5103210.9936         CONSTANT HEAD =       25926.6701
               WELLS =           0.0000                 WELLS =           0.0000
            RECHARGE =     6292800.0000              RECHARGE =           0.0000
      STREAM LEAKAGE =     1743244.2861        STREAM LEAKAGE =        8266.7368

            TOTAL IN =    40846252.9645              TOTAL IN =       89686.7118

          OUT:                                     OUT:
          ----                                     ----
             STORAGE =           0.0000               STORAGE =           0.0000
       CONSTANT HEAD =           0.0000         CONSTANT HEAD =           0.0000
               WELLS =     7796225.1561                 WELLS =       28453.3765
            RECHARGE =           0.0000              RECHARGE =           0.0000
      STREAM LEAKAGE =    33050029.7338        STREAM LEAKAGE =       61233.3428

           TOTAL OUT =    40846254.8899             TOTAL OUT =       89686.7193

            IN - OUT =          -1.9253              IN - OUT =      -7.4605E-03

 PERCENT DISCREPANCY =          -0.00     PERCENT DISCREPANCY =          -0.00






         TIME SUMMARY AT END OF TIME STEP    1 IN STRESS PERIOD    3
                    SECONDS     MINUTES      HOURS       DAYS        YEARS
                    -----------------------------------------------------------
   TIME STEP LENGTH 7.86240E+06 1.31040E+05  2184.0      91.000     0.24914    
 STRESS PERIOD TIME 7.86240E+06 1.31040E+05  2184.0      91.000     0.24914    
         TOTAL TIME 2.36736E+07 3.94560E+05  6576.0      274.00     0.75017    
1
1
                            STRESS PERIOD NO.    4, LENGTH =   91.00000    
                            -----------------------------------------------

                              NUMBER OF TIME STEPS =     1

                               MULTIPLIER FOR DELT =     1.500

                            INITIAL TIME STEP SIZE =   91.00000    

 WELL NO.  LAYER   ROW   COL   STRESS RATE         
 --------------------------------------------------
      1      1     14      6       0.000    
      2      1      3      9       0.000    
      3      1     20     10       0.000    
      4      1     14     20       0.000    
      5      1     22     27      -6314.    
      6      1     16     14     -0.1197E+05
      7      1     11      6      -1537.    
      8      1     17     21      -8632.    

      8 WELLS

                 RECHARGE =  1.000000E-03

 REUSING STREAM SEGMENT DATA FROM LAST STRESS PERIOD
 
 SOLVING FOR HEAD 


     6 CALLS TO PCG ROUTINE FOR TIME STEP   1 IN STRESS PERIOD    4
    23 TOTAL ITERATIONS

 OUTPUT CONTROL FOR STRESS PERIOD    4   TIME STEP    1
    SAVE BUDGET
    SAVE HEAD FOR ALL LAYERS
    PRINT HEAD FOR ALL LAYERS
 UBDSV2 SAVING "STREAMFLOW OUT  " ON UNIT  50 AT TIME STEP  1, STRESS PERIOD   4



 STREAM LISTING     PERIOD      4   STEP        1

 LAYER ROW COL. STREAM  RCH.  FLOW INTO     FLOW TO   FLOW OUT OF   OVRLND.     DIRECT     STREAM       STREAM     STREAM     STREAM   STREAMBED  STREAMBED
                SEG.NO.  NO.  STRM. RCH.    AQUIFER    STRM. RCH.    RUNOFF     PRECIP       ET          HEAD       DEPTH      WIDTH   CONDCTNC.   GRADIENT

   1   13    1     1     1    1.0000E+05 -2.4349E+03   1.0243E+05  0.000E+00  0.000E+00  0.000E+00  4.84071E+01  1.457E-01  2.000E+01  2.000E+04 -1.217E-01
   1   13    2     1     2    1.0243E+05 -3.4447E+03   1.0588E+05  0.000E+00  0.000E+00  0.000E+00  4.79323E+01  1.482E-01  2.000E+01  2.000E+04 -1.722E-01
   1   14    3     1     3    1.0588E+05 -5.6280E+02   1.0644E+05  0.000E+00  0.000E+00  0.000E+00  4.74568E+01  1.499E-01  2.000E+01  2.000E+04 -2.814E-02
   1   15    4     1     4    1.0644E+05 -5.3859E+02   1.0698E+05  0.000E+00  0.000E+00  0.000E+00  4.69799E+01  1.504E-01  2.000E+01  2.000E+04 -2.693E-02
   1   16    5     1     5    1.0698E+05 -2.0224E+03   1.0900E+05  0.000E+00  0.000E+00  0.000E+00  4.65038E+01  1.515E-01  2.000E+01  2.000E+04 -1.011E-01
   1   16    6     1     6    1.0900E+05 -1.2333E+03   1.1024E+05  0.000E+00  0.000E+00  0.000E+00  4.60278E+01  1.528E-01  2.000E+01  2.000E+04 -6.166E-02
   1   16    7     1     7    1.1024E+05 -1.1891E+03   1.1143E+05  0.000E+00  0.000E+00  0.000E+00  4.55516E+01  1.539E-01  2.000E+01  2.000E+04 -5.946E-02
   1   16    8     1     8    1.1143E+05 -1.1557E+03   1.1258E+05  0.000E+00  0.000E+00  0.000E+00  4.50753E+01  1.548E-01  2.000E+01  2.000E+04 -5.778E-02
   1   16    9     1     9    1.1258E+05 -1.0954E+03   1.1368E+05  0.000E+00  0.000E+00  0.000E+00  4.45989E+01  1.558E-01  2.000E+01  2.000E+04 -5.477E-02
   1   16   10     1    10    1.1368E+05 -9.8495E+02   1.1466E+05  0.000E+00  0.000E+00  0.000E+00  4.41225E+01  1.566E-01  2.000E+01  2.000E+04 -4.925E-02
   1   16   11     1    11    1.1466E+05 -7.6645E+02   1.1543E+05  0.000E+00  0.000E+00  0.000E+00  4.36460E+01  1.573E-01  2.000E+01  2.000E+04 -3.832E-02
   1   16   12     1    12    1.1543E+05  3.3455E+02   1.1509E+05  0.000E+00  0.000E+00  0.000E+00  4.31689E+01  1.575E-01  2.000E+01  2.000E+04  1.673E-02
   1   15   13     1    13    1.1509E+05  1.2768E+03   1.1382E+05  0.000E+00  0.000E+00  0.000E+00  4.26909E+01  1.569E-01  2.000E+01  2.000E+04  6.384E-02
   1   14   14     1    14    1.1382E+05 -1.6259E+02   1.1398E+05  0.000E+00  0.000E+00  0.000E+00  4.22132E+01  1.564E-01  2.000E+01  2.000E+04 -8.130E-03
   1   13   15     1    15    1.1398E+05 -1.9468E+03   1.1593E+05  0.000E+00  0.000E+00  0.000E+00  4.17368E+01  1.573E-01  2.000E+01  2.000E+04 -9.734E-02
   1   12   16     1    16    1.1593E+05 -3.3922E+03   1.1932E+05  0.000E+00  0.000E+00  0.000E+00  4.12617E+01  1.594E-01  2.000E+01  2.000E+04 -1.696E-01
   1   12   17     1    17    1.1932E+05 -1.9988E+03   1.2132E+05  0.000E+00  0.000E+00  0.000E+00  4.07866E+01  1.616E-01  2.000E+01  2.000E+04 -9.994E-02
   1   12   18     1    18    1.2132E+05 -1.8790E+03   1.2320E+05  0.000E+00  0.000E+00  0.000E+00  4.03109E+01  1.632E-01  2.000E+01  2.000E+04 -9.395E-02
   1   12   19     1    19    1.2320E+05 -2.6216E+03   1.2582E+05  0.000E+00  0.000E+00  0.000E+00  3.98354E+01  1.650E-01  2.000E+01  2.000E+04 -1.311E-01
   1   13   20     1    20    1.2582E+05 -1.2640E+03   1.2708E+05  0.000E+00  0.000E+00  0.000E+00  3.93597E+01  1.665E-01  2.000E+01  2.000E+04 -6.320E-02
   1   14   21     1    21    1.2708E+05  1.1967E+02   1.2696E+05  0.000E+00  0.000E+00  0.000E+00  3.88829E+01  1.670E-01  2.000E+01  2.000E+04  5.984E-03
   1   14   22     1    22    1.2696E+05  5.1730E+03   1.2179E+05  0.000E+00  0.000E+00  0.000E+00  3.84035E+01  1.649E-01  2.000E+01  2.000E+04  2.586E-01
   1    9   30     2     1    5.0000E+04 -8.9399E+02   5.0894E+04  0.000E+00  0.000E+00  0.000E+00  4.02415E+01  1.165E-01  2.000E+01  2.000E+04 -4.470E-02
   1    9   29     2     2    5.0894E+04 -1.2018E+03   5.2096E+04  0.000E+00  0.000E+00  0.000E+00  3.99929E+01  1.179E-01  2.000E+01  2.000E+04 -6.009E-02
   1    9   28     2     3    5.2096E+04 -1.4813E+03   5.3577E+04  0.000E+00  0.000E+00  0.000E+00  3.97448E+01  1.198E-01  2.000E+01  2.000E+04 -7.407E-02
   1    9   27     2     4    5.3577E+04 -2.9518E+03   5.6529E+04  0.000E+00  0.000E+00  0.000E+00  3.94978E+01  1.228E-01  2.000E+01  2.000E+04 -1.476E-01
   1   10   26     2     5    5.6529E+04 -2.0684E+03   5.8597E+04  0.000E+00  0.000E+00  0.000E+00  3.92511E+01  1.261E-01  2.000E+01  2.000E+04 -1.034E-01
   1   11   25     2     6    5.8597E+04 -1.8304E+03   6.0428E+04  0.000E+00  0.000E+00  0.000E+00  3.90036E+01  1.286E-01  2.000E+01  2.000E+04 -9.152E-02
   1   12   24     2     7    6.0428E+04 -1.8747E+03   6.2302E+04  0.000E+00  0.000E+00  0.000E+00  3.87560E+01  1.310E-01  2.000E+01  2.000E+04 -9.374E-02
   1   13   23     2     8    6.2302E+04 -3.1487E+02   6.2617E+04  0.000E+00  0.000E+00  0.000E+00  3.85074E+01  1.324E-01  2.000E+01  2.000E+04 -1.574E-02
   1   14   22     2     9    6.2617E+04  2.2266E+03   6.0391E+04  0.000E+00  0.000E+00  0.000E+00  3.82562E+01  1.312E-01  2.000E+01  2.000E+04  1.113E-01
   1   14   22     3     1    1.8218E+05 -8.2988E+03   1.9048E+05  0.000E+00  0.000E+00  0.000E+00  3.77299E+01  1.744E-01  2.000E+01  2.000E+04 -4.149E-01
   1   15   23     3     2    1.9048E+05 -1.5742E+02   1.9064E+05  0.000E+00  0.000E+00  0.000E+00  3.68434E+01  1.767E-01  2.000E+01  2.000E+04 -7.871E-03
   1   15   24     3     3    1.9064E+05 -2.1459E+02   1.9085E+05  0.000E+00  0.000E+00  0.000E+00  3.59546E+01  1.768E-01  2.000E+01  2.000E+04 -1.073E-02
   1   15   25     3     4    1.9085E+05 -2.4964E+02   1.9110E+05  0.000E+00  0.000E+00  0.000E+00  3.50659E+01  1.770E-01  2.000E+01  2.000E+04 -1.248E-02
   1   15   26     3     5    1.9110E+05 -3.3089E+02   1.9143E+05  0.000E+00  0.000E+00  0.000E+00  3.41771E+01  1.771E-01  2.000E+01  2.000E+04 -1.654E-02
   1   16   27     3     6    1.9143E+05 -3.3484E+02   1.9177E+05  0.000E+00  0.000E+00  0.000E+00  3.32884E+01  1.773E-01  2.000E+01  2.000E+04 -1.674E-02
   1   17   28     3     7    1.9177E+05 -1.0835E+03   1.9285E+05  0.000E+00  0.000E+00  0.000E+00  3.23999E+01  1.777E-01  2.000E+01  2.000E+04 -5.417E-02
   1   18   29     3     8    1.9285E+05 -1.4894E+03   1.9434E+05  0.000E+00  0.000E+00  0.000E+00  3.15118E+01  1.784E-01  2.000E+01  2.000E+04 -7.447E-02
   1   18   30     3     9    1.9434E+05 -2.2869E+03   1.9663E+05  0.000E+00  0.000E+00  0.000E+00  3.06239E+01  1.795E-01  2.000E+01  2.000E+04 -1.143E-01



1
              HEAD IN LAYER   1 AT END OF TIME STEP   1 IN STRESS PERIOD    4
  ---------------------------------------------------------------------------

          1      2      3      4      5      6      7      8      9     10
         11     12     13     14     15     16     17     18     19     20
         21     22     23     24     25     26     27     28     29     30
 .........................................................................
   1  ****** ****** ****** ****** ****** ****** ****** ****** ****** ******
      ****** ****** ****** ****** ****** ****** ****** ****** ****** ******
      ****** ****** ****** ****** ****** ****** ****** ****** ****** ******
   2  ****** ****** ****** ****** ****** ****** ****** ****** ****** ******
      ****** ****** ****** ****** ****** ****** ****** ****** ****** ******
      ****** ****** ****** ****** ****** ****** ****** ****** ****** ******
   3  ****** ****** ****** ****** ****** ****** ****** ****** ****** ******
      ****** ****** ****** ****** ****** ****** ****** ****** ****** ******
      ****** ****** ****** ****** ****** ****** ****** ****** ****** ******
   4  ****** ****** ****** ****** ****** ****** ****** ****** ****** ******
      ****** ****** ****** ****** ****** ****** ****** ****** ****** ******
      ****** ****** ****** ****** ****** ****** ****** ****** ****** ******
   5  ****** ****** ****** ****** ****** ****** ****** ****** ****** ******
      ****** ****** ****** ****** ****** ****** ****** ****** ****** ******
      ****** ****** ****** ****** ****** ****** ****** ****** ****** ******
   6  ****** ****** ****** ****** ****** ****** ****** ****** ****** ******
      ****** ****** ****** ****** ****** ****** ****** ****** ****** ******
      ****** ****** ****** ****** ****** ****** ****** ****** ****** ******
   7  ****** ****** ****** ****** ****** ****** ****** ****** ****** ******
      ****** ****** ****** ****** ****** ****** ****** ****** ****** ******
      ****** ****** ****** ****** ****** ****** ****** ****** ****** ******
   8  ****** ****** ****** ****** ****** ****** ****** ****** ****** ******
      ****** ****** ****** ****** ****** ****** ****** ****** ****** ******
      ****** ****** ****** ****** ****** ****** ****** ****** ****** ******
   9  ****** ****** ****** ****** ****** ****** ****** ****** ****** ******
      ****** ****** ****** ****** ****** ****** ****** ****** ****** ******
      ****** ****** ****** ****** ****** ****** ****** ****** ****** ******
  10  ****** ****** ****** ****** ****** ****** ****** ****** ****** ******
      ****** ****** ****** ****** ****** ****** ****** ****** ****** ******
      ****** ****** ****** ****** ****** ****** ****** ****** ****** ******
  11  ****** ****** ****** ****** ****** ****** ****** ****** ****** ******
      ****** ****** ****** ****** ****** ****** ****** ****** ****** ******
      ****** ****** ****** ****** ****** ****** ****** ****** ****** ******
  12  ****** ****** ****** ****** ****** ****** ****** ****** ****** ******
      ****** ****** ****** ****** ****** ****** ****** ****** ****** ******
      ****** ****** ****** ****** ****** ****** ****** ****** ****** ******
  13  ****** ****** ****** ****** ****** ****** ****** ****** ****** ******
      ****** ****** ****** ****** ****** ****** ****** ****** ****** ******
      ****** ****** ****** ****** ****** ****** ****** ****** ****** ******
  14  ****** ****** ****** ****** ****** ****** ****** ****** ****** ******
      ****** ****** ****** ****** ****** ****** ****** ****** ****** ******
      ****** ****** ****** ****** ****** ****** ****** ****** ****** ******
  15  ****** ****** ****** ****** ****** ****** ****** ****** ****** ******
      ****** ****** ****** ****** ****** ****** ****** ****** ****** ******
      ****** ****** ****** ****** ****** ****** ****** ****** ****** ******
  16  ****** ****** ****** ****** ****** ****** ****** ****** ****** ******
      ****** ****** ****** ****** ****** ****** ****** ****** ****** ******
      ****** ****** ****** ****** ****** ****** ****** ****** ****** ******
  17  ****** ****** ****** ****** ****** ****** ****** ****** ****** ******
      ****** ****** ****** ****** ****** ****** ****** ****** ****** ******
      ****** ****** ****** ****** ****** ****** ****** ****** ****** ******
  18  ****** ****** ****** ****** ****** ****** ****** ****** ****** ******
      ****** ****** ****** ****** ****** ****** ****** ****** ****** ******
      ****** ****** ****** ****** ****** ****** ****** ****** ****** ******
  19  ****** ****** ****** ****** ****** ****** ****** ****** ****** ******
      ****** ****** ****** ****** ****** ****** ****** ****** ****** ******
      ****** ****** ****** ****** ****** ****** ****** ****** ****** ******
  20  ****** ****** ****** ****** ****** ****** ****** ****** ****** ******
      ****** ****** ****** ****** ****** ****** ****** ****** ****** ******
      ****** ****** ****** ****** ****** ****** ****** ****** ****** ******
  21  ****** ****** ****** ****** ****** ****** ****** ****** ****** ******
      ****** ****** ****** ****** ****** ****** ****** ****** ****** ******
      ****** ****** ****** ****** ****** ****** ****** ****** ****** ******
  22  ****** ****** ****** ****** ****** ****** ****** ****** ****** ******
      ****** ****** ****** ****** ****** ****** ****** ****** ****** ******
      ****** ****** ****** ****** ****** ****** ****** ****** ****** ******
  23  ****** ****** ****** ****** ****** ****** ****** ****** ****** ******
      ****** ****** ****** ****** ****** ****** ****** ****** ****** ******
      ****** ****** ****** ****** ****** ****** ****** ****** ****** ******
  24  ****** ****** ****** ****** ****** ****** ****** ****** ****** ******
      ****** ****** ****** ****** ****** ****** ****** ****** ****** ******
      ****** ****** ****** ****** ****** ****** ****** ****** ****** ******
  25  ****** ****** ****** ****** ****** ****** ****** ****** ****** ******
      ****** ****** ****** ****** ****** ****** ****** ****** ****** ******
      ****** ****** ****** ****** ****** ****** ****** ****** ****** ******

 HEAD WILL BE SAVED ON UNIT   51 AT END OF TIME STEP    1, STRESS PERIOD    4
1
  VOLUMETRIC BUDGET FOR ENTIRE MODEL AT END OF TIME STEP    1, STRESS PERIOD   4
  ------------------------------------------------------------------------------

     CUMULATIVE VOLUMES      L**3       RATES FOR THIS TIME STEP      L**3/T
     ------------------                 ------------------------

           IN:                                      IN:
           ---                                      ---
             STORAGE =    29428415.7300               STORAGE =       18916.6818
       CONSTANT HEAD =     7703618.4987         CONSTANT HEAD =       28575.9066
               WELLS =           0.0000                 WELLS =           0.0000
            RECHARGE =     8804400.0000              RECHARGE =       27600.0000
      STREAM LEAKAGE =     2574120.8359        STREAM LEAKAGE =        9130.5115

            TOTAL IN =    48510555.0646              TOTAL IN =       84223.1000

          OUT:                                     OUT:
          ----                                     ----
             STORAGE =        1207.5847               STORAGE =          13.2702
       CONSTANT HEAD =           0.0000         CONSTANT HEAD =           0.0000
               WELLS =    10385482.4159                 WELLS =       28453.3765
            RECHARGE =           0.0000              RECHARGE =           0.0000
      STREAM LEAKAGE =    38123867.0669        STREAM LEAKAGE =       55756.4542

           TOTAL OUT =    48510557.0675             TOTAL OUT =       84223.1009

            IN - OUT =          -2.0029              IN - OUT =      -8.5278E-04

 PERCENT DISCREPANCY =          -0.00     PERCENT DISCREPANCY =          -0.00






         TIME SUMMARY AT END OF TIME STEP    1 IN STRESS PERIOD    4
                    SECONDS     MINUTES      HOURS       DAYS        YEARS
                    -----------------------------------------------------------
   TIME STEP LENGTH 7.86240E+06 1.31040E+05  2184.0      91.000     0.24914    
 STRESS PERIOD TIME 7.86240E+06 1.31040E+05  2184.0      91.000     0.24914    
         TOTAL TIME 3.15360E+07 5.25600E+05  8760.0      365.00     0.99932    
1
1
                            STRESS PERIOD NO.    5, LENGTH =   92.00000    
                            -----------------------------------------------

                              NUMBER OF TIME STEPS =     1

                               MULTIPLIER FOR DELT =     1.500

                            INITIAL TIME STEP SIZE =   92.00000    

 WELL NO.  LAYER   ROW   COL   STRESS RATE         
 --------------------------------------------------
      1      1     14      6       0.000    
      2      1      3      9       0.000    
      3      1     20     10       0.000    
      4      1     14     20       0.000    
      5      1     22     27      -6314.    
      6      1     16     14     -0.1197E+05
      7      1     11      6      -1537.    
      8      1     17     21      -8632.    

      8 WELLS

                 RECHARGE =  5.000000E-04

 REUSING STREAM SEGMENT DATA FROM LAST STRESS PERIOD
 
 SOLVING FOR HEAD 


     7 CALLS TO PCG ROUTINE FOR TIME STEP   1 IN STRESS PERIOD    5
    26 TOTAL ITERATIONS

 OUTPUT CONTROL FOR STRESS PERIOD    5   TIME STEP    1
    SAVE BUDGET
    SAVE HEAD FOR ALL LAYERS
    PRINT HEAD FOR ALL LAYERS
 UBDSV2 SAVING "STREAMFLOW OUT  " ON UNIT  50 AT TIME STEP  1, STRESS PERIOD   5



 STREAM LISTING     PERIOD      5   STEP        1

 LAYER ROW COL. STREAM  RCH.  FLOW INTO     FLOW TO   FLOW OUT OF   OVRLND.     DIRECT     STREAM       STREAM     STREAM     STREAM   STREAMBED  STREAMBED
                SEG.NO.  NO.  STRM. RCH.    AQUIFER    STRM. RCH.    RUNOFF     PRECIP       ET          HEAD       DEPTH      WIDTH   CONDCTNC.   GRADIENT

   1   13    1     1     1    1.0000E+05 -2.0143E+03   1.0201E+05  0.000E+00  0.000E+00  0.000E+00  4.84069E+01  1.455E-01  2.000E+01  2.000E+04 -1.007E-01
   1   13    2     1     2    1.0201E+05 -2.9656E+03   1.0498E+05  0.000E+00  0.000E+00  0.000E+00  4.79318E+01  1.477E-01  2.000E+01  2.000E+04 -1.483E-01
   1   14    3     1     3    1.0498E+05 -4.3514E+02   1.0542E+05  0.000E+00  0.000E+00  0.000E+00  4.74559E+01  1.491E-01  2.000E+01  2.000E+04 -2.176E-02
   1   15    4     1     4    1.0542E+05 -4.0420E+02   1.0582E+05  0.000E+00  0.000E+00  0.000E+00  4.69790E+01  1.495E-01  2.000E+01  2.000E+04 -2.021E-02
   1   16    5     1     5    1.0582E+05 -1.5796E+03   1.0740E+05  0.000E+00  0.000E+00  0.000E+00  4.65026E+01  1.503E-01  2.000E+01  2.000E+04 -7.898E-02
   1   16    6     1     6    1.0740E+05 -9.7140E+02   1.0837E+05  0.000E+00  0.000E+00  0.000E+00  4.60264E+01  1.514E-01  2.000E+01  2.000E+04 -4.857E-02
   1   16    7     1     7    1.0837E+05 -9.3709E+02   1.0931E+05  0.000E+00  0.000E+00  0.000E+00  4.55499E+01  1.522E-01  2.000E+01  2.000E+04 -4.685E-02
   1   16    8     1     8    1.0931E+05 -9.0698E+02   1.1021E+05  0.000E+00  0.000E+00  0.000E+00  4.50734E+01  1.530E-01  2.000E+01  2.000E+04 -4.535E-02
   1   16    9     1     9    1.1021E+05 -8.4939E+02   1.1106E+05  0.000E+00  0.000E+00  0.000E+00  4.45969E+01  1.537E-01  2.000E+01  2.000E+04 -4.247E-02
   1   16   10     1    10    1.1106E+05 -7.4177E+02   1.1181E+05  0.000E+00  0.000E+00  0.000E+00  4.41203E+01  1.544E-01  2.000E+01  2.000E+04 -3.709E-02
   1   16   11     1    11    1.1181E+05 -5.2111E+02   1.1233E+05  0.000E+00  0.000E+00  0.000E+00  4.36435E+01  1.549E-01  2.000E+01  2.000E+04 -2.606E-02
   1   16   12     1    12    1.1233E+05  7.7683E+02   1.1155E+05  0.000E+00  0.000E+00  0.000E+00  4.31661E+01  1.548E-01  2.000E+01  2.000E+04  3.884E-02
   1   15   13     1    13    1.1155E+05  1.7333E+03   1.0982E+05  0.000E+00  0.000E+00  0.000E+00  4.26878E+01  1.537E-01  2.000E+01  2.000E+04  8.667E-02
   1   14   14     1    14    1.0982E+05  3.1537E+02   1.0950E+05  0.000E+00  0.000E+00  0.000E+00  4.22097E+01  1.529E-01  2.000E+01  2.000E+04  1.577E-02
   1   13   15     1    15    1.0950E+05 -1.4595E+03   1.1096E+05  0.000E+00  0.000E+00  0.000E+00  4.17329E+01  1.534E-01  2.000E+01  2.000E+04 -7.298E-02
   1   12   16     1    16    1.1096E+05 -2.8739E+03   1.1383E+05  0.000E+00  0.000E+00  0.000E+00  4.12574E+01  1.552E-01  2.000E+01  2.000E+04 -1.437E-01
   1   12   17     1    17    1.1383E+05 -1.6464E+03   1.1548E+05  0.000E+00  0.000E+00  0.000E+00  4.07820E+01  1.570E-01  2.000E+01  2.000E+04 -8.232E-02
   1   12   18     1    18    1.1548E+05 -1.5429E+03   1.1702E+05  0.000E+00  0.000E+00  0.000E+00  4.03061E+01  1.583E-01  2.000E+01  2.000E+04 -7.715E-02
   1   12   19     1    19    1.1702E+05 -2.2197E+03   1.1924E+05  0.000E+00  0.000E+00  0.000E+00  3.98303E+01  1.599E-01  2.000E+01  2.000E+04 -1.110E-01
   1   13   20     1    20    1.1924E+05 -8.9564E+02   1.2014E+05  0.000E+00  0.000E+00  0.000E+00  3.93543E+01  1.611E-01  2.000E+01  2.000E+04 -4.478E-02
   1   14   21     1    21    1.2014E+05  5.3502E+02   1.1960E+05  0.000E+00  0.000E+00  0.000E+00  3.88772E+01  1.613E-01  2.000E+01  2.000E+04  2.675E-02
   1   14   22     1    22    1.1960E+05  5.2560E+03   1.1435E+05  0.000E+00  0.000E+00  0.000E+00  3.83976E+01  1.589E-01  2.000E+01  2.000E+04  2.628E-01
   1    9   30     2     1    5.0000E+04 -6.6853E+02   5.0669E+04  0.000E+00  0.000E+00  0.000E+00  4.02413E+01  1.163E-01  2.000E+01  2.000E+04 -3.343E-02
   1    9   29     2     2    5.0669E+04 -9.7312E+02   5.1642E+04  0.000E+00  0.000E+00  0.000E+00  3.99925E+01  1.175E-01  2.000E+01  2.000E+04 -4.866E-02
   1    9   28     2     3    5.1642E+04 -1.2417E+03   5.2883E+04  0.000E+00  0.000E+00  0.000E+00  3.97440E+01  1.190E-01  2.000E+01  2.000E+04 -6.208E-02
   1    9   27     2     4    5.2883E+04 -2.5764E+03   5.5460E+04  0.000E+00  0.000E+00  0.000E+00  3.94966E+01  1.216E-01  2.000E+01  2.000E+04 -1.288E-01
   1   10   26     2     5    5.5460E+04 -1.7395E+03   5.7199E+04  0.000E+00  0.000E+00  0.000E+00  3.92495E+01  1.245E-01  2.000E+01  2.000E+04 -8.697E-02
   1   11   25     2     6    5.7199E+04 -1.5281E+03   5.8727E+04  0.000E+00  0.000E+00  0.000E+00  3.90016E+01  1.266E-01  2.000E+01  2.000E+04 -7.641E-02
   1   12   24     2     7    5.8727E+04 -1.5985E+03   6.0326E+04  0.000E+00  0.000E+00  0.000E+00  3.87536E+01  1.286E-01  2.000E+01  2.000E+04 -7.993E-02
   1   13   23     2     8    6.0326E+04 -2.4753E+02   6.0573E+04  0.000E+00  0.000E+00  0.000E+00  3.85048E+01  1.298E-01  2.000E+01  2.000E+04 -1.238E-02
   1   14   22     2     9    6.0573E+04  2.3741E+03   5.8199E+04  0.000E+00  0.000E+00  0.000E+00  3.82535E+01  1.285E-01  2.000E+01  2.000E+04  1.187E-01
   1   14   22     3     1    1.7255E+05 -8.2066E+03   1.8075E+05  0.000E+00  0.000E+00  0.000E+00  3.77244E+01  1.689E-01  2.000E+01  2.000E+04 -4.103E-01
   1   15   23     3     2    1.8075E+05 -4.7730E+01   1.8080E+05  0.000E+00  0.000E+00  0.000E+00  3.68379E+01  1.712E-01  2.000E+01  2.000E+04 -2.386E-03
   1   15   24     3     3    1.8080E+05 -1.3571E+02   1.8094E+05  0.000E+00  0.000E+00  0.000E+00  3.59491E+01  1.713E-01  2.000E+01  2.000E+04 -6.785E-03
   1   15   25     3     4    1.8094E+05 -1.7212E+02   1.8111E+05  0.000E+00  0.000E+00  0.000E+00  3.50603E+01  1.714E-01  2.000E+01  2.000E+04 -8.606E-03
   1   15   26     3     5    1.8111E+05 -2.5469E+02   1.8136E+05  0.000E+00  0.000E+00  0.000E+00  3.41715E+01  1.715E-01  2.000E+01  2.000E+04 -1.273E-02
   1   16   27     3     6    1.8136E+05 -2.3661E+02   1.8160E+05  0.000E+00  0.000E+00  0.000E+00  3.32827E+01  1.716E-01  2.000E+01  2.000E+04 -1.183E-02
   1   17   28     3     7    1.8160E+05 -7.8683E+02   1.8239E+05  0.000E+00  0.000E+00  0.000E+00  3.23941E+01  1.719E-01  2.000E+01  2.000E+04 -3.934E-02
   1   18   29     3     8    1.8239E+05 -1.0524E+03   1.8344E+05  0.000E+00  0.000E+00  0.000E+00  3.15058E+01  1.724E-01  2.000E+01  2.000E+04 -5.262E-02
   1   18   30     3     9    1.8344E+05 -1.9906E+03   1.8543E+05  0.000E+00  0.000E+00  0.000E+00  3.06177E+01  1.733E-01  2.000E+01  2.000E+04 -9.953E-02



1
              HEAD IN LAYER   1 AT END OF TIME STEP   1 IN STRESS PERIOD    5
  ---------------------------------------------------------------------------

          1      2      3      4      5      6      7      8      9     10
         11     12     13     14     15     16     17     18     19     20
         21     22     23     24     25     26     27     28     29     30
 .........................................................................
   1  ****** ****** ****** ****** ****** ****** ****** ****** ****** ******
      ****** ****** ****** ****** ****** ****** ****** ****** ****** ******
      ****** ****** ****** ****** ****** ****** ****** ****** ****** ******
   2  ****** ****** ****** ****** ****** ****** ****** ****** ****** ******
      ****** ****** ****** ****** ****** ****** ****** ****** ****** ******
      ****** ****** ****** ****** ****** ****** ****** ****** ****** ******
   3  ****** ****** ****** ****** ****** ****** ****** ****** ****** ******
      ****** ****** ****** ****** ****** ****** ****** ****** ****** ******
      ****** ****** ****** ****** ****** ****** ****** ****** ****** ******
   4  ****** ****** ****** ****** ****** ****** ****** ****** ****** ******
      ****** ****** ****** ****** ****** ****** ****** ****** ****** ******
      ****** ****** ****** ****** ****** ****** ****** ****** ****** ******
   5  ****** ****** ****** ****** ****** ****** ****** ****** ****** ******
      ****** ****** ****** ****** ****** ****** ****** ****** ****** ******
      ****** ****** ****** ****** ****** ****** ****** ****** ****** ******
   6  ****** ****** ****** ****** ****** ****** ****** ****** ****** ******
      ****** ****** ****** ****** ****** ****** ****** ****** ****** ******
      ****** ****** ****** ****** ****** ****** ****** ****** ****** ******
   7  ****** ****** ****** ****** ****** ****** ****** ****** ****** ******
      ****** ****** ****** ****** ****** ****** ****** ****** ****** ******
      ****** ****** ****** ****** ****** ****** ****** ****** ****** ******
   8  ****** ****** ****** ****** ****** ****** ****** ****** ****** ******
      ****** ****** ****** ****** ****** ****** ****** ****** ****** ******
      ****** ****** ****** ****** ****** ****** ****** ****** ****** ******
   9  ****** ****** ****** ****** ****** ****** ****** ****** ****** ******
      ****** ****** ****** ****** ****** ****** ****** ****** ****** ******
      ****** ****** ****** ****** ****** ****** ****** ****** ****** ******
  10  ****** ****** ****** ****** ****** ****** ****** ****** ****** ******
      ****** ****** ****** ****** ****** ****** ****** ****** ****** ******
      ****** ****** ****** ****** ****** ****** ****** ****** ****** ******
  11  ****** ****** ****** ****** ****** ****** ****** ****** ****** ******
      ****** ****** ****** ****** ****** ****** ****** ****** ****** ******
      ****** ****** ****** ****** ****** ****** ****** ****** ****** ******
  12  ****** ****** ****** ****** ****** ****** ****** ****** ****** ******
      ****** ****** ****** ****** ****** ****** ****** ****** ****** ******
      ****** ****** ****** ****** ****** ****** ****** ****** ****** ******
  13  ****** ****** ****** ****** ****** ****** ****** ****** ****** ******
      ****** ****** ****** ****** ****** ****** ****** ****** ****** ******
      ****** ****** ****** ****** ****** ****** ****** ****** ****** ******
  14  ****** ****** ****** ****** ****** ****** ****** ****** ****** ******
      ****** ****** ****** ****** ****** ****** ****** ****** ****** ******
      ****** ****** ****** ****** ****** ****** ****** ****** ****** ******
  15  ****** ****** ****** ****** ****** ****** ****** ****** ****** ******
      ****** ****** ****** ****** ****** ****** ****** ****** ****** ******
      ****** ****** ****** ****** ****** ****** ****** ****** ****** ******
  16  ****** ****** ****** ****** ****** ****** ****** ****** ****** ******
      ****** ****** ****** ****** ****** ****** ****** ****** ****** ******
      ****** ****** ****** ****** ****** ****** ****** ****** ****** ******
  17  ****** ****** ****** ****** ****** ****** ****** ****** ****** ******
      ****** ****** ****** ****** ****** ****** ****** ****** ****** ******
      ****** ****** ****** ****** ****** ****** ****** ****** ****** ******
  18  ****** ****** ****** ****** ****** ****** ****** ****** ****** ******
      ****** ****** ****** ****** ****** ****** ****** ****** ****** ******
      ****** ****** ****** ****** ****** ****** ****** ****** ****** ******
  19  ****** ****** ****** ****** ****** ****** ****** ****** ****** ******
      ****** ****** ****** ****** ****** ****** ****** ****** ****** ******
      ****** ****** ****** ****** ****** ****** ****** ****** ****** ******
  20  ****** ****** ****** ****** ****** ****** ****** ****** ****** ******
      ****** ****** ****** ****** ****** ****** ****** ****** ****** ******
      ****** ****** ****** ****** ****** ****** ****** ****** ****** ******
  21  ****** ****** ****** ****** ****** ****** ****** ****** ****** ******
      ****** ****** ****** ****** ****** ****** ****** ****** ****** ******
      ****** ****** ****** ****** ****** ****** ****** ****** ****** ******
  22  ****** ****** ****** ****** ****** ****** ****** ****** ****** ******
      ****** ****** ****** ****** ****** ****** ****** ****** ****** ******
      ****** ****** ****** ****** ****** ****** ****** ****** ****** ******
  23  ****** ****** ****** ****** ****** ****** ****** ****** ****** ******
      ****** ****** ****** ****** ****** ****** ****** ****** ****** ******
      ****** ****** ****** ****** ****** ****** ****** ****** ****** ******
  24  ****** ****** ****** ****** ****** ****** ****** ****** ****** ******
      ****** ****** ****** ****** ****** ****** ****** ****** ****** ******
      ****** ****** ****** ****** ****** ****** ****** ****** ****** ******
  25  ****** ****** ****** ****** ****** ****** ****** ****** ****** ******
      ****** ****** ****** ****** ****** ****** ****** ****** ****** ******
      ****** ****** ****** ****** ****** ****** ****** ****** ****** ******

 HEAD WILL BE SAVED ON UNIT   51 AT END OF TIME STEP    1, STRESS PERIOD    5
1
  VOLUMETRIC BUDGET FOR ENTIRE MODEL AT END OF TIME STEP    1, STRESS PERIOD   5
  ------------------------------------------------------------------------------

     CUMULATIVE VOLUMES      L**3       RATES FOR THIS TIME STEP      L**3/T
     ------------------                 ------------------------

           IN:                                      IN:
           ---                                      ---
             STORAGE =    31135366.9356               STORAGE =       18553.8175
       CONSTANT HEAD =    10604398.8001         CONSTANT HEAD =       31530.2207
               WELLS =           0.0000                 WELLS =           0.0000
            RECHARGE =    10074000.0000              RECHARGE =       13800.0000
      STREAM LEAKAGE =     3585255.6423        STREAM LEAKAGE =       10990.5957

            TOTAL IN =    55399021.3781              TOTAL IN =       74874.6338

          OUT:                                     OUT:
          ----                                     ----
             STORAGE =        1207.5847               STORAGE =           0.0000
       CONSTANT HEAD =           0.0000         CONSTANT HEAD =           0.0000
               WELLS =    13003193.0523                 WELLS =       28453.3765
            RECHARGE =           0.0000              RECHARGE =           0.0000
      STREAM LEAKAGE =    42394623.0362        STREAM LEAKAGE =       46421.2605

           TOTAL OUT =    55399023.6732             TOTAL OUT =       74874.6370

            IN - OUT =          -2.2951              IN - OUT =      -3.1761E-03

 PERCENT DISCREPANCY =          -0.00     PERCENT DISCREPANCY =          -0.00






         TIME SUMMARY AT END OF TIME STEP    1 IN STRESS PERIOD    5
                    SECONDS     MINUTES      HOURS       DAYS        YEARS
                    -----------------------------------------------------------
   TIME STEP LENGTH 7.94880E+06 1.32480E+05  2208.0      92.000     0.25188    
 STRESS PERIOD TIME 7.94880E+06 1.32480E+05  2208.0      92.000     0.25188    
         TOTAL TIME 3.94848E+07 6.58080E+05  10968.      457.00      1.2512    
1
1
                            STRESS PERIOD NO.    6, LENGTH =   91.00000    
                            -----------------------------------------------

                              NUMBER OF TIME STEPS =     1

                               MULTIPLIER FOR DELT =     1.500

                            INITIAL TIME STEP SIZE =   91.00000    

 WELL NO.  LAYER   ROW   COL   STRESS RATE         
 --------------------------------------------------
      1      1     14      6       0.000    
      2      1      3      9       0.000    
      3      1     20     10       0.000    
      4      1     14     20       0.000    
      5      1     22     27      -6314.    
      6      1     16     14     -0.1197E+05
      7      1     11      6      -1537.    
      8      1     17     21      -8632.    

      8 WELLS

                 RECHARGE =  2.000000E-03

 REUSING STREAM SEGMENT DATA FROM LAST STRESS PERIOD
 
 SOLVING FOR HEAD 


     7 CALLS TO PCG ROUTINE FOR TIME STEP   1 IN STRESS PERIOD    6
    26 TOTAL ITERATIONS

 OUTPUT CONTROL FOR STRESS PERIOD    6   TIME STEP    1
    SAVE BUDGET
    SAVE HEAD FOR ALL LAYERS
    PRINT HEAD FOR ALL LAYERS
 UBDSV2 SAVING "STREAMFLOW OUT  " ON UNIT  50 AT TIME STEP  1, STRESS PERIOD   6



 STREAM LISTING     PERIOD      6   STEP        1

 LAYER ROW COL. STREAM  RCH.  FLOW INTO     FLOW TO   FLOW OUT OF   OVRLND.     DIRECT     STREAM       STREAM     STREAM     STREAM   STREAMBED  STREAMBED
                SEG.NO.  NO.  STRM. RCH.    AQUIFER    STRM. RCH.    RUNOFF     PRECIP       ET          HEAD       DEPTH      WIDTH   CONDCTNC.   GRADIENT

   1   13    1     1     1    1.0000E+05 -2.3268E+03   1.0233E+05  0.000E+00  0.000E+00  0.000E+00  4.84070E+01  1.457E-01  2.000E+01  2.000E+04 -1.163E-01
   1   13    2     1     2    1.0233E+05 -3.3057E+03   1.0563E+05  0.000E+00  0.000E+00  0.000E+00  4.79322E+01  1.481E-01  2.000E+01  2.000E+04 -1.653E-01
   1   14    3     1     3    1.0563E+05 -5.8707E+02   1.0622E+05  0.000E+00  0.000E+00  0.000E+00  4.74566E+01  1.497E-01  2.000E+01  2.000E+04 -2.935E-02
   1   15    4     1     4    1.0622E+05 -5.6740E+02   1.0679E+05  0.000E+00  0.000E+00  0.000E+00  4.69798E+01  1.502E-01  2.000E+01  2.000E+04 -2.837E-02
   1   16    5     1     5    1.0679E+05 -2.0689E+03   1.0886E+05  0.000E+00  0.000E+00  0.000E+00  4.65036E+01  1.513E-01  2.000E+01  2.000E+04 -1.034E-01
   1   16    6     1     6    1.0886E+05 -1.2571E+03   1.1011E+05  0.000E+00  0.000E+00  0.000E+00  4.60277E+01  1.527E-01  2.000E+01  2.000E+04 -6.285E-02
   1   16    7     1     7    1.1011E+05 -1.2072E+03   1.1132E+05  0.000E+00  0.000E+00  0.000E+00  4.55515E+01  1.538E-01  2.000E+01  2.000E+04 -6.036E-02
   1   16    8     1     8    1.1132E+05 -1.1724E+03   1.1249E+05  0.000E+00  0.000E+00  0.000E+00  4.50752E+01  1.548E-01  2.000E+01  2.000E+04 -5.862E-02
   1   16    9     1     9    1.1249E+05 -1.1142E+03   1.1361E+05  0.000E+00  0.000E+00  0.000E+00  4.45989E+01  1.557E-01  2.000E+01  2.000E+04 -5.571E-02
   1   16   10     1    10    1.1361E+05 -1.0080E+03   1.1461E+05  0.000E+00  0.000E+00  0.000E+00  4.41225E+01  1.566E-01  2.000E+01  2.000E+04 -5.040E-02
   1   16   11     1    11    1.1461E+05 -7.8981E+02   1.1540E+05  0.000E+00  0.000E+00  0.000E+00  4.36459E+01  1.573E-01  2.000E+01  2.000E+04 -3.949E-02
   1   16   12     1    12    1.1540E+05  3.4559E+02   1.1506E+05  0.000E+00  0.000E+00  0.000E+00  4.31689E+01  1.575E-01  2.000E+01  2.000E+04  1.728E-02
   1   15   13     1    13    1.1506E+05  1.2880E+03   1.1377E+05  0.000E+00  0.000E+00  0.000E+00  4.26909E+01  1.568E-01  2.000E+01  2.000E+04  6.440E-02
   1   14   14     1    14    1.1377E+05 -1.2837E+02   1.1390E+05  0.000E+00  0.000E+00  0.000E+00  4.22132E+01  1.563E-01  2.000E+01  2.000E+04 -6.419E-03
   1   13   15     1    15    1.1390E+05 -1.8882E+03   1.1579E+05  0.000E+00  0.000E+00  0.000E+00  4.17367E+01  1.572E-01  2.000E+01  2.000E+04 -9.441E-02
   1   12   16     1    16    1.1579E+05 -3.2645E+03   1.1905E+05  0.000E+00  0.000E+00  0.000E+00  4.12616E+01  1.593E-01  2.000E+01  2.000E+04 -1.632E-01
   1   12   17     1    17    1.1905E+05 -1.9615E+03   1.2101E+05  0.000E+00  0.000E+00  0.000E+00  4.07864E+01  1.614E-01  2.000E+01  2.000E+04 -9.807E-02
   1   12   18     1    18    1.2101E+05 -1.8614E+03   1.2287E+05  0.000E+00  0.000E+00  0.000E+00  4.03107E+01  1.629E-01  2.000E+01  2.000E+04 -9.307E-02
   1   12   19     1    19    1.2287E+05 -2.6182E+03   1.2549E+05  0.000E+00  0.000E+00  0.000E+00  3.98352E+01  1.647E-01  2.000E+01  2.000E+04 -1.309E-01
   1   13   20     1    20    1.2549E+05 -1.3113E+03   1.2680E+05  0.000E+00  0.000E+00  0.000E+00  3.93595E+01  1.663E-01  2.000E+01  2.000E+04 -6.556E-02
   1   14   21     1    21    1.2680E+05  1.4204E+02   1.2666E+05  0.000E+00  0.000E+00  0.000E+00  3.88827E+01  1.667E-01  2.000E+01  2.000E+04  7.102E-03
   1   14   22     1    22    1.2666E+05  5.1539E+03   1.2151E+05  0.000E+00  0.000E+00  0.000E+00  3.84033E+01  1.646E-01  2.000E+01  2.000E+04  2.577E-01
   1    9   30     2     1    5.0000E+04 -1.0357E+03   5.1036E+04  0.000E+00  0.000E+00  0.000E+00  4.02416E+01  1.166E-01  2.000E+01  2.000E+04 -5.179E-02
   1    9   29     2     2    5.1036E+04 -1.3361E+03   5.2372E+04  0.000E+00  0.000E+00  0.000E+00  3.99932E+01  1.182E-01  2.000E+01  2.000E+04 -6.681E-02
   1    9   28     2     3    5.2372E+04 -1.5985E+03   5.3970E+04  0.000E+00  0.000E+00  0.000E+00  3.97452E+01  1.202E-01  2.000E+01  2.000E+04 -7.992E-02
   1    9   27     2     4    5.3970E+04 -3.0303E+03   5.7001E+04  0.000E+00  0.000E+00  0.000E+00  3.94983E+01  1.233E-01  2.000E+01  2.000E+04 -1.515E-01
   1   10   26     2     5    5.7001E+04 -2.2157E+03   5.9216E+04  0.000E+00  0.000E+00  0.000E+00  3.92518E+01  1.268E-01  2.000E+01  2.000E+04 -1.108E-01
   1   11   25     2     6    5.9216E+04 -1.9889E+03   6.1205E+04  0.000E+00  0.000E+00  0.000E+00  3.90045E+01  1.295E-01  2.000E+01  2.000E+04 -9.945E-02
   1   12   24     2     7    6.1205E+04 -2.0141E+03   6.3219E+04  0.000E+00  0.000E+00  0.000E+00  3.87571E+01  1.321E-01  2.000E+01  2.000E+04 -1.007E-01
   1   13   23     2     8    6.3219E+04 -3.8621E+02   6.3606E+04  0.000E+00  0.000E+00  0.000E+00  3.85086E+01  1.336E-01  2.000E+01  2.000E+04 -1.931E-02
   1   14   22     2     9    6.3606E+04  2.2371E+03   6.1368E+04  0.000E+00  0.000E+00  0.000E+00  3.82574E+01  1.324E-01  2.000E+01  2.000E+04  1.119E-01
   1   14   22     3     1    1.8288E+05 -8.3055E+03   1.9118E+05  0.000E+00  0.000E+00  0.000E+00  3.77303E+01  1.748E-01  2.000E+01  2.000E+04 -4.153E-01
   1   15   23     3     2    1.9118E+05 -1.7951E+02   1.9136E+05  0.000E+00  0.000E+00  0.000E+00  3.68438E+01  1.771E-01  2.000E+01  2.000E+04 -8.976E-03
   1   15   24     3     3    1.9136E+05 -2.5428E+02   1.9162E+05  0.000E+00  0.000E+00  0.000E+00  3.59550E+01  1.772E-01  2.000E+01  2.000E+04 -1.271E-02
   1   15   25     3     4    1.9162E+05 -2.9548E+02   1.9191E+05  0.000E+00  0.000E+00  0.000E+00  3.50663E+01  1.774E-01  2.000E+01  2.000E+04 -1.477E-02
   1   15   26     3     5    1.9191E+05 -4.0408E+02   1.9232E+05  0.000E+00  0.000E+00  0.000E+00  3.41776E+01  1.776E-01  2.000E+01  2.000E+04 -2.020E-02
   1   16   27     3     6    1.9232E+05 -4.0158E+02   1.9272E+05  0.000E+00  0.000E+00  0.000E+00  3.32889E+01  1.778E-01  2.000E+01  2.000E+04 -2.008E-02
   1   17   28     3     7    1.9272E+05 -1.2363E+03   1.9395E+05  0.000E+00  0.000E+00  0.000E+00  3.24005E+01  1.783E-01  2.000E+01  2.000E+04 -6.182E-02
   1   18   29     3     8    1.9395E+05 -1.4632E+03   1.9542E+05  0.000E+00  0.000E+00  0.000E+00  3.15124E+01  1.790E-01  2.000E+01  2.000E+04 -7.316E-02
   1   18   30     3     9    1.9542E+05 -2.3293E+03   1.9775E+05  0.000E+00  0.000E+00  0.000E+00  3.06245E+01  1.801E-01  2.000E+01  2.000E+04 -1.165E-01



1
              HEAD IN LAYER   1 AT END OF TIME STEP   1 IN STRESS PERIOD    6
  ---------------------------------------------------------------------------

          1      2      3      4      5      6      7      8      9     10
         11     12     13     14     15     16     17     18     19     20
         21     22     23     24     25     26     27     28     29     30
 .........................................................................
   1  ****** ****** ****** ****** ****** ****** ****** ****** ****** ******
      ****** ****** ****** ****** ****** ****** ****** ****** ****** ******
      ****** ****** ****** ****** ****** ****** ****** ****** ****** ******
   2  ****** ****** ****** ****** ****** ****** ****** ****** ****** ******
      ****** ****** ****** ****** ****** ****** ****** ****** ****** ******
      ****** ****** ****** ****** ****** ****** ****** ****** ****** ******
   3  ****** ****** ****** ****** ****** ****** ****** ****** ****** ******
      ****** ****** ****** ****** ****** ****** ****** ****** ****** ******
      ****** ****** ****** ****** ****** ****** ****** ****** ****** ******
   4  ****** ****** ****** ****** ****** ****** ****** ****** ****** ******
      ****** ****** ****** ****** ****** ****** ****** ****** ****** ******
      ****** ****** ****** ****** ****** ****** ****** ****** ****** ******
   5  ****** ****** ****** ****** ****** ****** ****** ****** ****** ******
      ****** ****** ****** ****** ****** ****** ****** ****** ****** ******
      ****** ****** ****** ****** ****** ****** ****** ****** ****** ******
   6  ****** ****** ****** ****** ****** ****** ****** ****** ****** ******
      ****** ****** ****** ****** ****** ****** ****** ****** ****** ******
      ****** ****** ****** ****** ****** ****** ****** ****** ****** ******
   7  ****** ****** ****** ****** ****** ****** ****** ****** ****** ******
      ****** ****** ****** ****** ****** ****** ****** ****** ****** ******
      ****** ****** ****** ****** ****** ****** ****** ****** ****** ******
   8  ****** ****** ****** ****** ****** ****** ****** ****** ****** ******
      ****** ****** ****** ****** ****** ****** ****** ****** ****** ******
      ****** ****** ****** ****** ****** ****** ****** ****** ****** ******
   9  ****** ****** ****** ****** ****** ****** ****** ****** ****** ******
      ****** ****** ****** ****** ****** ****** ****** ****** ****** ******
      ****** ****** ****** ****** ****** ****** ****** ****** ****** ******
  10  ****** ****** ****** ****** ****** ****** ****** ****** ****** ******
      ****** ****** ****** ****** ****** ****** ****** ****** ****** ******
      ****** ****** ****** ****** ****** ****** ****** ****** ****** ******
  11  ****** ****** ****** ****** ****** ****** ****** ****** ****** ******
      ****** ****** ****** ****** ****** ****** ****** ****** ****** ******
      ****** ****** ****** ****** ****** ****** ****** ****** ****** ******
  12  ****** ****** ****** ****** ****** ****** ****** ****** ****** ******
      ****** ****** ****** ****** ****** ****** ****** ****** ****** ******
      ****** ****** ****** ****** ****** ****** ****** ****** ****** ******
  13  ****** ****** ****** ****** ****** ****** ****** ****** ****** ******
      ****** ****** ****** ****** ****** ****** ****** ****** ****** ******
      ****** ****** ****** ****** ****** ****** ****** ****** ****** ******
  14  ****** ****** ****** ****** ****** ****** ****** ****** ****** ******
      ****** ****** ****** ****** ****** ****** ****** ****** ****** ******
      ****** ****** ****** ****** ****** ****** ****** ****** ****** ******
  15  ****** ****** ****** ****** ****** ****** ****** ****** ****** ******
      ****** ****** ****** ****** ****** ****** ****** ****** ****** ******
      ****** ****** ****** ****** ****** ****** ****** ****** ****** ******
  16  ****** ****** ****** ****** ****** ****** ****** ****** ****** ******
      ****** ****** ****** ****** ****** ****** ****** ****** ****** ******
      ****** ****** ****** ****** ****** ****** ****** ****** ****** ******
  17  ****** ****** ****** ****** ****** ****** ****** ****** ****** ******
      ****** ****** ****** ****** ****** ****** ****** ****** ****** ******
      ****** ****** ****** ****** ****** ****** ****** ****** ****** ******
  18  ****** ****** ****** ****** ****** ****** ****** ****** ****** ******
      ****** ****** ****** ****** ****** ****** ****** ****** ****** ******
      ****** ****** ****** ****** ****** ****** ****** ****** ****** ******
  19  ****** ****** ****** ****** ****** ****** ****** ****** ****** ******
      ****** ****** ****** ****** ****** ****** ****** ****** ****** ******
      ****** ****** ****** ****** ****** ****** ****** ****** ****** ******
  20  ****** ****** ****** ****** ****** ****** ****** ****** ****** ******
      ****** ****** ****** ****** ****** ****** ****** ****** ****** ******
      ****** ****** ****** ****** ****** ****** ****** ****** ****** ******
  21  ****** ****** ****** ****** ****** ****** ****** ****** ****** ******
      ****** ****** ****** ****** ****** ****** ****** ****** ****** ******
      ****** ****** ****** ****** ****** ****** ****** ****** ****** ******
  22  ****** ****** ****** ****** ****** ****** ****** ****** ****** ******
      ****** ****** ****** ****** ****** ****** ****** ****** ****** ******
      ****** ****** ****** ****** ****** ****** ****** ****** ****** ******
  23  ****** ****** ****** ****** ****** ****** ****** ****** ****** ******
      ****** ****** ****** ****** ****** ****** ****** ****** ****** ******
      ****** ****** ****** ****** ****** ****** ****** ****** ****** ******
  24  ****** ****** ****** ****** ****** ****** ****** ****** ****** ******
      ****** ****** ****** ****** ****** ****** ****** ****** ****** ******
      ****** ****** ****** ****** ****** ****** ****** ****** ****** ******
  25  ****** ****** ****** ****** ****** ****** ****** ****** ****** ******
      ****** ****** ****** ****** ****** ****** ****** ****** ****** ******
      ****** ****** ****** ****** ****** ****** ****** ****** ****** ******

 HEAD WILL BE SAVED ON UNIT   51 AT END OF TIME STEP    1, STRESS PERIOD    6
1
  VOLUMETRIC BUDGET FOR ENTIRE MODEL AT END OF TIME STEP    1, STRESS PERIOD   6
  ------------------------------------------------------------------------------

     CUMULATIVE VOLUMES      L**3       RATES FOR THIS TIME STEP      L**3/T
     ------------------                 ------------------------

           IN:                                      IN:
           ---                                      ---
             STORAGE =    31135366.9356               STORAGE =           0.0000
       CONSTANT HEAD =    13301819.0636         CONSTANT HEAD =       29641.9809
               WELLS =           0.0000                 WELLS =           0.0000
            RECHARGE =    15097200.0000              RECHARGE =       55200.0000
      STREAM LEAKAGE =     4419420.0785        STREAM LEAKAGE =        9166.6422

            TOTAL IN =    63953806.0777              TOTAL IN =       94008.6231

          OUT:                                     OUT:
          ----                                     ----
             STORAGE =      787674.3585               STORAGE =        8642.4920
       CONSTANT HEAD =           0.0000         CONSTANT HEAD =           0.0000
               WELLS =    15592450.3122                 WELLS =       28453.3765
            RECHARGE =           0.0000              RECHARGE =           0.0000
      STREAM LEAKAGE =    47573683.4429        STREAM LEAKAGE =       56912.7517

           TOTAL OUT =    63953808.1136             TOTAL OUT =       94008.6202

            IN - OUT =          -2.0359              IN - OUT =       2.8490E-03

 PERCENT DISCREPANCY =          -0.00     PERCENT DISCREPANCY =           0.00






         TIME SUMMARY AT END OF TIME STEP    1 IN STRESS PERIOD    6
                    SECONDS     MINUTES      HOURS       DAYS        YEARS
                    -----------------------------------------------------------
   TIME STEP LENGTH 7.86240E+06 1.31040E+05  2184.0      91.000     0.24914    
 STRESS PERIOD TIME 7.86240E+06 1.31040E+05  2184.0      91.000     0.24914    
         TOTAL TIME 4.73472E+07 7.89120E+05  13152.      548.00      1.5003    
1
1
                            STRESS PERIOD NO.    7, LENGTH =   91.00000    
                            -----------------------------------------------

                              NUMBER OF TIME STEPS =     1

                               MULTIPLIER FOR DELT =     1.500

                            INITIAL TIME STEP SIZE =   91.00000    

 WELL NO.  LAYER   ROW   COL   STRESS RATE         
 --------------------------------------------------
      1      1     14      6       0.000    
      2      1      3      9       0.000    
      3      1     20     10       0.000    
      4      1     14     20       0.000    
      5      1     22     27      -6314.    
      6      1     16     14     -0.1197E+05
      7      1     11      6      -1537.    
      8      1     17     21      -8632.    

      8 WELLS

                 RECHARGE =   0.00000    

 REUSING STREAM SEGMENT DATA FROM LAST STRESS PERIOD
 
 SOLVING FOR HEAD 


     7 CALLS TO PCG ROUTINE FOR TIME STEP   1 IN STRESS PERIOD    7
    26 TOTAL ITERATIONS

 OUTPUT CONTROL FOR STRESS PERIOD    7   TIME STEP    1
    SAVE BUDGET
    SAVE HEAD FOR ALL LAYERS
    PRINT HEAD FOR ALL LAYERS
 UBDSV2 SAVING "STREAMFLOW OUT  " ON UNIT  50 AT TIME STEP  1, STRESS PERIOD   7



 STREAM LISTING     PERIOD      7   STEP        1

 LAYER ROW COL. STREAM  RCH.  FLOW INTO     FLOW TO   FLOW OUT OF   OVRLND.     DIRECT     STREAM       STREAM     STREAM     STREAM   STREAMBED  STREAMBED
                SEG.NO.  NO.  STRM. RCH.    AQUIFER    STRM. RCH.    RUNOFF     PRECIP       ET          HEAD       DEPTH      WIDTH   CONDCTNC.   GRADIENT

   1   13    1     1     1    1.0000E+05 -1.6602E+03   1.0166E+05  0.000E+00  0.000E+00  0.000E+00  4.84067E+01  1.454E-01  2.000E+01  2.000E+04 -8.301E-02
   1   13    2     1     2    1.0166E+05 -2.5589E+03   1.0422E+05  0.000E+00  0.000E+00  0.000E+00  4.79313E+01  1.472E-01  2.000E+01  2.000E+04 -1.279E-01
   1   14    3     1     3    1.0422E+05 -3.3357E+02   1.0455E+05  0.000E+00  0.000E+00  0.000E+00  4.74552E+01  1.484E-01  2.000E+01  2.000E+04 -1.668E-02
   1   15    4     1     4    1.0455E+05 -3.0297E+02   1.0486E+05  0.000E+00  0.000E+00  0.000E+00  4.69782E+01  1.487E-01  2.000E+01  2.000E+04 -1.515E-02
   1   16    5     1     5    1.0486E+05 -1.3114E+03   1.0617E+05  0.000E+00  0.000E+00  0.000E+00  4.65017E+01  1.494E-01  2.000E+01  2.000E+04 -6.557E-02
   1   16    6     1     6    1.0617E+05 -7.9948E+02   1.0697E+05  0.000E+00  0.000E+00  0.000E+00  4.60253E+01  1.503E-01  2.000E+01  2.000E+04 -3.997E-02
   1   16    7     1     7    1.0697E+05 -7.6783E+02   1.0773E+05  0.000E+00  0.000E+00  0.000E+00  4.55487E+01  1.509E-01  2.000E+01  2.000E+04 -3.839E-02
   1   16    8     1     8    1.0773E+05 -7.3886E+02   1.0847E+05  0.000E+00  0.000E+00  0.000E+00  4.50720E+01  1.516E-01  2.000E+01  2.000E+04 -3.694E-02
   1   16    9     1     9    1.0847E+05 -6.8377E+02   1.0916E+05  0.000E+00  0.000E+00  0.000E+00  4.45954E+01  1.522E-01  2.000E+01  2.000E+04 -3.419E-02
   1   16   10     1    10    1.0916E+05 -5.7984E+02   1.0974E+05  0.000E+00  0.000E+00  0.000E+00  4.41186E+01  1.527E-01  2.000E+01  2.000E+04 -2.899E-02
   1   16   11     1    11    1.0974E+05 -3.6001E+02   1.1010E+05  0.000E+00  0.000E+00  0.000E+00  4.36417E+01  1.531E-01  2.000E+01  2.000E+04 -1.800E-02
   1   16   12     1    12    1.1010E+05  1.0691E+03   1.0903E+05  0.000E+00  0.000E+00  0.000E+00  4.31642E+01  1.528E-01  2.000E+01  2.000E+04  5.346E-02
   1   15   13     1    13    1.0903E+05  2.0610E+03   1.0697E+05  0.000E+00  0.000E+00  0.000E+00  4.26856E+01  1.515E-01  2.000E+01  2.000E+04  1.030E-01
   1   14   14     1    14    1.0697E+05  6.7028E+02   1.0630E+05  0.000E+00  0.000E+00  0.000E+00  4.22072E+01  1.503E-01  2.000E+01  2.000E+04  3.351E-02
   1   13   15     1    15    1.0630E+05 -1.0901E+03   1.0739E+05  0.000E+00  0.000E+00  0.000E+00  4.17301E+01  1.505E-01  2.000E+01  2.000E+04 -5.450E-02
   1   12   16     1    16    1.0739E+05 -2.4773E+03   1.0986E+05  0.000E+00  0.000E+00  0.000E+00  4.12543E+01  1.520E-01  2.000E+01  2.000E+04 -1.239E-01
   1   12   17     1    17    1.0986E+05 -1.3871E+03   1.1125E+05  0.000E+00  0.000E+00  0.000E+00  4.07786E+01  1.536E-01  2.000E+01  2.000E+04 -6.935E-02
   1   12   18     1    18    1.1125E+05 -1.3006E+03   1.1255E+05  0.000E+00  0.000E+00  0.000E+00  4.03025E+01  1.547E-01  2.000E+01  2.000E+04 -6.503E-02
   1   12   19     1    19    1.1255E+05 -1.9345E+03   1.1449E+05  0.000E+00  0.000E+00  0.000E+00  3.98265E+01  1.561E-01  2.000E+01  2.000E+04 -9.673E-02
   1   13   20     1    20    1.1449E+05 -6.3920E+02   1.1513E+05  0.000E+00  0.000E+00  0.000E+00  3.93503E+01  1.571E-01  2.000E+01  2.000E+04 -3.196E-02
   1   14   21     1    21    1.1513E+05  8.1209E+02   1.1431E+05  0.000E+00  0.000E+00  0.000E+00  3.88730E+01  1.571E-01  2.000E+01  2.000E+04  4.060E-02
   1   14   22     1    22    1.1431E+05  5.3095E+03   1.0900E+05  0.000E+00  0.000E+00  0.000E+00  3.83932E+01  1.545E-01  2.000E+01  2.000E+04  2.655E-01
   1    9   30     2     1    5.0000E+04 -5.2414E+02   5.0524E+04  0.000E+00  0.000E+00  0.000E+00  4.02412E+01  1.162E-01  2.000E+01  2.000E+04 -2.621E-02
   1    9   29     2     2    5.0524E+04 -8.2644E+02   5.1351E+04  0.000E+00  0.000E+00  0.000E+00  3.99922E+01  1.172E-01  2.000E+01  2.000E+04 -4.132E-02
   1    9   28     2     3    5.1351E+04 -1.0877E+03   5.2438E+04  0.000E+00  0.000E+00  0.000E+00  3.97435E+01  1.185E-01  2.000E+01  2.000E+04 -5.439E-02
   1    9   27     2     4    5.2438E+04 -2.3376E+03   5.4776E+04  0.000E+00  0.000E+00  0.000E+00  3.94958E+01  1.208E-01  2.000E+01  2.000E+04 -1.169E-01
   1   10   26     2     5    5.4776E+04 -1.5202E+03   5.6296E+04  0.000E+00  0.000E+00  0.000E+00  3.92484E+01  1.234E-01  2.000E+01  2.000E+04 -7.601E-02
   1   11   25     2     6    5.6296E+04 -1.3216E+03   5.7618E+04  0.000E+00  0.000E+00  0.000E+00  3.90003E+01  1.253E-01  2.000E+01  2.000E+04 -6.608E-02
   1   12   24     2     7    5.7618E+04 -1.4057E+03   5.9023E+04  0.000E+00  0.000E+00  0.000E+00  3.87521E+01  1.271E-01  2.000E+01  2.000E+04 -7.029E-02
   1   13   23     2     8    5.9023E+04 -1.9475E+02   5.9218E+04  0.000E+00  0.000E+00  0.000E+00  3.85031E+01  1.281E-01  2.000E+01  2.000E+04 -9.738E-03
   1   14   22     2     9    5.9218E+04  2.4784E+03   5.6740E+04  0.000E+00  0.000E+00  0.000E+00  3.82516E+01  1.266E-01  2.000E+01  2.000E+04  1.239E-01
   1   14   22     3     1    1.6574E+05 -8.1446E+03   1.7389E+05  0.000E+00  0.000E+00  0.000E+00  3.77205E+01  1.649E-01  2.000E+01  2.000E+04 -4.072E-01
   1   15   23     3     2    1.7389E+05  2.9484E+01   1.7386E+05  0.000E+00  0.000E+00  0.000E+00  3.68339E+01  1.673E-01  2.000E+01  2.000E+04  1.474E-03
   1   15   24     3     3    1.7386E+05 -7.9066E+01   1.7394E+05  0.000E+00  0.000E+00  0.000E+00  3.59451E+01  1.673E-01  2.000E+01  2.000E+04 -3.953E-03
   1   15   25     3     4    1.7394E+05 -1.1734E+02   1.7406E+05  0.000E+00  0.000E+00  0.000E+00  3.50562E+01  1.673E-01  2.000E+01  2.000E+04 -5.867E-03
   1   15   26     3     5    1.7406E+05 -2.0194E+02   1.7426E+05  0.000E+00  0.000E+00  0.000E+00  3.41674E+01  1.674E-01  2.000E+01  2.000E+04 -1.010E-02
   1   16   27     3     6    1.7426E+05 -1.6749E+02   1.7442E+05  0.000E+00  0.000E+00  0.000E+00  3.32787E+01  1.675E-01  2.000E+01  2.000E+04 -8.374E-03
   1   17   28     3     7    1.7442E+05 -5.8866E+02   1.7501E+05  0.000E+00  0.000E+00  0.000E+00  3.23900E+01  1.678E-01  2.000E+01  2.000E+04 -2.943E-02
   1   18   29     3     8    1.7501E+05 -7.6369E+02   1.7578E+05  0.000E+00  0.000E+00  0.000E+00  3.15015E+01  1.682E-01  2.000E+01  2.000E+04 -3.818E-02
   1   18   30     3     9    1.7578E+05 -1.7927E+03   1.7757E+05  0.000E+00  0.000E+00  0.000E+00  3.06133E+01  1.689E-01  2.000E+01  2.000E+04 -8.963E-02



1
              HEAD IN LAYER   1 AT END OF TIME STEP   1 IN STRESS PERIOD    7
  ---------------------------------------------------------------------------

          1      2      3      4      5      6      7      8      9     10
         11     12     13     14     15     16     17     18     19     20
         21     22     23     24     25     26     27     28     29     30
 .........................................................................
   1  ****** ****** ****** ****** ****** ****** ****** ****** ****** ******
      ****** ****** ****** ****** ****** ****** ****** ****** ****** ******
      ****** ****** ****** ****** ****** ****** ****** ****** ****** ******
   2  ****** ****** ****** ****** ****** ****** ****** ****** ****** ******
      ****** ****** ****** ****** ****** ****** ****** ****** ****** ******
      ****** ****** ****** ****** ****** ****** ****** ****** ****** ******
   3  ****** ****** ****** ****** ****** ****** ****** ****** ****** ******
      ****** ****** ****** ****** ****** ****** ****** ****** ****** ******
      ****** ****** ****** ****** ****** ****** ****** ****** ****** ******
   4  ****** ****** ****** ****** ****** ****** ****** ****** ****** ******
      ****** ****** ****** ****** ****** ****** ****** ****** ****** ******
      ****** ****** ****** ****** ****** ****** ****** ****** ****** ******
   5  ****** ****** ****** ****** ****** ****** ****** ****** ****** ******
      ****** ****** ****** ****** ****** ****** ****** ****** ****** ******
      ****** ****** ****** ****** ****** ****** ****** ****** ****** ******
   6  ****** ****** ****** ****** ****** ****** ****** ****** ****** ******
      ****** ****** ****** ****** ****** ****** ****** ****** ****** ******
      ****** ****** ****** ****** ****** ****** ****** ****** ****** ******
   7  ****** ****** ****** ****** ****** ****** ****** ****** ****** ******
      ****** ****** ****** ****** ****** ****** ****** ****** ****** ******
      ****** ****** ****** ****** ****** ****** ****** ****** ****** ******
   8  ****** ****** ****** ****** ****** ****** ****** ****** ****** ******
      ****** ****** ****** ****** ****** ****** ****** ****** ****** ******
      ****** ****** ****** ****** ****** ****** ****** ****** ****** ******
   9  ****** ****** ****** ****** ****** ****** ****** ****** ****** ******
      ****** ****** ****** ****** ****** ****** ****** ****** ****** ******
      ****** ****** ****** ****** ****** ****** ****** ****** ****** ******
  10  ****** ****** ****** ****** ****** ****** ****** ****** ****** ******
      ****** ****** ****** ****** ****** ****** ****** ****** ****** ******
      ****** ****** ****** ****** ****** ****** ****** ****** ****** ******
  11  ****** ****** ****** ****** ****** ****** ****** ****** ****** ******
      ****** ****** ****** ****** ****** ****** ****** ****** ****** ******
      ****** ****** ****** ****** ****** ****** ****** ****** ****** ******
  12  ****** ****** ****** ****** ****** ****** ****** ****** ****** ******
      ****** ****** ****** ****** ****** ****** ****** ****** ****** ******
      ****** ****** ****** ****** ****** ****** ****** ****** ****** ******
  13  ****** ****** ****** ****** ****** ****** ****** ****** ****** ******
      ****** ****** ****** ****** ****** ****** ****** ****** ****** ******
      ****** ****** ****** ****** ****** ****** ****** ****** ****** ******
  14  ****** ****** ****** ****** ****** ****** ****** ****** ****** ******
      ****** ****** ****** ****** ****** ****** ****** ****** ****** ******
      ****** ****** ****** ****** ****** ****** ****** ****** ****** ******
  15  ****** ****** ****** ****** ****** ****** ****** ****** ****** ******
      ****** ****** ****** ****** ****** ****** ****** ****** ****** ******
      ****** ****** ****** ****** ****** ****** ****** ****** ****** ******
  16  ****** ****** ****** ****** ****** ****** ****** ****** ****** ******
      ****** ****** ****** ****** ****** ****** ****** ****** ****** ******
      ****** ****** ****** ****** ****** ****** ****** ****** ****** ******
  17  ****** ****** ****** ****** ****** ****** ****** ****** ****** ******
      ****** ****** ****** ****** ****** ****** ****** ****** ****** ******
      ****** ****** ****** ****** ****** ****** ****** ****** ****** ******
  18  ****** ****** ****** ****** ****** ****** ****** ****** ****** ******
      ****** ****** ****** ****** ****** ****** ****** ****** ****** ******
      ****** ****** ****** ****** ****** ****** ****** ****** ****** ******
  19  ****** ****** ****** ****** ****** ****** ****** ****** ****** ******
      ****** ****** ****** ****** ****** ****** ****** ****** ****** ******
      ****** ****** ****** ****** ****** ****** ****** ****** ****** ******
  20  ****** ****** ****** ****** ****** ****** ****** ****** ****** ******
      ****** ****** ****** ****** ****** ****** ****** ****** ****** ******
      ****** ****** ****** ****** ****** ****** ****** ****** ****** ******
  21  ****** ****** ****** ****** ****** ****** ****** ****** ****** ******
      ****** ****** ****** ****** ****** ****** ****** ****** ****** ******
      ****** ****** ****** ****** ****** ****** ****** ****** ****** ******
  22  ****** ****** ****** ****** ****** ****** ****** ****** ****** ******
      ****** ****** ****** ****** ****** ****** ****** ****** ****** ******
      ****** ****** ****** ****** ****** ****** ****** ****** ****** ******
  23  ****** ****** ****** ****** ****** ****** ****** ****** ****** ******
      ****** ****** ****** ****** ****** ****** ****** ****** ****** ******
      ****** ****** ****** ****** ****** ****** ****** ****** ****** ******
  24  ****** ****** ****** ****** ****** ****** ****** ****** ****** ******
      ****** ****** ****** ****** ****** ****** ****** ****** ****** ******
      ****** ****** ****** ****** ****** ****** ****** ****** ****** ******
  25  ****** ****** ****** ****** ****** ****** ****** ****** ****** ******
      ****** ****** ****** ****** ****** ****** ****** ****** ****** ******
      ****** ****** ****** ****** ****** ****** ****** ****** ****** ******

 HEAD WILL BE SAVED ON UNIT   51 AT END OF TIME STEP    1, STRESS PERIOD    7
1
  VOLUMETRIC BUDGET FOR ENTIRE MODEL AT END OF TIME STEP    1, STRESS PERIOD   7
  ------------------------------------------------------------------------------

     CUMULATIVE VOLUMES      L**3       RATES FOR THIS TIME STEP      L**3/T
     ------------------                 ------------------------

           IN:                                      IN:
           ---                                      ---
             STORAGE =    33177785.8211               STORAGE =       22444.1636
       CONSTANT HEAD =    16357479.0233         CONSTANT HEAD =       33578.6809
               WELLS =           0.0000                 WELLS =           0.0000
            RECHARGE =    15097200.0000              RECHARGE =           0.0000
      STREAM LEAKAGE =     5550532.7707        STREAM LEAKAGE =       12429.8098

            TOTAL IN =    70182997.6151              TOTAL IN =       68452.6543

          OUT:                                     OUT:
          ----                                     ----
             STORAGE =      787674.3585               STORAGE =           0.0000
       CONSTANT HEAD =           0.0000         CONSTANT HEAD =           0.0000
               WELLS =    18181707.5720                 WELLS =       28453.3765
            RECHARGE =           0.0000              RECHARGE =           0.0000
      STREAM LEAKAGE =    51213618.2225        STREAM LEAKAGE =       39999.2833

           TOTAL OUT =    70183000.1530             TOTAL OUT =       68452.6598

            IN - OUT =          -2.5379              IN - OUT =      -5.5172E-03

 PERCENT DISCREPANCY =          -0.00     PERCENT DISCREPANCY =          -0.00






         TIME SUMMARY AT END OF TIME STEP    1 IN STRESS PERIOD    7
                    SECONDS     MINUTES      HOURS       DAYS        YEARS
                    -----------------------------------------------------------
   TIME STEP LENGTH 7.86240E+06 1.31040E+05  2184.0      91.000     0.24914    
 STRESS PERIOD TIME 7.86240E+06 1.31040E+05  2184.0      91.000     0.24914    
         TOTAL TIME 5.52096E+07 9.20160E+05  15336.      639.00      1.7495    
1
1
                            STRESS PERIOD NO.    8, LENGTH =   91.00000    
                            -----------------------------------------------

                              NUMBER OF TIME STEPS =     1

                               MULTIPLIER FOR DELT =     1.500

                            INITIAL TIME STEP SIZE =   91.00000    

 WELL NO.  LAYER   ROW   COL   STRESS RATE         
 --------------------------------------------------
      1      1     14      6       0.000    
      2      1      3      9       0.000    
      3      1     20     10       0.000    
      4      1     14     20       0.000    
      5      1     22     27      -6314.    
      6      1     16     14     -0.1197E+05
      7      1     11      6      -1537.    
      8      1     17     21      -8632.    

      8 WELLS

                 RECHARGE =  1.000000E-03

 REUSING STREAM SEGMENT DATA FROM LAST STRESS PERIOD
 
 SOLVING FOR HEAD 


     6 CALLS TO PCG ROUTINE FOR TIME STEP   1 IN STRESS PERIOD    8
    22 TOTAL ITERATIONS

 OUTPUT CONTROL FOR STRESS PERIOD    8   TIME STEP    1
    SAVE BUDGET
    SAVE HEAD FOR ALL LAYERS
    PRINT HEAD FOR ALL LAYERS
 UBDSV2 SAVING "STREAMFLOW OUT  " ON UNIT  50 AT TIME STEP  1, STRESS PERIOD   8



 STREAM LISTING     PERIOD      8   STEP        1

 LAYER ROW COL. STREAM  RCH.  FLOW INTO     FLOW TO   FLOW OUT OF   OVRLND.     DIRECT     STREAM       STREAM     STREAM     STREAM   STREAMBED  STREAMBED
                SEG.NO.  NO.  STRM. RCH.    AQUIFER    STRM. RCH.    RUNOFF     PRECIP       ET          HEAD       DEPTH      WIDTH   CONDCTNC.   GRADIENT

   1   13    1     1     1    1.0000E+05 -1.7339E+03   1.0173E+05  0.000E+00  0.000E+00  0.000E+00  4.84068E+01  1.454E-01  2.000E+01  2.000E+04 -8.669E-02
   1   13    2     1     2    1.0173E+05 -2.6315E+03   1.0437E+05  0.000E+00  0.000E+00  0.000E+00  4.79314E+01  1.473E-01  2.000E+01  2.000E+04 -1.316E-01
   1   14    3     1     3    1.0437E+05 -3.9678E+02   1.0476E+05  0.000E+00  0.000E+00  0.000E+00  4.74554E+01  1.486E-01  2.000E+01  2.000E+04 -1.984E-02
   1   15    4     1     4    1.0476E+05 -3.7070E+02   1.0513E+05  0.000E+00  0.000E+00  0.000E+00  4.69784E+01  1.489E-01  2.000E+01  2.000E+04 -1.854E-02
   1   16    5     1     5    1.0513E+05 -1.4829E+03   1.0662E+05  0.000E+00  0.000E+00  0.000E+00  4.65020E+01  1.497E-01  2.000E+01  2.000E+04 -7.414E-02
   1   16    6     1     6    1.0662E+05 -9.0460E+02   1.0752E+05  0.000E+00  0.000E+00  0.000E+00  4.60257E+01  1.507E-01  2.000E+01  2.000E+04 -4.523E-02
   1   16    7     1     7    1.0752E+05 -8.6787E+02   1.0839E+05  0.000E+00  0.000E+00  0.000E+00  4.55492E+01  1.514E-01  2.000E+01  2.000E+04 -4.339E-02
   1   16    8     1     8    1.0839E+05 -8.3802E+02   1.0923E+05  0.000E+00  0.000E+00  0.000E+00  4.50726E+01  1.522E-01  2.000E+01  2.000E+04 -4.190E-02
   1   16    9     1     9    1.0923E+05 -7.8408E+02   1.1001E+05  0.000E+00  0.000E+00  0.000E+00  4.45960E+01  1.528E-01  2.000E+01  2.000E+04 -3.920E-02
   1   16   10     1    10    1.1001E+05 -6.8262E+02   1.1069E+05  0.000E+00  0.000E+00  0.000E+00  4.41194E+01  1.535E-01  2.000E+01  2.000E+04 -3.413E-02
   1   16   11     1    11    1.1069E+05 -4.6567E+02   1.1116E+05  0.000E+00  0.000E+00  0.000E+00  4.36426E+01  1.539E-01  2.000E+01  2.000E+04 -2.328E-02
   1   16   12     1    12    1.1116E+05  9.1207E+02   1.1025E+05  0.000E+00  0.000E+00  0.000E+00  4.31651E+01  1.538E-01  2.000E+01  2.000E+04  4.560E-02
   1   15   13     1    13    1.1025E+05  1.8959E+03   1.0835E+05  0.000E+00  0.000E+00  0.000E+00  4.26867E+01  1.526E-01  2.000E+01  2.000E+04  9.480E-02
   1   14   14     1    14    1.0835E+05  5.1133E+02   1.0784E+05  0.000E+00  0.000E+00  0.000E+00  4.22084E+01  1.516E-01  2.000E+01  2.000E+04  2.557E-02
   1   13   15     1    15    1.0784E+05 -1.2373E+03   1.0908E+05  0.000E+00  0.000E+00  0.000E+00  4.17314E+01  1.519E-01  2.000E+01  2.000E+04 -6.186E-02
   1   12   16     1    16    1.0908E+05 -2.5885E+03   1.1167E+05  0.000E+00  0.000E+00  0.000E+00  4.12557E+01  1.535E-01  2.000E+01  2.000E+04 -1.294E-01
   1   12   17     1    17    1.1167E+05 -1.4979E+03   1.1316E+05  0.000E+00  0.000E+00  0.000E+00  4.07802E+01  1.552E-01  2.000E+01  2.000E+04 -7.489E-02
   1   12   18     1    18    1.1316E+05 -1.4180E+03   1.1458E+05  0.000E+00  0.000E+00  0.000E+00  4.03041E+01  1.564E-01  2.000E+01  2.000E+04 -7.090E-02
   1   12   19     1    19    1.1458E+05 -2.0835E+03   1.1666E+05  0.000E+00  0.000E+00  0.000E+00  3.98283E+01  1.578E-01  2.000E+01  2.000E+04 -1.042E-01
   1   13   20     1    20    1.1666E+05 -8.1498E+02   1.1748E+05  0.000E+00  0.000E+00  0.000E+00  3.93522E+01  1.590E-01  2.000E+01  2.000E+04 -4.075E-02
   1   14   21     1    21    1.1748E+05  6.5908E+02   1.1682E+05  0.000E+00  0.000E+00  0.000E+00  3.88750E+01  1.591E-01  2.000E+01  2.000E+04  3.295E-02
   1   14   22     1    22    1.1682E+05  5.2634E+03   1.1156E+05  0.000E+00  0.000E+00  0.000E+00  3.83953E+01  1.566E-01  2.000E+01  2.000E+04  2.632E-01
   1    9   30     2     1    5.0000E+04 -6.8798E+02   5.0688E+04  0.000E+00  0.000E+00  0.000E+00  4.02413E+01  1.163E-01  2.000E+01  2.000E+04 -3.440E-02
   1    9   29     2     2    5.0688E+04 -9.8753E+02   5.1676E+04  0.000E+00  0.000E+00  0.000E+00  3.99925E+01  1.175E-01  2.000E+01  2.000E+04 -4.938E-02
   1    9   28     2     3    5.1676E+04 -1.2433E+03   5.2919E+04  0.000E+00  0.000E+00  0.000E+00  3.97440E+01  1.190E-01  2.000E+01  2.000E+04 -6.217E-02
   1    9   27     2     4    5.2919E+04 -2.5171E+03   5.5436E+04  0.000E+00  0.000E+00  0.000E+00  3.94966E+01  1.216E-01  2.000E+01  2.000E+04 -1.259E-01
   1   10   26     2     5    5.5436E+04 -1.7263E+03   5.7162E+04  0.000E+00  0.000E+00  0.000E+00  3.92494E+01  1.244E-01  2.000E+01  2.000E+04 -8.632E-02
   1   11   25     2     6    5.7162E+04 -1.5261E+03   5.8688E+04  0.000E+00  0.000E+00  0.000E+00  3.90016E+01  1.266E-01  2.000E+01  2.000E+04 -7.631E-02
   1   12   24     2     7    5.8688E+04 -1.5913E+03   6.0280E+04  0.000E+00  0.000E+00  0.000E+00  3.87536E+01  1.286E-01  2.000E+01  2.000E+04 -7.957E-02
   1   13   23     2     8    6.0280E+04 -2.6913E+02   6.0549E+04  0.000E+00  0.000E+00  0.000E+00  3.85048E+01  1.298E-01  2.000E+01  2.000E+04 -1.346E-02
   1   14   22     2     9    6.0549E+04  2.4259E+03   5.8123E+04  0.000E+00  0.000E+00  0.000E+00  3.82534E+01  1.284E-01  2.000E+01  2.000E+04  1.213E-01
   1   14   22     3     1    1.6968E+05 -8.1866E+03   1.7787E+05  0.000E+00  0.000E+00  0.000E+00  3.77228E+01  1.672E-01  2.000E+01  2.000E+04 -4.093E-01
   1   15   23     3     2    1.7787E+05 -3.3165E+01   1.7790E+05  0.000E+00  0.000E+00  0.000E+00  3.68362E+01  1.696E-01  2.000E+01  2.000E+04 -1.658E-03
   1   15   24     3     3    1.7790E+05 -1.3862E+02   1.7804E+05  0.000E+00  0.000E+00  0.000E+00  3.59474E+01  1.696E-01  2.000E+01  2.000E+04 -6.931E-03
   1   15   25     3     4    1.7804E+05 -1.7870E+02   1.7822E+05  0.000E+00  0.000E+00  0.000E+00  3.50586E+01  1.697E-01  2.000E+01  2.000E+04 -8.935E-03
   1   15   26     3     5    1.7822E+05 -2.7602E+02   1.7849E+05  0.000E+00  0.000E+00  0.000E+00  3.41699E+01  1.699E-01  2.000E+01  2.000E+04 -1.380E-02
   1   16   27     3     6    1.7849E+05 -2.4824E+02   1.7874E+05  0.000E+00  0.000E+00  0.000E+00  3.32811E+01  1.700E-01  2.000E+01  2.000E+04 -1.241E-02
   1   17   28     3     7    1.7874E+05 -7.8870E+02   1.7953E+05  0.000E+00  0.000E+00  0.000E+00  3.23925E+01  1.703E-01  2.000E+01  2.000E+04 -3.943E-02
   1   18   29     3     8    1.7953E+05 -9.2121E+02   1.8045E+05  0.000E+00  0.000E+00  0.000E+00  3.15041E+01  1.708E-01  2.000E+01  2.000E+04 -4.606E-02
   1   18   30     3     9    1.8045E+05 -1.9345E+03   1.8239E+05  0.000E+00  0.000E+00  0.000E+00  3.06160E+01  1.716E-01  2.000E+01  2.000E+04 -9.673E-02



1
              HEAD IN LAYER   1 AT END OF TIME STEP   1 IN STRESS PERIOD    8
  ---------------------------------------------------------------------------

          1      2      3      4      5      6      7      8      9     10
         11     12     13     14     15     16     17     18     19     20
         21     22     23     24     25     26     27     28     29     30
 .........................................................................
   1  ****** ****** ****** ****** ****** ****** ****** ****** ****** ******
      ****** ****** ****** ****** ****** ****** ****** ****** ****** ******
      ****** ****** ****** ****** ****** ****** ****** ****** ****** ******
   2  ****** ****** ****** ****** ****** ****** ****** ****** ****** ******
      ****** ****** ****** ****** ****** ****** ****** ****** ****** ******
      ****** ****** ****** ****** ****** ****** ****** ****** ****** ******
   3  ****** ****** ****** ****** ****** ****** ****** ****** ****** ******
      ****** ****** ****** ****** ****** ****** ****** ****** ****** ******
      ****** ****** ****** ****** ****** ****** ****** ****** ****** ******
   4  ****** ****** ****** ****** ****** ****** ****** ****** ****** ******
      ****** ****** ****** ****** ****** ****** ****** ****** ****** ******
      ****** ****** ****** ****** ****** ****** ****** ****** ****** ******
   5  ****** ****** ****** ****** ****** ****** ****** ****** ****** ******
      ****** ****** ****** ****** ****** ****** ****** ****** ****** ******
      ****** ****** ****** ****** ****** ****** ****** ****** ****** ******
   6  ****** ****** ****** ****** ****** ****** ****** ****** ****** ******
      ****** ****** ****** ****** ****** ****** ****** ****** ****** ******
      ****** ****** ****** ****** ****** ****** ****** ****** ****** ******
   7  ****** ****** ****** ****** ****** ****** ****** ****** ****** ******
      ****** ****** ****** ****** ****** ****** ****** ****** ****** ******
      ****** ****** ****** ****** ****** ****** ****** ****** ****** ******
   8  ****** ****** ****** ****** ****** ****** ****** ****** ****** ******
      ****** ****** ****** ****** ****** ****** ****** ****** ****** ******
      ****** ****** ****** ****** ****** ****** ****** ****** ****** ******
   9  ****** ****** ****** ****** ****** ****** ****** ****** ****** ******
      ****** ****** ****** ****** ****** ****** ****** ****** ****** ******
      ****** ****** ****** ****** ****** ****** ****** ****** ****** ******
  10  ****** ****** ****** ****** ****** ****** ****** ****** ****** ******
      ****** ****** ****** ****** ****** ****** ****** ****** ****** ******
      ****** ****** ****** ****** ****** ****** ****** ****** ****** ******
  11  ****** ****** ****** ****** ****** ****** ****** ****** ****** ******
      ****** ****** ****** ****** ****** ****** ****** ****** ****** ******
      ****** ****** ****** ****** ****** ****** ****** ****** ****** ******
  12  ****** ****** ****** ****** ****** ****** ****** ****** ****** ******
      ****** ****** ****** ****** ****** ****** ****** ****** ****** ******
      ****** ****** ****** ****** ****** ****** ****** ****** ****** ******
  13  ****** ****** ****** ****** ****** ****** ****** ****** ****** ******
      ****** ****** ****** ****** ****** ****** ****** ****** ****** ******
      ****** ****** ****** ****** ****** ****** ****** ****** ****** ******
  14  ****** ****** ****** ****** ****** ****** ****** ****** ****** ******
      ****** ****** ****** ****** ****** ****** ****** ****** ****** ******
      ****** ****** ****** ****** ****** ****** ****** ****** ****** ******
  15  ****** ****** ****** ****** ****** ****** ****** ****** ****** ******
      ****** ****** ****** ****** ****** ****** ****** ****** ****** ******
      ****** ****** ****** ****** ****** ****** ****** ****** ****** ******
  16  ****** ****** ****** ****** ****** ****** ****** ****** ****** ******
      ****** ****** ****** ****** ****** ****** ****** ****** ****** ******
      ****** ****** ****** ****** ****** ****** ****** ****** ****** ******
  17  ****** ****** ****** ****** ****** ****** ****** ****** ****** ******
      ****** ****** ****** ****** ****** ****** ****** ****** ****** ******
      ****** ****** ****** ****** ****** ****** ****** ****** ****** ******
  18  ****** ****** ****** ****** ****** ****** ****** ****** ****** ******
      ****** ****** ****** ****** ****** ****** ****** ****** ****** ******
      ****** ****** ****** ****** ****** ****** ****** ****** ****** ******
  19  ****** ****** ****** ****** ****** ****** ****** ****** ****** ******
      ****** ****** ****** ****** ****** ****** ****** ****** ****** ******
      ****** ****** ****** ****** ****** ****** ****** ****** ****** ******
  20  ****** ****** ****** ****** ****** ****** ****** ****** ****** ******
      ****** ****** ****** ****** ****** ****** ****** ****** ****** ******
      ****** ****** ****** ****** ****** ****** ****** ****** ****** ******
  21  ****** ****** ****** ****** ****** ****** ****** ****** ****** ******
      ****** ****** ****** ****** ****** ****** ****** ****** ****** ******
      ****** ****** ****** ****** ****** ****** ****** ****** ****** ******
  22  ****** ****** ****** ****** ****** ****** ****** ****** ****** ******
      ****** ****** ****** ****** ****** ****** ****** ****** ****** ******
      ****** ****** ****** ****** ****** ****** ****** ****** ****** ******
  23  ****** ****** ****** ****** ****** ****** ****** ****** ****** ******
      ****** ****** ****** ****** ****** ****** ****** ****** ****** ******
      ****** ****** ****** ****** ****** ****** ****** ****** ****** ******
  24  ****** ****** ****** ****** ****** ****** ****** ****** ****** ******
      ****** ****** ****** ****** ****** ****** ****** ****** ****** ******
      ****** ****** ****** ****** ****** ****** ****** ****** ****** ******
  25  ****** ****** ****** ****** ****** ****** ****** ****** ****** ******
      ****** ****** ****** ****** ****** ****** ****** ****** ****** ******
      ****** ****** ****** ****** ****** ****** ****** ****** ****** ******

 HEAD WILL BE SAVED ON UNIT   51 AT END OF TIME STEP    1, STRESS PERIOD    8
1
  VOLUMETRIC BUDGET FOR ENTIRE MODEL AT END OF TIME STEP    1, STRESS PERIOD   8
  ------------------------------------------------------------------------------

     CUMULATIVE VOLUMES      L**3       RATES FOR THIS TIME STEP      L**3/T
     ------------------                 ------------------------

           IN:                                      IN:
           ---                                      ---
             STORAGE =    33308761.9081               STORAGE =        1439.2977
       CONSTANT HEAD =    19386790.8466         CONSTANT HEAD =       33289.1409
               WELLS =           0.0000                 WELLS =           0.0000
            RECHARGE =    17608800.0000              RECHARGE =       27600.0000
      STREAM LEAKAGE =     6612294.7770        STREAM LEAKAGE =       11667.7144

            TOTAL IN =    76916647.5317              TOTAL IN =       73996.1529

          OUT:                                     OUT:
          ----                                     ----
             STORAGE =      923215.8167               STORAGE =        1489.4666
       CONSTANT HEAD =           0.0000         CONSTANT HEAD =           0.0000
               WELLS =    20770964.8319                 WELLS =       28453.3765
            RECHARGE =           0.0000              RECHARGE =           0.0000
      STREAM LEAKAGE =    55222468.6698        STREAM LEAKAGE =       44053.3016

           TOTAL OUT =    76916649.3184             TOTAL OUT =       73996.1447

            IN - OUT =          -1.7867              IN - OUT =       8.2556E-03

 PERCENT DISCREPANCY =          -0.00     PERCENT DISCREPANCY =           0.00






         TIME SUMMARY AT END OF TIME STEP    1 IN STRESS PERIOD    8
                    SECONDS     MINUTES      HOURS       DAYS        YEARS
                    -----------------------------------------------------------
   TIME STEP LENGTH 7.86240E+06 1.31040E+05  2184.0      91.000     0.24914    
 STRESS PERIOD TIME 7.86240E+06 1.31040E+05  2184.0      91.000     0.24914    
         TOTAL TIME 6.30720E+07 1.05120E+06  17520.      730.00      1.9986    
1
1
                            STRESS PERIOD NO.    9, LENGTH =   92.00000    
                            -----------------------------------------------

                              NUMBER OF TIME STEPS =     1

                               MULTIPLIER FOR DELT =     1.500

                            INITIAL TIME STEP SIZE =   92.00000    

 WELL NO.  LAYER   ROW   COL   STRESS RATE         
 --------------------------------------------------
      1      1     14      6       0.000    
      2      1      3      9       0.000    
      3      1     20     10       0.000    
      4      1     14     20       0.000    
      5      1     22     27      -6314.    
      6      1     16     14     -0.1197E+05
      7      1     11      6      -1537.    
      8      1     17     21      -8632.    

      8 WELLS

                 RECHARGE =  5.000000E-04

 REUSING STREAM SEGMENT DATA FROM LAST STRESS PERIOD
 
 SOLVING FOR HEAD 


     6 CALLS TO PCG ROUTINE FOR TIME STEP   1 IN STRESS PERIOD    9
    23 TOTAL ITERATIONS

 OUTPUT CONTROL FOR STRESS PERIOD    9   TIME STEP    1
    SAVE BUDGET
    SAVE HEAD FOR ALL LAYERS
    PRINT HEAD FOR ALL LAYERS
 UBDSV2 SAVING "STREAMFLOW OUT  " ON UNIT  50 AT TIME STEP  1, STRESS PERIOD   9



 STREAM LISTING     PERIOD      9   STEP        1

 LAYER ROW COL. STREAM  RCH.  FLOW INTO     FLOW TO   FLOW OUT OF   OVRLND.     DIRECT     STREAM       STREAM     STREAM     STREAM   STREAMBED  STREAMBED
                SEG.NO.  NO.  STRM. RCH.    AQUIFER    STRM. RCH.    RUNOFF     PRECIP       ET          HEAD       DEPTH      WIDTH   CONDCTNC.   GRADIENT

   1   13    1     1     1    1.0000E+05 -1.5198E+03   1.0152E+05  0.000E+00  0.000E+00  0.000E+00  4.84067E+01  1.453E-01  2.000E+01  2.000E+04 -7.599E-02
   1   13    2     1     2    1.0152E+05 -2.3887E+03   1.0391E+05  0.000E+00  0.000E+00  0.000E+00  4.79311E+01  1.470E-01  2.000E+01  2.000E+04 -1.194E-01
   1   14    3     1     3    1.0391E+05 -3.2554E+02   1.0423E+05  0.000E+00  0.000E+00  0.000E+00  4.74550E+01  1.482E-01  2.000E+01  2.000E+04 -1.628E-02
   1   15    4     1     4    1.0423E+05 -2.9836E+02   1.0453E+05  0.000E+00  0.000E+00  0.000E+00  4.69780E+01  1.484E-01  2.000E+01  2.000E+04 -1.492E-02
   1   16    5     1     5    1.0453E+05 -1.2891E+03   1.0582E+05  0.000E+00  0.000E+00  0.000E+00  4.65014E+01  1.491E-01  2.000E+01  2.000E+04 -6.446E-02
   1   16    6     1     6    1.0582E+05 -7.8366E+02   1.0661E+05  0.000E+00  0.000E+00  0.000E+00  4.60250E+01  1.500E-01  2.000E+01  2.000E+04 -3.918E-02
   1   16    7     1     7    1.0661E+05 -7.5060E+02   1.0736E+05  0.000E+00  0.000E+00  0.000E+00  4.55484E+01  1.506E-01  2.000E+01  2.000E+04 -3.753E-02
   1   16    8     1     8    1.0736E+05 -7.2226E+02   1.0808E+05  0.000E+00  0.000E+00  0.000E+00  4.50717E+01  1.512E-01  2.000E+01  2.000E+04 -3.611E-02
   1   16    9     1     9    1.0808E+05 -6.6992E+02   1.0875E+05  0.000E+00  0.000E+00  0.000E+00  4.45950E+01  1.518E-01  2.000E+01  2.000E+04 -3.350E-02
   1   16   10     1    10    1.0875E+05 -5.7046E+02   1.0932E+05  0.000E+00  0.000E+00  0.000E+00  4.41183E+01  1.524E-01  2.000E+01  2.000E+04 -2.852E-02
   1   16   11     1    11    1.0932E+05 -3.5442E+02   1.0967E+05  0.000E+00  0.000E+00  0.000E+00  4.36414E+01  1.527E-01  2.000E+01  2.000E+04 -1.772E-02
   1   16   12     1    12    1.0967E+05  1.1027E+03   1.0857E+05  0.000E+00  0.000E+00  0.000E+00  4.31638E+01  1.524E-01  2.000E+01  2.000E+04  5.513E-02
   1   15   13     1    13    1.0857E+05  2.1070E+03   1.0646E+05  0.000E+00  0.000E+00  0.000E+00  4.26852E+01  1.511E-01  2.000E+01  2.000E+04  1.054E-01
   1   14   14     1    14    1.0646E+05  7.3525E+02   1.0573E+05  0.000E+00  0.000E+00  0.000E+00  4.22067E+01  1.499E-01  2.000E+01  2.000E+04  3.676E-02
   1   13   15     1    15    1.0573E+05 -1.0083E+03   1.0674E+05  0.000E+00  0.000E+00  0.000E+00  4.17295E+01  1.500E-01  2.000E+01  2.000E+04 -5.042E-02
   1   12   16     1    16    1.0674E+05 -2.3527E+03   1.0909E+05  0.000E+00  0.000E+00  0.000E+00  4.12537E+01  1.514E-01  2.000E+01  2.000E+04 -1.176E-01
   1   12   17     1    17    1.0909E+05 -1.3355E+03   1.1042E+05  0.000E+00  0.000E+00  0.000E+00  4.07780E+01  1.530E-01  2.000E+01  2.000E+04 -6.677E-02
   1   12   18     1    18    1.1042E+05 -1.2630E+03   1.1169E+05  0.000E+00  0.000E+00  0.000E+00  4.03018E+01  1.540E-01  2.000E+01  2.000E+04 -6.315E-02
   1   12   19     1    19    1.1169E+05 -1.8973E+03   1.1358E+05  0.000E+00  0.000E+00  0.000E+00  3.98258E+01  1.554E-01  2.000E+01  2.000E+04 -9.486E-02
   1   13   20     1    20    1.1358E+05 -6.4055E+02   1.1423E+05  0.000E+00  0.000E+00  0.000E+00  3.93496E+01  1.564E-01  2.000E+01  2.000E+04 -3.203E-02
   1   14   21     1    21    1.1423E+05  8.3335E+02   1.1339E+05  0.000E+00  0.000E+00  0.000E+00  3.88722E+01  1.563E-01  2.000E+01  2.000E+04  4.167E-02
   1   14   22     1    22    1.1339E+05  5.3011E+03   1.0809E+05  0.000E+00  0.000E+00  0.000E+00  3.83924E+01  1.538E-01  2.000E+01  2.000E+04  2.651E-01
   1    9   30     2     1    5.0000E+04 -5.6516E+02   5.0565E+04  0.000E+00  0.000E+00  0.000E+00  4.02413E+01  1.163E-01  2.000E+01  2.000E+04 -2.826E-02
   1    9   29     2     2    5.0565E+04 -8.6451E+02   5.1430E+04  0.000E+00  0.000E+00  0.000E+00  3.99922E+01  1.172E-01  2.000E+01  2.000E+04 -4.323E-02
   1    9   28     2     3    5.1430E+04 -1.1185E+03   5.2548E+04  0.000E+00  0.000E+00  0.000E+00  3.97436E+01  1.186E-01  2.000E+01  2.000E+04 -5.592E-02
   1    9   27     2     4    5.2548E+04 -2.3417E+03   5.4890E+04  0.000E+00  0.000E+00  0.000E+00  3.94960E+01  1.210E-01  2.000E+01  2.000E+04 -1.171E-01
   1   10   26     2     5    5.4890E+04 -1.5536E+03   5.6443E+04  0.000E+00  0.000E+00  0.000E+00  3.92486E+01  1.236E-01  2.000E+01  2.000E+04 -7.768E-02
   1   11   25     2     6    5.6443E+04 -1.3607E+03   5.7804E+04  0.000E+00  0.000E+00  0.000E+00  3.90005E+01  1.255E-01  2.000E+01  2.000E+04 -6.804E-02
   1   12   24     2     7    5.7804E+04 -1.4393E+03   5.9243E+04  0.000E+00  0.000E+00  0.000E+00  3.87523E+01  1.273E-01  2.000E+01  2.000E+04 -7.196E-02
   1   13   23     2     8    5.9243E+04 -2.2211E+02   5.9466E+04  0.000E+00  0.000E+00  0.000E+00  3.85034E+01  1.284E-01  2.000E+01  2.000E+04 -1.111E-02
   1   14   22     2     9    5.9466E+04  2.4916E+03   5.6974E+04  0.000E+00  0.000E+00  0.000E+00  3.82519E+01  1.269E-01  2.000E+01  2.000E+04  1.246E-01
   1   14   22     3     1    1.6506E+05 -8.1456E+03   1.7321E+05  0.000E+00  0.000E+00  0.000E+00  3.77201E+01  1.645E-01  2.000E+01  2.000E+04 -4.073E-01
   1   15   23     3     2    1.7321E+05  2.0187E+01   1.7319E+05  0.000E+00  0.000E+00  0.000E+00  3.68336E+01  1.669E-01  2.000E+01  2.000E+04  1.009E-03
   1   15   24     3     3    1.7319E+05 -9.5125E+01   1.7329E+05  0.000E+00  0.000E+00  0.000E+00  3.59447E+01  1.669E-01  2.000E+01  2.000E+04 -4.756E-03
   1   15   25     3     4    1.7329E+05 -1.3500E+02   1.7342E+05  0.000E+00  0.000E+00  0.000E+00  3.50559E+01  1.670E-01  2.000E+01  2.000E+04 -6.750E-03
   1   15   26     3     5    1.7342E+05 -2.2814E+02   1.7365E+05  0.000E+00  0.000E+00  0.000E+00  3.41671E+01  1.671E-01  2.000E+01  2.000E+04 -1.141E-02
   1   16   27     3     6    1.7365E+05 -1.9171E+02   1.7384E+05  0.000E+00  0.000E+00  0.000E+00  3.32783E+01  1.672E-01  2.000E+01  2.000E+04 -9.585E-03
   1   17   28     3     7    1.7384E+05 -6.3334E+02   1.7447E+05  0.000E+00  0.000E+00  0.000E+00  3.23897E+01  1.674E-01  2.000E+01  2.000E+04 -3.167E-02
   1   18   29     3     8    1.7447E+05 -7.4135E+02   1.7521E+05  0.000E+00  0.000E+00  0.000E+00  3.15012E+01  1.678E-01  2.000E+01  2.000E+04 -3.707E-02
   1   18   30     3     9    1.7521E+05 -1.7999E+03   1.7701E+05  0.000E+00  0.000E+00  0.000E+00  3.06130E+01  1.686E-01  2.000E+01  2.000E+04 -9.000E-02



1
              HEAD IN LAYER   1 AT END OF TIME STEP   1 IN STRESS PERIOD    9
  ---------------------------------------------------------------------------

          1      2      3      4      5      6      7      8      9     10
         11     12     13     14     15     16     17     18     19     20
         21     22     23     24     25     26     27     28     29     30
 .........................................................................
   1  ****** ****** ****** ****** ****** ****** ****** ****** ****** ******
      ****** ****** ****** ****** ****** ****** ****** ****** ****** ******
      ****** ****** ****** ****** ****** ****** ****** ****** ****** ******
   2  ****** ****** ****** ****** ****** ****** ****** ****** ****** ******
      ****** ****** ****** ****** ****** ****** ****** ****** ****** ******
      ****** ****** ****** ****** ****** ****** ****** ****** ****** ******
   3  ****** ****** ****** ****** ****** ****** ****** ****** ****** ******
      ****** ****** ****** ****** ****** ****** ****** ****** ****** ******
      ****** ****** ****** ****** ****** ****** ****** ****** ****** ******
   4  ****** ****** ****** ****** ****** ****** ****** ****** ****** ******
      ****** ****** ****** ****** ****** ****** ****** ****** ****** ******
      ****** ****** ****** ****** ****** ****** ****** ****** ****** ******
   5  ****** ****** ****** ****** ****** ****** ****** ****** ****** ******
      ****** ****** ****** ****** ****** ****** ****** ****** ****** ******
      ****** ****** ****** ****** ****** ****** ****** ****** ****** ******
   6  ****** ****** ****** ****** ****** ****** ****** ****** ****** ******
      ****** ****** ****** ****** ****** ****** ****** ****** ****** ******
      ****** ****** ****** ****** ****** ****** ****** ****** ****** ******
   7  ****** ****** ****** ****** ****** ****** ****** ****** ****** ******
      ****** ****** ****** ****** ****** ****** ****** ****** ****** ******
      ****** ****** ****** ****** ****** ****** ****** ****** ****** ******
   8  ****** ****** ****** ****** ****** ****** ****** ****** ****** ******
      ****** ****** ****** ****** ****** ****** ****** ****** ****** ******
      ****** ****** ****** ****** ****** ****** ****** ****** ****** ******
   9  ****** ****** ****** ****** ****** ****** ****** ****** ****** ******
      ****** ****** ****** ****** ****** ****** ****** ****** ****** ******
      ****** ****** ****** ****** ****** ****** ****** ****** ****** ******
  10  ****** ****** ****** ****** ****** ****** ****** ****** ****** ******
      ****** ****** ****** ****** ****** ****** ****** ****** ****** ******
      ****** ****** ****** ****** ****** ****** ****** ****** ****** ******
  11  ****** ****** ****** ****** ****** ****** ****** ****** ****** ******
      ****** ****** ****** ****** ****** ****** ****** ****** ****** ******
      ****** ****** ****** ****** ****** ****** ****** ****** ****** ******
  12  ****** ****** ****** ****** ****** ****** ****** ****** ****** ******
      ****** ****** ****** ****** ****** ****** ****** ****** ****** ******
      ****** ****** ****** ****** ****** ****** ****** ****** ****** ******
  13  ****** ****** ****** ****** ****** ****** ****** ****** ****** ******
      ****** ****** ****** ****** ****** ****** ****** ****** ****** ******
      ****** ****** ****** ****** ****** ****** ****** ****** ****** ******
  14  ****** ****** ****** ****** ****** ****** ****** ****** ****** ******
      ****** ****** ****** ****** ****** ****** ****** ****** ****** ******
      ****** ****** ****** ****** ****** ****** ****** ****** ****** ******
  15  ****** ****** ****** ****** ****** ****** ****** ****** ****** ******
      ****** ****** ****** ****** ****** ****** ****** ****** ****** ******
      ****** ****** ****** ****** ****** ****** ****** ****** ****** ******
  16  ****** ****** ****** ****** ****** ****** ****** ****** ****** ******
      ****** ****** ****** ****** ****** ****** ****** ****** ****** ******
      ****** ****** ****** ****** ****** ****** ****** ****** ****** ******
  17  ****** ****** ****** ****** ****** ****** ****** ****** ****** ******
      ****** ****** ****** ****** ****** ****** ****** ****** ****** ******
      ****** ****** ****** ****** ****** ****** ****** ****** ****** ******
  18  ****** ****** ****** ****** ****** ****** ****** ****** ****** ******
      ****** ****** ****** ****** ****** ****** ****** ****** ****** ******
      ****** ****** ****** ****** ****** ****** ****** ****** ****** ******
  19  ****** ****** ****** ****** ****** ****** ****** ****** ****** ******
      ****** ****** ****** ****** ****** ****** ****** ****** ****** ******
      ****** ****** ****** ****** ****** ****** ****** ****** ****** ******
  20  ****** ****** ****** ****** ****** ****** ****** ****** ****** ******
      ****** ****** ****** ****** ****** ****** ****** ****** ****** ******
      ****** ****** ****** ****** ****** ****** ****** ****** ****** ******
  21  ****** ****** ****** ****** ****** ****** ****** ****** ****** ******
      ****** ****** ****** ****** ****** ****** ****** ****** ****** ******
      ****** ****** ****** ****** ****** ****** ****** ****** ****** ******
  22  ****** ****** ****** ****** ****** ****** ****** ****** ****** ******
      ****** ****** ****** ****** ****** ****** ****** ****** ****** ******
      ****** ****** ****** ****** ****** ****** ****** ****** ****** ******
  23  ****** ****** ****** ****** ****** ****** ****** ****** ****** ******
      ****** ****** ****** ****** ****** ****** ****** ****** ****** ******
      ****** ****** ****** ****** ****** ****** ****** ****** ****** ******
  24  ****** ****** ****** ****** ****** ****** ****** ****** ****** ******
      ****** ****** ****** ****** ****** ****** ****** ****** ****** ******
      ****** ****** ****** ****** ****** ****** ****** ****** ****** ******
  25  ****** ****** ****** ****** ****** ****** ****** ****** ****** ******
      ****** ****** ****** ****** ****** ****** ****** ****** ****** ******
      ****** ****** ****** ****** ****** ****** ****** ****** ****** ******

 HEAD WILL BE SAVED ON UNIT   51 AT END OF TIME STEP    1, STRESS PERIOD    9
1
  VOLUMETRIC BUDGET FOR ENTIRE MODEL AT END OF TIME STEP    1, STRESS PERIOD   9
  ------------------------------------------------------------------------------

     CUMULATIVE VOLUMES      L**3       RATES FOR THIS TIME STEP      L**3/T
     ------------------                 ------------------------

           IN:                                      IN:
           ---                                      ---
             STORAGE =    33972155.9460               STORAGE =        7210.8048
       CONSTANT HEAD =    22556867.4669         CONSTANT HEAD =       34457.3546
               WELLS =           0.0000                 WELLS =           0.0000
            RECHARGE =    18878400.0000              RECHARGE =       13800.0000
      STREAM LEAKAGE =     7770675.9810        STREAM LEAKAGE =       12591.1000

            TOTAL IN =    83178099.3939              TOTAL IN =       68059.2594

          OUT:                                     OUT:
          ----                                     ----
             STORAGE =      923215.8167               STORAGE =           0.0000
       CONSTANT HEAD =           0.0000         CONSTANT HEAD =           0.0000
               WELLS =    23388675.4682                 WELLS =       28453.3765
            RECHARGE =           0.0000              RECHARGE =           0.0000
      STREAM LEAKAGE =    58866209.9661        STREAM LEAKAGE =       39605.8837

           TOTAL OUT =    83178101.2511             TOTAL OUT =       68059.2601

            IN - OUT =          -1.8572              IN - OUT =      -7.6694E-04

 PERCENT DISCREPANCY =          -0.00     PERCENT DISCREPANCY =          -0.00






         TIME SUMMARY AT END OF TIME STEP    1 IN STRESS PERIOD    9
                    SECONDS     MINUTES      HOURS       DAYS        YEARS
                    -----------------------------------------------------------
   TIME STEP LENGTH 7.94880E+06 1.32480E+05  2208.0      92.000     0.25188    
 STRESS PERIOD TIME 7.94880E+06 1.32480E+05  2208.0      92.000     0.25188    
         TOTAL TIME 7.10208E+07 1.18368E+06  19728.      822.00      2.2505    
1
1
                            STRESS PERIOD NO.   10, LENGTH =   91.00000    
                            -----------------------------------------------

                              NUMBER OF TIME STEPS =     1

                               MULTIPLIER FOR DELT =     1.500

                            INITIAL TIME STEP SIZE =   91.00000    

 WELL NO.  LAYER   ROW   COL   STRESS RATE         
 --------------------------------------------------
      1      1     14      6       0.000    
      2      1      3      9       0.000    
      3      1     20     10       0.000    
      4      1     14     20       0.000    
      5      1     22     27      -6314.    
      6      1     16     14     -0.1197E+05
      7      1     11      6      -1537.    
      8      1     17     21      -8632.    

      8 WELLS

                 RECHARGE =  2.000000E-03

 REUSING STREAM SEGMENT DATA FROM LAST STRESS PERIOD
 
 SOLVING FOR HEAD 


     7 CALLS TO PCG ROUTINE FOR TIME STEP   1 IN STRESS PERIOD   10
    26 TOTAL ITERATIONS

 OUTPUT CONTROL FOR STRESS PERIOD   10   TIME STEP    1
    SAVE BUDGET
    SAVE HEAD FOR ALL LAYERS
    PRINT HEAD FOR ALL LAYERS
 UBDSV2 SAVING "STREAMFLOW OUT  " ON UNIT  50 AT TIME STEP  1, STRESS PERIOD  10



 STREAM LISTING     PERIOD     10   STEP        1

 LAYER ROW COL. STREAM  RCH.  FLOW INTO     FLOW TO   FLOW OUT OF   OVRLND.     DIRECT     STREAM       STREAM     STREAM     STREAM   STREAMBED  STREAMBED
                SEG.NO.  NO.  STRM. RCH.    AQUIFER    STRM. RCH.    RUNOFF     PRECIP       ET          HEAD       DEPTH      WIDTH   CONDCTNC.   GRADIENT

   1   13    1     1     1    1.0000E+05 -1.9726E+03   1.0197E+05  0.000E+00  0.000E+00  0.000E+00  4.84069E+01  1.455E-01  2.000E+01  2.000E+04 -9.863E-02
   1   13    2     1     2    1.0197E+05 -2.8904E+03   1.0486E+05  0.000E+00  0.000E+00  0.000E+00  4.79317E+01  1.476E-01  2.000E+01  2.000E+04 -1.445E-01
   1   14    3     1     3    1.0486E+05 -5.1186E+02   1.0537E+05  0.000E+00  0.000E+00  0.000E+00  4.74559E+01  1.491E-01  2.000E+01  2.000E+04 -2.559E-02
   1   15    4     1     4    1.0537E+05 -4.9754E+02   1.0587E+05  0.000E+00  0.000E+00  0.000E+00  4.69790E+01  1.495E-01  2.000E+01  2.000E+04 -2.488E-02
   1   16    5     1     5    1.0587E+05 -1.9074E+03   1.0778E+05  0.000E+00  0.000E+00  0.000E+00  4.65028E+01  1.505E-01  2.000E+01  2.000E+04 -9.537E-02
   1   16    6     1     6    1.0778E+05 -1.1454E+03   1.0893E+05  0.000E+00  0.000E+00  0.000E+00  4.60268E+01  1.518E-01  2.000E+01  2.000E+04 -5.727E-02
   1   16    7     1     7    1.0893E+05 -1.0945E+03   1.1002E+05  0.000E+00  0.000E+00  0.000E+00  4.55505E+01  1.527E-01  2.000E+01  2.000E+04 -5.472E-02
   1   16    8     1     8    1.1002E+05 -1.0607E+03   1.1108E+05  0.000E+00  0.000E+00  0.000E+00  4.50741E+01  1.536E-01  2.000E+01  2.000E+04 -5.303E-02
   1   16    9     1     9    1.1108E+05 -1.0068E+03   1.1209E+05  0.000E+00  0.000E+00  0.000E+00  4.45977E+01  1.545E-01  2.000E+01  2.000E+04 -5.034E-02
   1   16   10     1    10    1.1209E+05 -9.0751E+02   1.1299E+05  0.000E+00  0.000E+00  0.000E+00  4.41212E+01  1.553E-01  2.000E+01  2.000E+04 -4.538E-02
   1   16   11     1    11    1.1299E+05 -6.9489E+02   1.1369E+05  0.000E+00  0.000E+00  0.000E+00  4.36446E+01  1.559E-01  2.000E+01  2.000E+04 -3.474E-02
   1   16   12     1    12    1.1369E+05  5.3447E+02   1.1316E+05  0.000E+00  0.000E+00  0.000E+00  4.31674E+01  1.560E-01  2.000E+01  2.000E+04  2.672E-02
   1   15   13     1    13    1.1316E+05  1.5213E+03   1.1163E+05  0.000E+00  0.000E+00  0.000E+00  4.26892E+01  1.552E-01  2.000E+01  2.000E+04  7.607E-02
   1   14   14     1    14    1.1163E+05  1.4201E+02   1.1149E+05  0.000E+00  0.000E+00  0.000E+00  4.22113E+01  1.545E-01  2.000E+01  2.000E+04  7.100E-03
   1   13   15     1    15    1.1149E+05 -1.5920E+03   1.1308E+05  0.000E+00  0.000E+00  0.000E+00  4.17346E+01  1.551E-01  2.000E+01  2.000E+04 -7.960E-02
   1   12   16     1    16    1.1308E+05 -2.9157E+03   1.1600E+05  0.000E+00  0.000E+00  0.000E+00  4.12592E+01  1.569E-01  2.000E+01  2.000E+04 -1.458E-01
   1   12   17     1    17    1.1600E+05 -1.7614E+03   1.1776E+05  0.000E+00  0.000E+00  0.000E+00  4.07838E+01  1.588E-01  2.000E+01  2.000E+04 -8.807E-02
   1   12   18     1    18    1.1776E+05 -1.6847E+03   1.1945E+05  0.000E+00  0.000E+00  0.000E+00  4.03080E+01  1.602E-01  2.000E+01  2.000E+04 -8.423E-02
   1   12   19     1    19    1.1945E+05 -2.4164E+03   1.2186E+05  0.000E+00  0.000E+00  0.000E+00  3.98324E+01  1.619E-01  2.000E+01  2.000E+04 -1.208E-01
   1   13   20     1    20    1.2186E+05 -1.1614E+03   1.2302E+05  0.000E+00  0.000E+00  0.000E+00  3.93565E+01  1.633E-01  2.000E+01  2.000E+04 -5.807E-02
   1   14   21     1    21    1.2302E+05  3.0988E+02   1.2271E+05  0.000E+00  0.000E+00  0.000E+00  3.88796E+01  1.637E-01  2.000E+01  2.000E+04  1.549E-02
   1   14   22     1    22    1.2271E+05  5.1772E+03   1.1754E+05  0.000E+00  0.000E+00  0.000E+00  3.84001E+01  1.615E-01  2.000E+01  2.000E+04  2.589E-01
   1    9   30     2     1    5.0000E+04 -9.7969E+02   5.0980E+04  0.000E+00  0.000E+00  0.000E+00  4.02415E+01  1.165E-01  2.000E+01  2.000E+04 -4.898E-02
   1    9   29     2     2    5.0980E+04 -1.2768E+03   5.2256E+04  0.000E+00  0.000E+00  0.000E+00  3.99931E+01  1.181E-01  2.000E+01  2.000E+04 -6.384E-02
   1    9   28     2     3    5.2256E+04 -1.5300E+03   5.3786E+04  0.000E+00  0.000E+00  0.000E+00  3.97450E+01  1.200E-01  2.000E+01  2.000E+04 -7.650E-02
   1    9   27     2     4    5.3786E+04 -2.8954E+03   5.6682E+04  0.000E+00  0.000E+00  0.000E+00  3.94980E+01  1.230E-01  2.000E+01  2.000E+04 -1.448E-01
   1   10   26     2     5    5.6682E+04 -2.1071E+03   5.8789E+04  0.000E+00  0.000E+00  0.000E+00  3.92513E+01  1.263E-01  2.000E+01  2.000E+04 -1.054E-01
   1   11   25     2     6    5.8789E+04 -1.8897E+03   6.0679E+04  0.000E+00  0.000E+00  0.000E+00  3.90039E+01  1.289E-01  2.000E+01  2.000E+04 -9.449E-02
   1   12   24     2     7    6.0679E+04 -1.9181E+03   6.2597E+04  0.000E+00  0.000E+00  0.000E+00  3.87564E+01  1.314E-01  2.000E+01  2.000E+04 -9.590E-02
   1   13   23     2     8    6.2597E+04 -3.7092E+02   6.2968E+04  0.000E+00  0.000E+00  0.000E+00  3.85078E+01  1.328E-01  2.000E+01  2.000E+04 -1.855E-02
   1   14   22     2     9    6.2968E+04  2.3068E+03   6.0661E+04  0.000E+00  0.000E+00  0.000E+00  3.82566E+01  1.316E-01  2.000E+01  2.000E+04  1.153E-01
   1   14   22     3     1    1.7820E+05 -8.2716E+03   1.8647E+05  0.000E+00  0.000E+00  0.000E+00  3.77277E+01  1.721E-01  2.000E+01  2.000E+04 -4.136E-01
   1   15   23     3     2    1.8647E+05 -1.4193E+02   1.8661E+05  0.000E+00  0.000E+00  0.000E+00  3.68412E+01  1.745E-01  2.000E+01  2.000E+04 -7.096E-03
   1   15   24     3     3    1.8661E+05 -2.3204E+02   1.8684E+05  0.000E+00  0.000E+00  0.000E+00  3.59524E+01  1.746E-01  2.000E+01  2.000E+04 -1.160E-02
   1   15   25     3     4    1.8684E+05 -2.7535E+02   1.8712E+05  0.000E+00  0.000E+00  0.000E+00  3.50636E+01  1.747E-01  2.000E+01  2.000E+04 -1.377E-02
   1   15   26     3     5    1.8712E+05 -3.9023E+02   1.8751E+05  0.000E+00  0.000E+00  0.000E+00  3.41749E+01  1.749E-01  2.000E+01  2.000E+04 -1.951E-02
   1   16   27     3     6    1.8751E+05 -3.7729E+02   1.8789E+05  0.000E+00  0.000E+00  0.000E+00  3.32862E+01  1.751E-01  2.000E+01  2.000E+04 -1.886E-02
   1   17   28     3     7    1.8789E+05 -1.1530E+03   1.8904E+05  0.000E+00  0.000E+00  0.000E+00  3.23978E+01  1.756E-01  2.000E+01  2.000E+04 -5.765E-02
   1   18   29     3     8    1.8904E+05 -1.2907E+03   1.9033E+05  0.000E+00  0.000E+00  0.000E+00  3.15096E+01  1.762E-01  2.000E+01  2.000E+04 -6.453E-02
   1   18   30     3     9    1.9033E+05 -2.2240E+03   1.9255E+05  0.000E+00  0.000E+00  0.000E+00  3.06217E+01  1.772E-01  2.000E+01  2.000E+04 -1.112E-01



1
              HEAD IN LAYER   1 AT END OF TIME STEP   1 IN STRESS PERIOD   10
  ---------------------------------------------------------------------------

          1      2      3      4      5      6      7      8      9     10
         11     12     13     14     15     16     17     18     19     20
         21     22     23     24     25     26     27     28     29     30
 .........................................................................
   1  ****** ****** ****** ****** ****** ****** ****** ****** ****** ******
      ****** ****** ****** ****** ****** ****** ****** ****** ****** ******
      ****** ****** ****** ****** ****** ****** ****** ****** ****** ******
   2  ****** ****** ****** ****** ****** ****** ****** ****** ****** ******
      ****** ****** ****** ****** ****** ****** ****** ****** ****** ******
      ****** ****** ****** ****** ****** ****** ****** ****** ****** ******
   3  ****** ****** ****** ****** ****** ****** ****** ****** ****** ******
      ****** ****** ****** ****** ****** ****** ****** ****** ****** ******
      ****** ****** ****** ****** ****** ****** ****** ****** ****** ******
   4  ****** ****** ****** ****** ****** ****** ****** ****** ****** ******
      ****** ****** ****** ****** ****** ****** ****** ****** ****** ******
      ****** ****** ****** ****** ****** ****** ****** ****** ****** ******
   5  ****** ****** ****** ****** ****** ****** ****** ****** ****** ******
      ****** ****** ****** ****** ****** ****** ****** ****** ****** ******
      ****** ****** ****** ****** ****** ****** ****** ****** ****** ******
   6  ****** ****** ****** ****** ****** ****** ****** ****** ****** ******
      ****** ****** ****** ****** ****** ****** ****** ****** ****** ******
      ****** ****** ****** ****** ****** ****** ****** ****** ****** ******
   7  ****** ****** ****** ****** ****** ****** ****** ****** ****** ******
      ****** ****** ****** ****** ****** ****** ****** ****** ****** ******
      ****** ****** ****** ****** ****** ****** ****** ****** ****** ******
   8  ****** ****** ****** ****** ****** ****** ****** ****** ****** ******
      ****** ****** ****** ****** ****** ****** ****** ****** ****** ******
      ****** ****** ****** ****** ****** ****** ****** ****** ****** ******
   9  ****** ****** ****** ****** ****** ****** ****** ****** ****** ******
      ****** ****** ****** ****** ****** ****** ****** ****** ****** ******
      ****** ****** ****** ****** ****** ****** ****** ****** ****** ******
  10  ****** ****** ****** ****** ****** ****** ****** ****** ****** ******
      ****** ****** ****** ****** ****** ****** ****** ****** ****** ******
      ****** ****** ****** ****** ****** ****** ****** ****** ****** ******
  11  ****** ****** ****** ****** ****** ****** ****** ****** ****** ******
      ****** ****** ****** ****** ****** ****** ****** ****** ****** ******
      ****** ****** ****** ****** ****** ****** ****** ****** ****** ******
  12  ****** ****** ****** ****** ****** ****** ****** ****** ****** ******
      ****** ****** ****** ****** ****** ****** ****** ****** ****** ******
      ****** ****** ****** ****** ****** ****** ****** ****** ****** ******
  13  ****** ****** ****** ****** ****** ****** ****** ****** ****** ******
      ****** ****** ****** ****** ****** ****** ****** ****** ****** ******
      ****** ****** ****** ****** ****** ****** ****** ****** ****** ******
  14  ****** ****** ****** ****** ****** ****** ****** ****** ****** ******
      ****** ****** ****** ****** ****** ****** ****** ****** ****** ******
      ****** ****** ****** ****** ****** ****** ****** ****** ****** ******
  15  ****** ****** ****** ****** ****** ****** ****** ****** ****** ******
      ****** ****** ****** ****** ****** ****** ****** ****** ****** ******
      ****** ****** ****** ****** ****** ****** ****** ****** ****** ******
  16  ****** ****** ****** ****** ****** ****** ****** ****** ****** ******
      ****** ****** ****** ****** ****** ****** ****** ****** ****** ******
      ****** ****** ****** ****** ****** ****** ****** ****** ****** ******
  17  ****** ****** ****** ****** ****** ****** ****** ****** ****** ******
      ****** ****** ****** ****** ****** ****** ****** ****** ****** ******
      ****** ****** ****** ****** ****** ****** ****** ****** ****** ******
  18  ****** ****** ****** ****** ****** ****** ****** ****** ****** ******
      ****** ****** ****** ****** ****** ****** ****** ****** ****** ******
      ****** ****** ****** ****** ****** ****** ****** ****** ****** ******
  19  ****** ****** ****** ****** ****** ****** ****** ****** ****** ******
      ****** ****** ****** ****** ****** ****** ****** ****** ****** ******
      ****** ****** ****** ****** ****** ****** ****** ****** ****** ******
  20  ****** ****** ****** ****** ****** ****** ****** ****** ****** ******
      ****** ****** ****** ****** ****** ****** ****** ****** ****** ******
      ****** ****** ****** ****** ****** ****** ****** ****** ****** ******
  21  ****** ****** ****** ****** ****** ****** ****** ****** ****** ******
      ****** ****** ****** ****** ****** ****** ****** ****** ****** ******
      ****** ****** ****** ****** ****** ****** ****** ****** ****** ******
  22  ****** ****** ****** ****** ****** ****** ****** ****** ****** ******
      ****** ****** ****** ****** ****** ****** ****** ****** ****** ******
      ****** ****** ****** ****** ****** ****** ****** ****** ****** ******
  23  ****** ****** ****** ****** ****** ****** ****** ****** ****** ******
      ****** ****** ****** ****** ****** ****** ****** ****** ****** ******
      ****** ****** ****** ****** ****** ****** ****** ****** ****** ******
  24  ****** ****** ****** ****** ****** ****** ****** ****** ****** ******
      ****** ****** ****** ****** ****** ****** ****** ****** ****** ******
      ****** ****** ****** ****** ****** ****** ****** ****** ****** ******
  25  ****** ****** ****** ****** ****** ****** ****** ****** ****** ******
      ****** ****** ****** ****** ****** ****** ****** ****** ****** ******
      ****** ****** ****** ****** ****** ****** ****** ****** ****** ******

 HEAD WILL BE SAVED ON UNIT   51 AT END OF TIME STEP    1, STRESS PERIOD   10
1
  VOLUMETRIC BUDGET FOR ENTIRE MODEL AT END OF TIME STEP    1, STRESS PERIOD  10
  ------------------------------------------------------------------------------

     CUMULATIVE VOLUMES      L**3       RATES FOR THIS TIME STEP      L**3/T
     ------------------                 ------------------------

           IN:                                      IN:
           ---                                      ---
             STORAGE =    33972155.9460               STORAGE =           0.0000
       CONSTANT HEAD =    25423738.8839         CONSTANT HEAD =       31504.0815
               WELLS =           0.0000                 WELLS =           0.0000
            RECHARGE =    23901600.0000              RECHARGE =       55200.0000
      STREAM LEAKAGE =     8679922.4468        STREAM LEAKAGE =        9991.7194

            TOTAL IN =    91977417.2767              TOTAL IN =       96695.8009

          OUT:                                     OUT:
          ----                                     ----
             STORAGE =     2351682.2758               STORAGE =       15697.4336
       CONSTANT HEAD =           0.0000         CONSTANT HEAD =           0.0000
               WELLS =    25977932.7281                 WELLS =       28453.3765
            RECHARGE =           0.0000              RECHARGE =           0.0000
      STREAM LEAKAGE =    63647803.7822        STREAM LEAKAGE =       52544.9870

           TOTAL OUT =    91977418.7861             TOTAL OUT =       96695.7971

            IN - OUT =          -1.5094              IN - OUT =       3.8224E-03

 PERCENT DISCREPANCY =          -0.00     PERCENT DISCREPANCY =           0.00






         TIME SUMMARY AT END OF TIME STEP    1 IN STRESS PERIOD   10
                    SECONDS     MINUTES      HOURS       DAYS        YEARS
                    -----------------------------------------------------------
   TIME STEP LENGTH 7.86240E+06 1.31040E+05  2184.0      91.000     0.24914    
 STRESS PERIOD TIME 7.86240E+06 1.31040E+05  2184.0      91.000     0.24914    
         TOTAL TIME 7.88832E+07 1.31472E+06  21912.      913.00      2.4997    
1
1
                            STRESS PERIOD NO.   11, LENGTH =   91.00000    
                            -----------------------------------------------

                              NUMBER OF TIME STEPS =     1

                               MULTIPLIER FOR DELT =     1.500

                            INITIAL TIME STEP SIZE =   91.00000    

 WELL NO.  LAYER   ROW   COL   STRESS RATE         
 --------------------------------------------------
      1      1     14      6       0.000    
      2      1      3      9       0.000    
      3      1     20     10       0.000    
      4      1     14     20       0.000    
      5      1     22     27      -6314.    
      6      1     16     14     -0.1197E+05
      7      1     11      6      -1537.    
      8      1     17     21      -8632.    

      8 WELLS

                 RECHARGE =   0.00000    

 REUSING STREAM SEGMENT DATA FROM LAST STRESS PERIOD
 
 SOLVING FOR HEAD 


     7 CALLS TO PCG ROUTINE FOR TIME STEP   1 IN STRESS PERIOD   11
    26 TOTAL ITERATIONS

 OUTPUT CONTROL FOR STRESS PERIOD   11   TIME STEP    1
    SAVE BUDGET
    SAVE HEAD FOR ALL LAYERS
    PRINT HEAD FOR ALL LAYERS
 UBDSV2 SAVING "STREAMFLOW OUT  " ON UNIT  50 AT TIME STEP  1, STRESS PERIOD  11



 STREAM LISTING     PERIOD     11   STEP        1

 LAYER ROW COL. STREAM  RCH.  FLOW INTO     FLOW TO   FLOW OUT OF   OVRLND.     DIRECT     STREAM       STREAM     STREAM     STREAM   STREAMBED  STREAMBED
                SEG.NO.  NO.  STRM. RCH.    AQUIFER    STRM. RCH.    RUNOFF     PRECIP       ET          HEAD       DEPTH      WIDTH   CONDCTNC.   GRADIENT

   1   13    1     1     1    1.0000E+05 -1.4052E+03   1.0141E+05  0.000E+00  0.000E+00  0.000E+00  4.84066E+01  1.453E-01  2.000E+01  2.000E+04 -7.026E-02
   1   13    2     1     2    1.0141E+05 -2.2585E+03   1.0366E+05  0.000E+00  0.000E+00  0.000E+00  4.79309E+01  1.468E-01  2.000E+01  2.000E+04 -1.129E-01
   1   14    3     1     3    1.0366E+05 -2.8087E+02   1.0394E+05  0.000E+00  0.000E+00  0.000E+00  4.74547E+01  1.479E-01  2.000E+01  2.000E+04 -1.404E-02
   1   15    4     1     4    1.0394E+05 -2.5552E+02   1.0420E+05  0.000E+00  0.000E+00  0.000E+00  4.69777E+01  1.482E-01  2.000E+01  2.000E+04 -1.278E-02
   1   16    5     1     5    1.0420E+05 -1.2192E+03   1.0542E+05  0.000E+00  0.000E+00  0.000E+00  4.65011E+01  1.488E-01  2.000E+01  2.000E+04 -6.096E-02
   1   16    6     1     6    1.0542E+05 -7.3081E+02   1.0615E+05  0.000E+00  0.000E+00  0.000E+00  4.60246E+01  1.496E-01  2.000E+01  2.000E+04 -3.654E-02
   1   16    7     1     7    1.0615E+05 -6.9753E+02   1.0685E+05  0.000E+00  0.000E+00  0.000E+00  4.55479E+01  1.502E-01  2.000E+01  2.000E+04 -3.488E-02
   1   16    8     1     8    1.0685E+05 -6.6923E+02   1.0752E+05  0.000E+00  0.000E+00  0.000E+00  4.50713E+01  1.508E-01  2.000E+01  2.000E+04 -3.346E-02
   1   16    9     1     9    1.0752E+05 -6.1758E+02   1.0813E+05  0.000E+00  0.000E+00  0.000E+00  4.45945E+01  1.513E-01  2.000E+01  2.000E+04 -3.088E-02
   1   16   10     1    10    1.0813E+05 -5.1934E+02   1.0865E+05  0.000E+00  0.000E+00  0.000E+00  4.41177E+01  1.518E-01  2.000E+01  2.000E+04 -2.597E-02
   1   16   11     1    11    1.0865E+05 -3.0487E+02   1.0896E+05  0.000E+00  0.000E+00  0.000E+00  4.36408E+01  1.522E-01  2.000E+01  2.000E+04 -1.524E-02
   1   16   12     1    12    1.0896E+05  1.1808E+03   1.0778E+05  0.000E+00  0.000E+00  0.000E+00  4.31632E+01  1.518E-01  2.000E+01  2.000E+04  5.904E-02
   1   15   13     1    13    1.0778E+05  2.2102E+03   1.0557E+05  0.000E+00  0.000E+00  0.000E+00  4.26845E+01  1.504E-01  2.000E+01  2.000E+04  1.105E-01
   1   14   14     1    14    1.0557E+05  8.4834E+02   1.0472E+05  0.000E+00  0.000E+00  0.000E+00  4.22059E+01  1.491E-01  2.000E+01  2.000E+04  4.242E-02
   1   13   15     1    15    1.0472E+05 -8.9152E+02   1.0561E+05  0.000E+00  0.000E+00  0.000E+00  4.17286E+01  1.491E-01  2.000E+01  2.000E+04 -4.458E-02
   1   12   16     1    16    1.0561E+05 -2.2392E+03   1.0785E+05  0.000E+00  0.000E+00  0.000E+00  4.12527E+01  1.504E-01  2.000E+01  2.000E+04 -1.120E-01
   1   12   17     1    17    1.0785E+05 -1.2550E+03   1.0911E+05  0.000E+00  0.000E+00  0.000E+00  4.07769E+01  1.519E-01  2.000E+01  2.000E+04 -6.275E-02
   1   12   18     1    18    1.0911E+05 -1.1859E+03   1.1029E+05  0.000E+00  0.000E+00  0.000E+00  4.03006E+01  1.529E-01  2.000E+01  2.000E+04 -5.930E-02
   1   12   19     1    19    1.1029E+05 -1.8043E+03   1.1210E+05  0.000E+00  0.000E+00  0.000E+00  3.98246E+01  1.542E-01  2.000E+01  2.000E+04 -9.021E-02
   1   13   20     1    20    1.1210E+05 -5.4897E+02   1.1264E+05  0.000E+00  0.000E+00  0.000E+00  3.93483E+01  1.551E-01  2.000E+01  2.000E+04 -2.745E-02
   1   14   21     1    21    1.1264E+05  9.0735E+02   1.1174E+05  0.000E+00  0.000E+00  0.000E+00  3.88709E+01  1.550E-01  2.000E+01  2.000E+04  4.537E-02
   1   14   22     1    22    1.1174E+05  5.3205E+03   1.0642E+05  0.000E+00  0.000E+00  0.000E+00  3.83910E+01  1.524E-01  2.000E+01  2.000E+04  2.660E-01
   1    9   30     2     1    5.0000E+04 -4.9186E+02   5.0492E+04  0.000E+00  0.000E+00  0.000E+00  4.02412E+01  1.162E-01  2.000E+01  2.000E+04 -2.459E-02
   1    9   29     2     2    5.0492E+04 -7.9200E+02   5.1284E+04  0.000E+00  0.000E+00  0.000E+00  3.99921E+01  1.171E-01  2.000E+01  2.000E+04 -3.960E-02
   1    9   28     2     3    5.1284E+04 -1.0474E+03   5.2331E+04  0.000E+00  0.000E+00  0.000E+00  3.97434E+01  1.184E-01  2.000E+01  2.000E+04 -5.237E-02
   1    9   27     2     4    5.2331E+04 -2.2562E+03   5.4587E+04  0.000E+00  0.000E+00  0.000E+00  3.94956E+01  1.206E-01  2.000E+01  2.000E+04 -1.128E-01
   1   10   26     2     5    5.4587E+04 -1.4533E+03   5.6041E+04  0.000E+00  0.000E+00  0.000E+00  3.92481E+01  1.231E-01  2.000E+01  2.000E+04 -7.267E-02
   1   11   25     2     6    5.6041E+04 -1.2597E+03   5.7300E+04  0.000E+00  0.000E+00  0.000E+00  3.89999E+01  1.249E-01  2.000E+01  2.000E+04 -6.298E-02
   1   12   24     2     7    5.7300E+04 -1.3450E+03   5.8645E+04  0.000E+00  0.000E+00  0.000E+00  3.87516E+01  1.266E-01  2.000E+01  2.000E+04 -6.725E-02
   1   13   23     2     8    5.8645E+04 -1.8506E+02   5.8831E+04  0.000E+00  0.000E+00  0.000E+00  3.85026E+01  1.276E-01  2.000E+01  2.000E+04 -9.253E-03
   1   14   22     2     9    5.8831E+04  2.5218E+03   5.6309E+04  0.000E+00  0.000E+00  0.000E+00  3.82511E+01  1.261E-01  2.000E+01  2.000E+04  1.261E-01
   1   14   22     3     1    1.6273E+05 -8.1259E+03   1.7085E+05  0.000E+00  0.000E+00  0.000E+00  3.77187E+01  1.632E-01  2.000E+01  2.000E+04 -4.063E-01
   1   15   23     3     2    1.7085E+05  5.0334E+01   1.7080E+05  0.000E+00  0.000E+00  0.000E+00  3.68322E+01  1.655E-01  2.000E+01  2.000E+04  2.517E-03
   1   15   24     3     3    1.7080E+05 -6.6782E+01   1.7087E+05  0.000E+00  0.000E+00  0.000E+00  3.59433E+01  1.655E-01  2.000E+01  2.000E+04 -3.339E-03
   1   15   25     3     4    1.7087E+05 -1.0627E+02   1.7097E+05  0.000E+00  0.000E+00  0.000E+00  3.50545E+01  1.656E-01  2.000E+01  2.000E+04 -5.313E-03
   1   15   26     3     5    1.7097E+05 -1.9446E+02   1.7117E+05  0.000E+00  0.000E+00  0.000E+00  3.41657E+01  1.657E-01  2.000E+01  2.000E+04 -9.723E-03
   1   16   27     3     6    1.7117E+05 -1.5413E+02   1.7132E+05  0.000E+00  0.000E+00  0.000E+00  3.32769E+01  1.658E-01  2.000E+01  2.000E+04 -7.706E-03
   1   17   28     3     7    1.7132E+05 -5.4278E+02   1.7187E+05  0.000E+00  0.000E+00  0.000E+00  3.23882E+01  1.660E-01  2.000E+01  2.000E+04 -2.714E-02
   1   18   29     3     8    1.7187E+05 -6.6771E+02   1.7253E+05  0.000E+00  0.000E+00  0.000E+00  3.14996E+01  1.663E-01  2.000E+01  2.000E+04 -3.339E-02
   1   18   30     3     9    1.7253E+05 -1.7342E+03   1.7427E+05  0.000E+00  0.000E+00  0.000E+00  3.06114E+01  1.670E-01  2.000E+01  2.000E+04 -8.671E-02



1
              HEAD IN LAYER   1 AT END OF TIME STEP   1 IN STRESS PERIOD   11
  ---------------------------------------------------------------------------

          1      2      3      4      5      6      7      8      9     10
         11     12     13     14     15     16     17     18     19     20
         21     22     23     24     25     26     27     28     29     30
 .........................................................................
   1  ****** ****** ****** ****** ****** ****** ****** ****** ****** ******
      ****** ****** ****** ****** ****** ****** ****** ****** ****** ******
      ****** ****** ****** ****** ****** ****** ****** ****** ****** ******
   2  ****** ****** ****** ****** ****** ****** ****** ****** ****** ******
      ****** ****** ****** ****** ****** ****** ****** ****** ****** ******
      ****** ****** ****** ****** ****** ****** ****** ****** ****** ******
   3  ****** ****** ****** ****** ****** ****** ****** ****** ****** ******
      ****** ****** ****** ****** ****** ****** ****** ****** ****** ******
      ****** ****** ****** ****** ****** ****** ****** ****** ****** ******
   4  ****** ****** ****** ****** ****** ****** ****** ****** ****** ******
      ****** ****** ****** ****** ****** ****** ****** ****** ****** ******
      ****** ****** ****** ****** ****** ****** ****** ****** ****** ******
   5  ****** ****** ****** ****** ****** ****** ****** ****** ****** ******
      ****** ****** ****** ****** ****** ****** ****** ****** ****** ******
      ****** ****** ****** ****** ****** ****** ****** ****** ****** ******
   6  ****** ****** ****** ****** ****** ****** ****** ****** ****** ******
      ****** ****** ****** ****** ****** ****** ****** ****** ****** ******
      ****** ****** ****** ****** ****** ****** ****** ****** ****** ******
   7  ****** ****** ****** ****** ****** ****** ****** ****** ****** ******
      ****** ****** ****** ****** ****** ****** ****** ****** ****** ******
      ****** ****** ****** ****** ****** ****** ****** ****** ****** ******
   8  ****** ****** ****** ****** ****** ****** ****** ****** ****** ******
      ****** ****** ****** ****** ****** ****** ****** ****** ****** ******
      ****** ****** ****** ****** ****** ****** ****** ****** ****** ******
   9  ****** ****** ****** ****** ****** ****** ****** ****** ****** ******
      ****** ****** ****** ****** ****** ****** ****** ****** ****** ******
      ****** ****** ****** ****** ****** ****** ****** ****** ****** ******
  10  ****** ****** ****** ****** ****** ****** ****** ****** ****** ******
      ****** ****** ****** ****** ****** ****** ****** ****** ****** ******
      ****** ****** ****** ****** ****** ****** ****** ****** ****** ******
  11  ****** ****** ****** ****** ****** ****** ****** ****** ****** ******
      ****** ****** ****** ****** ****** ****** ****** ****** ****** ******
      ****** ****** ****** ****** ****** ****** ****** ****** ****** ******
  12  ****** ****** ****** ****** ****** ****** ****** ****** ****** ******
      ****** ****** ****** ****** ****** ****** ****** ****** ****** ******
      ****** ****** ****** ****** ****** ****** ****** ****** ****** ******
  13  ****** ****** ****** ****** ****** ****** ****** ****** ****** ******
      ****** ****** ****** ****** ****** ****** ****** ****** ****** ******
      ****** ****** ****** ****** ****** ****** ****** ****** ****** ******
  14  ****** ****** ****** ****** ****** ****** ****** ****** ****** ******
      ****** ****** ****** ****** ****** ****** ****** ****** ****** ******
      ****** ****** ****** ****** ****** ****** ****** ****** ****** ******
  15  ****** ****** ****** ****** ****** ****** ****** ****** ****** ******
      ****** ****** ****** ****** ****** ****** ****** ****** ****** ******
      ****** ****** ****** ****** ****** ****** ****** ****** ****** ******
  16  ****** ****** ****** ****** ****** ****** ****** ****** ****** ******
      ****** ****** ****** ****** ****** ****** ****** ****** ****** ******
      ****** ****** ****** ****** ****** ****** ****** ****** ****** ******
  17  ****** ****** ****** ****** ****** ****** ****** ****** ****** ******
      ****** ****** ****** ****** ****** ****** ****** ****** ****** ******
      ****** ****** ****** ****** ****** ****** ****** ****** ****** ******
  18  ****** ****** ****** ****** ****** ****** ****** ****** ****** ******
      ****** ****** ****** ****** ****** ****** ****** ****** ****** ******
      ****** ****** ****** ****** ****** ****** ****** ****** ****** ******
  19  ****** ****** ****** ****** ****** ****** ****** ****** ****** ******
      ****** ****** ****** ****** ****** ****** ****** ****** ****** ******
      ****** ****** ****** ****** ****** ****** ****** ****** ****** ******
  20  ****** ****** ****** ****** ****** ****** ****** ****** ****** ******
      ****** ****** ****** ****** ****** ****** ****** ****** ****** ******
      ****** ****** ****** ****** ****** ****** ****** ****** ****** ******
  21  ****** ****** ****** ****** ****** ****** ****** ****** ****** ******
      ****** ****** ****** ****** ****** ****** ****** ****** ****** ******
      ****** ****** ****** ****** ****** ****** ****** ****** ****** ******
  22  ****** ****** ****** ****** ****** ****** ****** ****** ****** ******
      ****** ****** ****** ****** ****** ****** ****** ****** ****** ******
      ****** ****** ****** ****** ****** ****** ****** ****** ****** ******
  23  ****** ****** ****** ****** ****** ****** ****** ****** ****** ******
      ****** ****** ****** ****** ****** ****** ****** ****** ****** ******
      ****** ****** ****** ****** ****** ****** ****** ****** ****** ******
  24  ****** ****** ****** ****** ****** ****** ****** ****** ****** ******
      ****** ****** ****** ****** ****** ****** ****** ****** ****** ******
      ****** ****** ****** ****** ****** ****** ****** ****** ****** ******
  25  ****** ****** ****** ****** ****** ****** ****** ****** ****** ******
      ****** ****** ****** ****** ****** ****** ****** ****** ****** ******
      ****** ****** ****** ****** ****** ****** ****** ****** ****** ******

 HEAD WILL BE SAVED ON UNIT   51 AT END OF TIME STEP    1, STRESS PERIOD   11
1
  VOLUMETRIC BUDGET FOR ENTIRE MODEL AT END OF TIME STEP    1, STRESS PERIOD  11
  ------------------------------------------------------------------------------

     CUMULATIVE VOLUMES      L**3       RATES FOR THIS TIME STEP      L**3/T
     ------------------                 ------------------------

           IN:                                      IN:
           ---                                      ---
             STORAGE =    35603896.6299               STORAGE =       17931.2163
       CONSTANT HEAD =    28589552.1481         CONSTANT HEAD =       34789.1568
               WELLS =           0.0000                 WELLS =           0.0000
            RECHARGE =    23901600.0000              RECHARGE =           0.0000
      STREAM LEAKAGE =     9866495.7960        STREAM LEAKAGE =       13039.2676

            TOTAL IN =    97961544.5740              TOTAL IN =       65759.6406

          OUT:                                     OUT:
          ----                                     ----
             STORAGE =     2351682.2758               STORAGE =           0.0000
       CONSTANT HEAD =           0.0000         CONSTANT HEAD =           0.0000
               WELLS =    28567189.9880                 WELLS =       28453.3765
            RECHARGE =           0.0000              RECHARGE =           0.0000
      STREAM LEAKAGE =    67042674.2661        STREAM LEAKAGE =       37306.2691

           TOTAL OUT =    97961546.5299             TOTAL OUT =       65759.6455

            IN - OUT =          -1.9558              IN - OUT =      -4.9059E-03

 PERCENT DISCREPANCY =          -0.00     PERCENT DISCREPANCY =          -0.00






         TIME SUMMARY AT END OF TIME STEP    1 IN STRESS PERIOD   11
                    SECONDS     MINUTES      HOURS       DAYS        YEARS
                    -----------------------------------------------------------
   TIME STEP LENGTH 7.86240E+06 1.31040E+05  2184.0      91.000     0.24914    
 STRESS PERIOD TIME 7.86240E+06 1.31040E+05  2184.0      91.000     0.24914    
         TOTAL TIME 8.67456E+07 1.44576E+06  24096.      1004.0      2.7488    
1
1
                            STRESS PERIOD NO.   12, LENGTH =   91.00000    
                            -----------------------------------------------

                              NUMBER OF TIME STEPS =     1

                               MULTIPLIER FOR DELT =     1.500

                            INITIAL TIME STEP SIZE =   91.00000    

 WELL NO.  LAYER   ROW   COL   STRESS RATE         
 --------------------------------------------------
      1      1     14      6       0.000    
      2      1      3      9       0.000    
      3      1     20     10       0.000    
      4      1     14     20       0.000    
      5      1     22     27      -6314.    
      6      1     16     14     -0.1197E+05
      7      1     11      6      -1537.    
      8      1     17     21      -8632.    

      8 WELLS

                 RECHARGE =  1.000000E-03

 REUSING STREAM SEGMENT DATA FROM LAST STRESS PERIOD
 
 SOLVING FOR HEAD 


     7 CALLS TO PCG ROUTINE FOR TIME STEP   1 IN STRESS PERIOD   12
    24 TOTAL ITERATIONS

 OUTPUT CONTROL FOR STRESS PERIOD   12   TIME STEP    1
    SAVE BUDGET
    SAVE HEAD FOR ALL LAYERS
    PRINT HEAD FOR ALL LAYERS
 UBDSV2 SAVING "STREAMFLOW OUT  " ON UNIT  50 AT TIME STEP  1, STRESS PERIOD  12



 STREAM LISTING     PERIOD     12   STEP        1

 LAYER ROW COL. STREAM  RCH.  FLOW INTO     FLOW TO   FLOW OUT OF   OVRLND.     DIRECT     STREAM       STREAM     STREAM     STREAM   STREAMBED  STREAMBED
                SEG.NO.  NO.  STRM. RCH.    AQUIFER    STRM. RCH.    RUNOFF     PRECIP       ET          HEAD       DEPTH      WIDTH   CONDCTNC.   GRADIENT

   1   13    1     1     1    1.0000E+05 -1.5497E+03   1.0155E+05  0.000E+00  0.000E+00  0.000E+00  4.84067E+01  1.453E-01  2.000E+01  2.000E+04 -7.749E-02
   1   13    2     1     2    1.0155E+05 -2.4139E+03   1.0396E+05  0.000E+00  0.000E+00  0.000E+00  4.79311E+01  1.470E-01  2.000E+01  2.000E+04 -1.207E-01
   1   14    3     1     3    1.0396E+05 -3.5939E+02   1.0432E+05  0.000E+00  0.000E+00  0.000E+00  4.74550E+01  1.482E-01  2.000E+01  2.000E+04 -1.797E-02
   1   15    4     1     4    1.0432E+05 -3.3782E+02   1.0466E+05  0.000E+00  0.000E+00  0.000E+00  4.69781E+01  1.485E-01  2.000E+01  2.000E+04 -1.689E-02
   1   16    5     1     5    1.0466E+05 -1.4288E+03   1.0609E+05  0.000E+00  0.000E+00  0.000E+00  4.65015E+01  1.493E-01  2.000E+01  2.000E+04 -7.144E-02
   1   16    6     1     6    1.0609E+05 -8.6113E+02   1.0695E+05  0.000E+00  0.000E+00  0.000E+00  4.60252E+01  1.502E-01  2.000E+01  2.000E+04 -4.306E-02
   1   16    7     1     7    1.0695E+05 -8.2276E+02   1.0777E+05  0.000E+00  0.000E+00  0.000E+00  4.55487E+01  1.510E-01  2.000E+01  2.000E+04 -4.114E-02
   1   16    8     1     8    1.0777E+05 -7.9341E+02   1.0857E+05  0.000E+00  0.000E+00  0.000E+00  4.50721E+01  1.516E-01  2.000E+01  2.000E+04 -3.967E-02
   1   16    9     1     9    1.0857E+05 -7.4218E+02   1.0931E+05  0.000E+00  0.000E+00  0.000E+00  4.45955E+01  1.523E-01  2.000E+01  2.000E+04 -3.711E-02
   1   16   10     1    10    1.0931E+05 -6.4526E+02   1.0995E+05  0.000E+00  0.000E+00  0.000E+00  4.41188E+01  1.529E-01  2.000E+01  2.000E+04 -3.226E-02
   1   16   11     1    11    1.0995E+05 -4.3298E+02   1.1039E+05  0.000E+00  0.000E+00  0.000E+00  4.36419E+01  1.533E-01  2.000E+01  2.000E+04 -2.165E-02
   1   16   12     1    12    1.1039E+05  9.7943E+02   1.0941E+05  0.000E+00  0.000E+00  0.000E+00  4.31644E+01  1.531E-01  2.000E+01  2.000E+04  4.897E-02
   1   15   13     1    13    1.0941E+05  1.9934E+03   1.0741E+05  0.000E+00  0.000E+00  0.000E+00  4.26859E+01  1.518E-01  2.000E+01  2.000E+04  9.967E-02
   1   14   14     1    14    1.0741E+05  6.3083E+02   1.0678E+05  0.000E+00  0.000E+00  0.000E+00  4.22075E+01  1.507E-01  2.000E+01  2.000E+04  3.154E-02
   1   13   15     1    15    1.0678E+05 -1.1019E+03   1.0789E+05  0.000E+00  0.000E+00  0.000E+00  4.17305E+01  1.509E-01  2.000E+01  2.000E+04 -5.509E-02
   1   12   16     1    16    1.0789E+05 -2.4234E+03   1.1031E+05  0.000E+00  0.000E+00  0.000E+00  4.12547E+01  1.524E-01  2.000E+01  2.000E+04 -1.212E-01
   1   12   17     1    17    1.1031E+05 -1.4088E+03   1.1172E+05  0.000E+00  0.000E+00  0.000E+00  4.07790E+01  1.540E-01  2.000E+01  2.000E+04 -7.044E-02
   1   12   18     1    18    1.1172E+05 -1.3418E+03   1.1306E+05  0.000E+00  0.000E+00  0.000E+00  4.03029E+01  1.552E-01  2.000E+01  2.000E+04 -6.709E-02
   1   12   19     1    19    1.1306E+05 -1.9971E+03   1.1506E+05  0.000E+00  0.000E+00  0.000E+00  3.98270E+01  1.565E-01  2.000E+01  2.000E+04 -9.985E-02
   1   13   20     1    20    1.1506E+05 -7.5931E+02   1.1582E+05  0.000E+00  0.000E+00  0.000E+00  3.93508E+01  1.577E-01  2.000E+01  2.000E+04 -3.797E-02
   1   14   21     1    21    1.1582E+05  7.1371E+02   1.1510E+05  0.000E+00  0.000E+00  0.000E+00  3.88736E+01  1.577E-01  2.000E+01  2.000E+04  3.569E-02
   1   14   22     1    22    1.1510E+05  5.2687E+03   1.0983E+05  0.000E+00  0.000E+00  0.000E+00  3.83939E+01  1.552E-01  2.000E+01  2.000E+04  2.634E-01
   1    9   30     2     1    5.0000E+04 -6.6840E+02   5.0668E+04  0.000E+00  0.000E+00  0.000E+00  4.02413E+01  1.163E-01  2.000E+01  2.000E+04 -3.342E-02
   1    9   29     2     2    5.0668E+04 -9.6651E+02   5.1635E+04  0.000E+00  0.000E+00  0.000E+00  3.99925E+01  1.175E-01  2.000E+01  2.000E+04 -4.833E-02
   1    9   28     2     3    5.1635E+04 -1.2185E+03   5.2853E+04  0.000E+00  0.000E+00  0.000E+00  3.97440E+01  1.190E-01  2.000E+01  2.000E+04 -6.092E-02
   1    9   27     2     4    5.2853E+04 -2.4656E+03   5.5319E+04  0.000E+00  0.000E+00  0.000E+00  3.94965E+01  1.215E-01  2.000E+01  2.000E+04 -1.233E-01
   1   10   26     2     5    5.5319E+04 -1.6834E+03   5.7002E+04  0.000E+00  0.000E+00  0.000E+00  3.92492E+01  1.242E-01  2.000E+01  2.000E+04 -8.417E-02
   1   11   25     2     6    5.7002E+04 -1.4859E+03   5.8488E+04  0.000E+00  0.000E+00  0.000E+00  3.90013E+01  1.263E-01  2.000E+01  2.000E+04 -7.429E-02
   1   12   24     2     7    5.8488E+04 -1.5515E+03   6.0040E+04  0.000E+00  0.000E+00  0.000E+00  3.87533E+01  1.283E-01  2.000E+01  2.000E+04 -7.757E-02
   1   13   23     2     8    6.0040E+04 -2.6275E+02   6.0303E+04  0.000E+00  0.000E+00  0.000E+00  3.85045E+01  1.295E-01  2.000E+01  2.000E+04 -1.314E-02
   1   14   22     2     9    6.0303E+04  2.4528E+03   5.7850E+04  0.000E+00  0.000E+00  0.000E+00  3.82531E+01  1.281E-01  2.000E+01  2.000E+04  1.226E-01
   1   14   22     3     1    1.6768E+05 -8.1760E+03   1.7586E+05  0.000E+00  0.000E+00  0.000E+00  3.77216E+01  1.661E-01  2.000E+01  2.000E+04 -4.088E-01
   1   15   23     3     2    1.7586E+05 -2.1577E+01   1.7588E+05  0.000E+00  0.000E+00  0.000E+00  3.68351E+01  1.684E-01  2.000E+01  2.000E+04 -1.079E-03
   1   15   24     3     3    1.7588E+05 -1.3180E+02   1.7601E+05  0.000E+00  0.000E+00  0.000E+00  3.59463E+01  1.685E-01  2.000E+01  2.000E+04 -6.590E-03
   1   15   25     3     4    1.7601E+05 -1.7256E+02   1.7619E+05  0.000E+00  0.000E+00  0.000E+00  3.50574E+01  1.686E-01  2.000E+01  2.000E+04 -8.628E-03
   1   15   26     3     5    1.7619E+05 -2.7190E+02   1.7646E+05  0.000E+00  0.000E+00  0.000E+00  3.41687E+01  1.687E-01  2.000E+01  2.000E+04 -1.360E-02
   1   16   27     3     6    1.7646E+05 -2.4084E+02   1.7670E+05  0.000E+00  0.000E+00  0.000E+00  3.32799E+01  1.688E-01  2.000E+01  2.000E+04 -1.204E-02
   1   17   28     3     7    1.7670E+05 -7.6325E+02   1.7746E+05  0.000E+00  0.000E+00  0.000E+00  3.23913E+01  1.691E-01  2.000E+01  2.000E+04 -3.816E-02
   1   18   29     3     8    1.7746E+05 -8.6777E+02   1.7833E+05  0.000E+00  0.000E+00  0.000E+00  3.15029E+01  1.696E-01  2.000E+01  2.000E+04 -4.339E-02
   1   18   30     3     9    1.7833E+05 -1.9020E+03   1.8023E+05  0.000E+00  0.000E+00  0.000E+00  3.06148E+01  1.704E-01  2.000E+01  2.000E+04 -9.510E-02



1
              HEAD IN LAYER   1 AT END OF TIME STEP   1 IN STRESS PERIOD   12
  ---------------------------------------------------------------------------

          1      2      3      4      5      6      7      8      9     10
         11     12     13     14     15     16     17     18     19     20
         21     22     23     24     25     26     27     28     29     30
 .........................................................................
   1  ****** ****** ****** ****** ****** ****** ****** ****** ****** ******
      ****** ****** ****** ****** ****** ****** ****** ****** ****** ******
      ****** ****** ****** ****** ****** ****** ****** ****** ****** ******
   2  ****** ****** ****** ****** ****** ****** ****** ****** ****** ******
      ****** ****** ****** ****** ****** ****** ****** ****** ****** ******
      ****** ****** ****** ****** ****** ****** ****** ****** ****** ******
   3  ****** ****** ****** ****** ****** ****** ****** ****** ****** ******
      ****** ****** ****** ****** ****** ****** ****** ****** ****** ******
      ****** ****** ****** ****** ****** ****** ****** ****** ****** ******
   4  ****** ****** ****** ****** ****** ****** ****** ****** ****** ******
      ****** ****** ****** ****** ****** ****** ****** ****** ****** ******
      ****** ****** ****** ****** ****** ****** ****** ****** ****** ******
   5  ****** ****** ****** ****** ****** ****** ****** ****** ****** ******
      ****** ****** ****** ****** ****** ****** ****** ****** ****** ******
      ****** ****** ****** ****** ****** ****** ****** ****** ****** ******
   6  ****** ****** ****** ****** ****** ****** ****** ****** ****** ******
      ****** ****** ****** ****** ****** ****** ****** ****** ****** ******
      ****** ****** ****** ****** ****** ****** ****** ****** ****** ******
   7  ****** ****** ****** ****** ****** ****** ****** ****** ****** ******
      ****** ****** ****** ****** ****** ****** ****** ****** ****** ******
      ****** ****** ****** ****** ****** ****** ****** ****** ****** ******
   8  ****** ****** ****** ****** ****** ****** ****** ****** ****** ******
      ****** ****** ****** ****** ****** ****** ****** ****** ****** ******
      ****** ****** ****** ****** ****** ****** ****** ****** ****** ******
   9  ****** ****** ****** ****** ****** ****** ****** ****** ****** ******
      ****** ****** ****** ****** ****** ****** ****** ****** ****** ******
      ****** ****** ****** ****** ****** ****** ****** ****** ****** ******
  10  ****** ****** ****** ****** ****** ****** ****** ****** ****** ******
      ****** ****** ****** ****** ****** ****** ****** ****** ****** ******
      ****** ****** ****** ****** ****** ****** ****** ****** ****** ******
  11  ****** ****** ****** ****** ****** ****** ****** ****** ****** ******
      ****** ****** ****** ****** ****** ****** ****** ****** ****** ******
      ****** ****** ****** ****** ****** ****** ****** ****** ****** ******
  12  ****** ****** ****** ****** ****** ****** ****** ****** ****** ******
      ****** ****** ****** ****** ****** ****** ****** ****** ****** ******
      ****** ****** ****** ****** ****** ****** ****** ****** ****** ******
  13  ****** ****** ****** ****** ****** ****** ****** ****** ****** ******
      ****** ****** ****** ****** ****** ****** ****** ****** ****** ******
      ****** ****** ****** ****** ****** ****** ****** ****** ****** ******
  14  ****** ****** ****** ****** ****** ****** ****** ****** ****** ******
      ****** ****** ****** ****** ****** ****** ****** ****** ****** ******
      ****** ****** ****** ****** ****** ****** ****** ****** ****** ******
  15  ****** ****** ****** ****** ****** ****** ****** ****** ****** ******
      ****** ****** ****** ****** ****** ****** ****** ****** ****** ******
      ****** ****** ****** ****** ****** ****** ****** ****** ****** ******
  16  ****** ****** ****** ****** ****** ****** ****** ****** ****** ******
      ****** ****** ****** ****** ****** ****** ****** ****** ****** ******
      ****** ****** ****** ****** ****** ****** ****** ****** ****** ******
  17  ****** ****** ****** ****** ****** ****** ****** ****** ****** ******
      ****** ****** ****** ****** ****** ****** ****** ****** ****** ******
      ****** ****** ****** ****** ****** ****** ****** ****** ****** ******
  18  ****** ****** ****** ****** ****** ****** ****** ****** ****** ******
      ****** ****** ****** ****** ****** ****** ****** ****** ****** ******
      ****** ****** ****** ****** ****** ****** ****** ****** ****** ******
  19  ****** ****** ****** ****** ****** ****** ****** ****** ****** ******
      ****** ****** ****** ****** ****** ****** ****** ****** ****** ******
      ****** ****** ****** ****** ****** ****** ****** ****** ****** ******
  20  ****** ****** ****** ****** ****** ****** ****** ****** ****** ******
      ****** ****** ****** ****** ****** ****** ****** ****** ****** ******
      ****** ****** ****** ****** ****** ****** ****** ****** ****** ******
  21  ****** ****** ****** ****** ****** ****** ****** ****** ****** ******
      ****** ****** ****** ****** ****** ****** ****** ****** ****** ******
      ****** ****** ****** ****** ****** ****** ****** ****** ****** ******
  22  ****** ****** ****** ****** ****** ****** ****** ****** ****** ******
      ****** ****** ****** ****** ****** ****** ****** ****** ****** ******
      ****** ****** ****** ****** ****** ****** ****** ****** ****** ******
  23  ****** ****** ****** ****** ****** ****** ****** ****** ****** ******
      ****** ****** ****** ****** ****** ****** ****** ****** ****** ******
      ****** ****** ****** ****** ****** ****** ****** ****** ****** ******
  24  ****** ****** ****** ****** ****** ****** ****** ****** ****** ******
      ****** ****** ****** ****** ****** ****** ****** ****** ****** ******
      ****** ****** ****** ****** ****** ****** ****** ****** ****** ******
  25  ****** ****** ****** ****** ****** ****** ****** ****** ****** ******
      ****** ****** ****** ****** ****** ****** ****** ****** ****** ******
      ****** ****** ****** ****** ****** ****** ****** ****** ****** ******

 HEAD WILL BE SAVED ON UNIT   51 AT END OF TIME STEP    1, STRESS PERIOD   12
1
  VOLUMETRIC BUDGET FOR ENTIRE MODEL AT END OF TIME STEP    1, STRESS PERIOD  12
  ------------------------------------------------------------------------------

     CUMULATIVE VOLUMES      L**3       RATES FOR THIS TIME STEP      L**3/T
     ------------------                 ------------------------

           IN:                                      IN:
           ---                                      ---
             STORAGE =    35604805.3100               STORAGE =           9.9855
       CONSTANT HEAD =    31691952.5925         CONSTANT HEAD =       34092.3126
               WELLS =           0.0000                 WELLS =           0.0000
            RECHARGE =    26413200.0000              RECHARGE =       27600.0000
      STREAM LEAKAGE =    10962037.0932        STREAM LEAKAGE =       12038.9154

            TOTAL IN =   104671994.9957              TOTAL IN =       73741.2134

          OUT:                                     OUT:
          ----                                     ----
             STORAGE =     2626321.2496               STORAGE =        3018.0107
       CONSTANT HEAD =           0.0000         CONSTANT HEAD =           0.0000
               WELLS =    31156447.2478                 WELLS =       28453.3765
            RECHARGE =           0.0000              RECHARGE =           0.0000
      STREAM LEAKAGE =    70889228.3649        STREAM LEAKAGE =       42269.8253

           TOTAL OUT =   104671996.8624             TOTAL OUT =       73741.2124

            IN - OUT =          -1.8667              IN - OUT =       9.7930E-04

 PERCENT DISCREPANCY =          -0.00     PERCENT DISCREPANCY =           0.00






         TIME SUMMARY AT END OF TIME STEP    1 IN STRESS PERIOD   12
                    SECONDS     MINUTES      HOURS       DAYS        YEARS
                    -----------------------------------------------------------
   TIME STEP LENGTH 7.86240E+06 1.31040E+05  2184.0      91.000     0.24914    
 STRESS PERIOD TIME 7.86240E+06 1.31040E+05  2184.0      91.000     0.24914    
         TOTAL TIME 9.46080E+07 1.57680E+06  26280.      1095.0      2.9979    
1

 Run end date and time (yyyy/mm/dd hh:mm:ss): 2019/02/09 20:23:04
 Elapsed run time:  0.093 Seconds

