                                  MODFLOW-2005     
      U.S. GEOLOGICAL SURVEY MODULAR FINITE-DIFFERENCE GROUND-WATER FLOW MODEL
                            VERSION 1.11.00 8/8/2013

 LIST FILE: supply2.lst
                         UNIT   10

 OPENING ..\data\supply.dis
 FILE TYPE:DIS   UNIT   11   STATUS:OLD    
 FORMAT:FORMATTED              ACCESS:SEQUENTIAL          

 OPENING ..\data\supply.ba6
 FILE TYPE:BAS6   UNIT   12   STATUS:OLD    
 FORMAT:FORMATTED              ACCESS:SEQUENTIAL          

 OPENING ..\data\supply_het.bc6
 FILE TYPE:BCF6   UNIT   13   STATUS:OLD    
 FORMAT:FORMATTED              ACCESS:SEQUENTIAL          

 OPENING ..\data\supply.rch
 FILE TYPE:RCH   UNIT   15   STATUS:OLD    
 FORMAT:FORMATTED              ACCESS:SEQUENTIAL          

 OPENING ..\data\supply2.sfr
 FILE TYPE:SFR   UNIT   16   STATUS:OLD    
 FORMAT:FORMATTED              ACCESS:SEQUENTIAL          

 OPENING ..\data\supply.oc
 FILE TYPE:OC   UNIT   17   STATUS:OLD    
 FORMAT:FORMATTED              ACCESS:SEQUENTIAL          

 OPENING ..\data\supply.pcg
 FILE TYPE:PCG   UNIT   18   STATUS:OLD    
 FORMAT:FORMATTED              ACCESS:SEQUENTIAL          

 OPENING supply2.wel
 FILE TYPE:WEL   UNIT   19   STATUS:OLD    
 FORMAT:FORMATTED              ACCESS:SEQUENTIAL          

 OPENING supply2sf.cbc
 FILE TYPE:DATA(BINARY)   UNIT   50   STATUS:UNKNOWN
 FORMAT:BINARY                 ACCESS:SEQUENTIAL          

 OPENING supply2hd.bhd
 FILE TYPE:DATA(BINARY)   UNIT   51   STATUS:UNKNOWN
 FORMAT:BINARY                 ACCESS:SEQUENTIAL          

 BAS -- BASIC PACKAGE, VERSION 7, 5/2/2005 INPUT READ FROM UNIT   12
 
 MODFLOW was compiled using uniform precision
 Precision of REAL and DOUBLE PRECISION variables:          15

 DISCRETIZATION INPUT DATA READ FROM UNIT   11
    1 LAYERS        25 ROWS        30 COLUMNS
   12 STRESS PERIOD(S) IN SIMULATION
 MODEL TIME UNIT IS DAYS
 MODEL LENGTH UNIT IS UNDEFINED
  Confining bed flag for each layer:
   0

                     DELR =   200.000    

                     DELC =   200.000    

 TOP ELEVATION OF LAYER 1 =  100.0000    

   MODEL LAYER BOTTOM EL. =   0.00000     FOR LAYER   1


 STRESS PERIOD     LENGTH       TIME STEPS     MULTIPLIER FOR DELT    SS FLAG
 ----------------------------------------------------------------------------
        1         92.00000          1                    1.500         TR
        2         91.00000          1                    1.500         TR
        3         91.00000          1                    1.500         TR
        4         91.00000          1                    1.500         TR
        5         92.00000          1                    1.500         TR
        6         91.00000          1                    1.500         TR
        7         91.00000          1                    1.500         TR
        8         91.00000          1                    1.500         TR
        9         92.00000          1                    1.500         TR
       10         91.00000          1                    1.500         TR
       11         91.00000          1                    1.500         TR
       12         91.00000          1                    1.500         TR

 TRANSIENT SIMULATION



 
 #MODOFC transient water supply sample problem                                   
 #                                                                               
 THE FREE FORMAT OPTION HAS BEEN SELECTED



                     BOUNDARY ARRAY FOR LAYER   1
 READING ON UNIT   12 WITH FORMAT: (20I4)              

 AQUIFER HEAD WILL BE SET TO   0.0000     AT ALL NO-FLOW NODES (IBOUND=0).



                       INITIAL HEAD FOR LAYER   1
 READING ON UNIT   12 WITH FORMAT: (10F13.0)           

 OUTPUT CONTROL IS SPECIFIED ONLY AT TIME STEPS FOR WHICH OUTPUT IS DESIRED
 COMPACT CELL-BY-CELL BUDGET FILES WILL BE WRITTEN
 HEAD PRINT FORMAT CODE IS  18    DRAWDOWN PRINT FORMAT CODE IS   0
 HEADS WILL BE SAVED ON UNIT   51    DRAWDOWNS WILL BE SAVED ON UNIT    0

 BCF -- BLOCK-CENTERED FLOW PACKAGE, VERSION 7, 5/2/2005
         INPUT READ FROM UNIT 13
 TRANSIENT SIMULATION
 HEAD AT CELLS THAT CONVERT TO DRY=   0.0000    
 WETTING CAPABILITY IS NOT ACTIVE
      LAYER  LAYER-TYPE CODE     INTERBLOCK T
      --------------------------------------------
         1            0          0 -- HARMONIC    

 COLUMN TO ROW ANISOTROPY =  1.000000    

     PRIMARY STORAGE COEF =  5.000000E-02 FOR LAYER   1



               TRANSMIS. ALONG ROWS FOR LAYER   1
 READING ON UNIT   13 WITH FORMAT: (FREE)              

 WEL -- WELL PACKAGE, VERSION 7, 5/2/2005 INPUT READ FROM UNIT   19
 # Well package input file written by MMProc
 No named parameters
 MAXIMUM OF      8 ACTIVE WELLS AT ONE TIME


     0 Well parameters

 RCH -- RECHARGE PACKAGE, VERSION 7, 5/2/2005 INPUT READ FROM UNIT   15
 No named parameters
 OPTION 1 -- RECHARGE TO TOP LAYER


     0 Recharge parameters

 SFR7 -- STREAMFLOW ROUTING PACKAGE, VERSION 1.0.7, 2013-01-15
         INPUT READ FROM UNIT  16
 #  Supply2 test problem for GWM-VI
 #  The eighth entry in the first data line is ISTCB2 -
 #    Setting this to a negative number indicates that
 #    streamflows out of the reach will be saved to a
 #    binary file.  The absolute value of ISTCB2 is the
 #    unit to which unformatted flows will be written.
 #
 No named parameters
 Segment information will not be 
 read by reach
 No named parameters
 No specifed inflow files


 NUMBER OF STREAM REACHES IS   40

 NUMBER OF STREAM SEGMENTS IS    3

 NUMBER OF STREAM PARAMETERS IS    0

 NUMBER OF STREAM SEGMENTS DEFINED USING PARAMETERS IS              0

 MAXIMUM ERROR FOR STREAM LEAKAGE RATES IS  1.00E-04

 CONSTANT FOR MANNINGS EQUATION IS  1.2839E+05





   STREAM NETWORK DESCRIPTION: 

   LAYER    ROW    COL   SEGMENT   REACH     LENGTH
                          NUMBER   NUMBER    IN CELL        
   --------------------------------------------------
      1     13      1       1        1    2.0000E+02
      1     13      2       1        2    2.0000E+02
      1     14      3       1        3    2.0000E+02
      1     15      4       1        4    2.0000E+02
      1     16      5       1        5    2.0000E+02
      1     16      6       1        6    2.0000E+02
      1     16      7       1        7    2.0000E+02
      1     16      8       1        8    2.0000E+02
      1     16      9       1        9    2.0000E+02
      1     16     10       1       10    2.0000E+02
      1     16     11       1       11    2.0000E+02
      1     16     12       1       12    2.0000E+02
      1     15     13       1       13    2.0000E+02
      1     14     14       1       14    2.0000E+02
      1     13     15       1       15    2.0000E+02
      1     12     16       1       16    2.0000E+02
      1     12     17       1       17    2.0000E+02
      1     12     18       1       18    2.0000E+02
      1     12     19       1       19    2.0000E+02
      1     13     20       1       20    2.0000E+02
      1     14     21       1       21    2.0000E+02
      1     14     22       1       22    2.0000E+02
      1      9     30       2        1    2.0000E+02
      1      9     29       2        2    2.0000E+02
      1      9     28       2        3    2.0000E+02
      1      9     27       2        4    2.0000E+02
      1     10     26       2        5    2.0000E+02
      1     11     25       2        6    2.0000E+02
      1     12     24       2        7    2.0000E+02
      1     13     23       2        8    2.0000E+02
      1     14     22       2        9    2.0000E+02
      1     14     22       3        1    2.0000E+02
      1     15     23       3        2    2.0000E+02
      1     15     24       3        3    2.0000E+02
      1     15     25       3        4    2.0000E+02
      1     15     26       3        5    2.0000E+02
      1     16     27       3        6    2.0000E+02
      1     17     28       3        7    2.0000E+02
      1     18     29       3        8    2.0000E+02
      1     18     30       3        9    2.0000E+02




 PCG -- CONJUGATE-GRADIENT SOLUTION PACKAGE, VERSION 7, 5/2/2005
 MAXIMUM OF    500 CALLS OF SOLUTION ROUTINE
 MAXIMUM OF      5 INTERNAL ITERATIONS PER CALL TO SOLUTION ROUTINE
 MATRIX PRECONDITIONING TYPE :    1



                                    SOLUTION BY THE CONJUGATE-GRADIENT METHOD
                                   -------------------------------------------
                    MAXIMUM NUMBER OF CALLS TO PCG ROUTINE =      500
                        MAXIMUM ITERATIONS PER CALL TO PCG =        5
                               MATRIX PRECONDITIONING TYPE =        1
        RELAXATION FACTOR (ONLY USED WITH PRECOND. TYPE 1) =    0.10000E+01
 PARAMETER OF POLYNOMIAL PRECOND. = 2 (2) OR IS CALCULATED :        0
                         HEAD CHANGE CRITERION FOR CLOSURE =    0.10000E-05
                     RESIDUAL CHANGE CRITERION FOR CLOSURE =    0.10000E+01
            PCG HEAD AND RESIDUAL CHANGE PRINTOUT INTERVAL =        1
     PRINTING FROM SOLVER IS LIMITED(1) OR SUPPRESSED (>1) =        1
                            STEADY-STATE DAMPING PARAMETER =    0.10000E+01
                               TRANSIENT DAMPING PARAMETER =    0.10000E+01
1
                            STRESS PERIOD NO.    1, LENGTH =   92.00000    
                            -----------------------------------------------

                              NUMBER OF TIME STEPS =     1

                               MULTIPLIER FOR DELT =     1.500

                            INITIAL TIME STEP SIZE =   92.00000    

 WELL NO.  LAYER   ROW   COL   STRESS RATE         
 --------------------------------------------------
      1      1     14      6       0.000    
      2      1      3      9       0.000    
      3      1     20     10       0.000    
      4      1     14     20       0.000    
      5      1     11     21     -0.1135E+05
      6      1     18     20      -9351.    
      7      1     16     28     -0.1048E+05
      8      1     10     28     -0.1044E+05

      8 WELLS

                 RECHARGE =  5.000000E-04



 CLASSIFICATION & COUNT OF STREAM SEGMENTS BASED ON SOURCE OF INFLOW:

                HEADWATER     DIVERSION     RECEIVES TRIBUTARY FLOW
                ---------     ---------     -----------------------
                     2              0               1



                    INPUT DATA FOR EACH STREAM SEGMENT
 ---------------------------------------------------------------------------------------------

 SEGMENT    SEG.     INFLOW   OVERLAND   STREAM    STREAM   ICALC  OUTFLOW  DIVERSION PRIORITY
    NO.    LENGTH     RATE     RUNOFF      ET       PPT.    METH.  TO SEG.  FROM SEG.    NO.

      1  4.400E+03 1.000E+05 0.000E+00 0.000E+00 0.000E+00    1        3        0        0
      2  1.800E+03 5.000E+04 0.000E+00 0.000E+00 0.000E+00    1        3        0        0
      3  1.800E+03 0.000E+00 0.000E+00 0.000E+00 0.000E+00    1        0        0        0


         STREAMBED PROPERTIES AND STREAM DIMENSIONS

 SEGMENT     BED HYD. COND.      BED THICKNESS     ELEV.-TOP OF BED     WIDTH OF STREAM     DEPTH OF STREAM    STREAM ROUGHNESS
    No.     UPPER     LOWER     UPPER     LOWER     UPPER     LOWER     UPPER     LOWER     UPPER     LOWER   CHANNEL      BANK

     1  5.000E+00 5.000E+00 1.000E+00 1.000E+00 4.850E+01 3.800E+01 2.000E+01 2.000E+01                     5.000E-02
     2  5.000E+00 5.000E+00 1.000E+00 1.000E+00 4.025E+01 3.800E+01 2.000E+01 2.000E+01                     5.000E-02
     3  5.000E+00 5.000E+00 1.000E+00 1.000E+00 3.800E+01 3.000E+01 2.000E+01 2.000E+01                     5.000E-02



 
 SOLVING FOR HEAD 


     9 CALLS TO PCG ROUTINE FOR TIME STEP   1 IN STRESS PERIOD    1
    36 TOTAL ITERATIONS

 OUTPUT CONTROL FOR STRESS PERIOD    1   TIME STEP    1
    SAVE BUDGET
    SAVE HEAD FOR ALL LAYERS
    PRINT HEAD FOR ALL LAYERS
 UBDSV2 SAVING "STREAMFLOW OUT  " ON UNIT  50 AT TIME STEP  1, STRESS PERIOD   1



 STREAM LISTING     PERIOD      1   STEP        1

 LAYER ROW COL. STREAM  RCH.  FLOW INTO     FLOW TO   FLOW OUT OF   OVRLND.     DIRECT     STREAM       STREAM     STREAM     STREAM   STREAMBED  STREAMBED
                SEG.NO.  NO.  STRM. RCH.    AQUIFER    STRM. RCH.    RUNOFF     PRECIP       ET          HEAD       DEPTH      WIDTH   CONDCTNC.   GRADIENT

   1   13    1     1     1    1.0000E+05 -6.1225E+03   1.0612E+05  0.000E+00  0.000E+00  0.000E+00  4.84087E+01  1.473E-01  2.000E+01  2.000E+04 -3.061E-01
   1   13    2     1     2    1.0612E+05 -7.5922E+03   1.1371E+05  0.000E+00  0.000E+00  0.000E+00  4.79372E+01  1.531E-01  2.000E+01  2.000E+04 -3.796E-01
   1   14    3     1     3    1.1371E+05 -2.1987E+03   1.1591E+05  0.000E+00  0.000E+00  0.000E+00  4.74640E+01  1.572E-01  2.000E+01  2.000E+04 -1.099E-01
   1   15    4     1     4    1.1591E+05 -2.2696E+03   1.1818E+05  0.000E+00  0.000E+00  0.000E+00  4.69885E+01  1.590E-01  2.000E+01  2.000E+04 -1.135E-01
   1   16    5     1     5    1.1818E+05 -7.1765E+03   1.2536E+05  0.000E+00  0.000E+00  0.000E+00  4.65151E+01  1.628E-01  2.000E+01  2.000E+04 -3.588E-01
   1   16    6     1     6    1.2536E+05 -4.2960E+03   1.2966E+05  0.000E+00  0.000E+00  0.000E+00  4.60424E+01  1.674E-01  2.000E+01  2.000E+04 -2.148E-01
   1   16    7     1     7    1.2966E+05 -4.1280E+03   1.3378E+05  0.000E+00  0.000E+00  0.000E+00  4.55684E+01  1.707E-01  2.000E+01  2.000E+04 -2.064E-01
   1   16    8     1     8    1.3378E+05 -4.0826E+03   1.3787E+05  0.000E+00  0.000E+00  0.000E+00  4.50943E+01  1.738E-01  2.000E+01  2.000E+04 -2.041E-01
   1   16    9     1     9    1.3787E+05 -4.0648E+03   1.4193E+05  0.000E+00  0.000E+00  0.000E+00  4.46201E+01  1.769E-01  2.000E+01  2.000E+04 -2.032E-01
   1   16   10     1    10    1.4193E+05 -4.0506E+03   1.4598E+05  0.000E+00  0.000E+00  0.000E+00  4.41459E+01  1.800E-01  2.000E+01  2.000E+04 -2.025E-01
   1   16   11     1    11    1.4598E+05 -4.0646E+03   1.5005E+05  0.000E+00  0.000E+00  0.000E+00  4.36717E+01  1.830E-01  2.000E+01  2.000E+04 -2.032E-01
   1   16   12     1    12    1.5005E+05 -6.8288E+03   1.5687E+05  0.000E+00  0.000E+00  0.000E+00  4.31984E+01  1.870E-01  2.000E+01  2.000E+04 -3.414E-01
   1   15   13     1    13    1.5687E+05 -7.1340E+03   1.6401E+05  0.000E+00  0.000E+00  0.000E+00  4.27262E+01  1.921E-01  2.000E+01  2.000E+04 -3.567E-01
   1   14   14     1    14    1.6401E+05 -7.6170E+03   1.7163E+05  0.000E+00  0.000E+00  0.000E+00  4.22542E+01  1.973E-01  2.000E+01  2.000E+04 -3.809E-01
   1   13   15     1    15    1.7163E+05 -7.9699E+03   1.7960E+05  0.000E+00  0.000E+00  0.000E+00  4.17823E+01  2.028E-01  2.000E+01  2.000E+04 -3.985E-01
   1   12   16     1    16    1.7960E+05 -8.6441E+03   1.8824E+05  0.000E+00  0.000E+00  0.000E+00  4.13108E+01  2.085E-01  2.000E+01  2.000E+04 -4.322E-01
   1   12   17     1    17    1.8824E+05 -5.9761E+03   1.9422E+05  0.000E+00  0.000E+00  0.000E+00  4.08384E+01  2.134E-01  2.000E+01  2.000E+04 -2.988E-01
   1   12   18     1    18    1.9422E+05 -5.5868E+03   1.9980E+05  0.000E+00  0.000E+00  0.000E+00  4.03650E+01  2.173E-01  2.000E+01  2.000E+04 -2.793E-01
   1   12   19     1    19    1.9980E+05 -5.8632E+03   2.0567E+05  0.000E+00  0.000E+00  0.000E+00  3.98915E+01  2.210E-01  2.000E+01  2.000E+04 -2.932E-01
   1   13   20     1    20    2.0567E+05 -4.8545E+03   2.1052E+05  0.000E+00  0.000E+00  0.000E+00  3.94177E+01  2.245E-01  2.000E+01  2.000E+04 -2.427E-01
   1   14   21     1    21    2.1052E+05 -4.9004E+03   2.1542E+05  0.000E+00  0.000E+00  0.000E+00  3.89436E+01  2.277E-01  2.000E+01  2.000E+04 -2.450E-01
   1   14   22     1    22    2.1542E+05  4.1386E+03   2.1128E+05  0.000E+00  0.000E+00  0.000E+00  3.84666E+01  2.279E-01  2.000E+01  2.000E+04  2.069E-01
   1    9   30     2     1    5.0000E+04 -3.8456E+03   5.3846E+04  0.000E+00  0.000E+00  0.000E+00  4.02435E+01  1.185E-01  2.000E+01  2.000E+04 -1.923E-01
   1    9   29     2     2    5.3846E+04 -3.5219E+03   5.7367E+04  0.000E+00  0.000E+00  0.000E+00  3.99985E+01  1.235E-01  2.000E+01  2.000E+04 -1.761E-01
   1    9   28     2     3    5.7367E+04 -1.8097E+03   5.9177E+04  0.000E+00  0.000E+00  0.000E+00  3.97520E+01  1.270E-01  2.000E+01  2.000E+04 -9.049E-02
   1    9   27     2     4    5.9177E+04 -6.8409E+03   6.6018E+04  0.000E+00  0.000E+00  0.000E+00  3.95076E+01  1.326E-01  2.000E+01  2.000E+04 -3.420E-01
   1   10   26     2     5    6.6018E+04 -5.4281E+03   7.1446E+04  0.000E+00  0.000E+00  0.000E+00  3.92652E+01  1.402E-01  2.000E+01  2.000E+04 -2.714E-01
   1   11   25     2     6    7.1446E+04 -5.5766E+03   7.7023E+04  0.000E+00  0.000E+00  0.000E+00  3.90219E+01  1.469E-01  2.000E+01  2.000E+04 -2.788E-01
   1   12   24     2     7    7.7023E+04 -4.9656E+03   8.1988E+04  0.000E+00  0.000E+00  0.000E+00  3.87780E+01  1.530E-01  2.000E+01  2.000E+04 -2.483E-01
   1   13   23     2     8    8.1988E+04 -1.3884E+03   8.3377E+04  0.000E+00  0.000E+00  0.000E+00  3.85317E+01  1.567E-01  2.000E+01  2.000E+04 -6.942E-02
   1   14   22     2     9    8.3377E+04  4.5177E+02   8.2925E+04  0.000E+00  0.000E+00  0.000E+00  3.82822E+01  1.572E-01  2.000E+01  2.000E+04  2.259E-02
   1   14   22     3     1    2.9421E+05 -9.4504E+03   3.0366E+05  0.000E+00  0.000E+00  0.000E+00  3.77871E+01  2.315E-01  2.000E+01  2.000E+04 -4.725E-01
   1   15   23     3     2    3.0366E+05 -1.8198E+03   3.0548E+05  0.000E+00  0.000E+00  0.000E+00  3.69008E+01  2.342E-01  2.000E+01  2.000E+04 -9.099E-02
   1   15   24     3     3    3.0548E+05 -1.4954E+03   3.0697E+05  0.000E+00  0.000E+00  0.000E+00  3.60127E+01  2.349E-01  2.000E+01  2.000E+04 -7.477E-02
   1   15   25     3     4    3.0697E+05 -1.5488E+03   3.0852E+05  0.000E+00  0.000E+00  0.000E+00  3.51245E+01  2.356E-01  2.000E+01  2.000E+04 -7.744E-02
   1   15   26     3     5    3.0852E+05 -1.7006E+03   3.1022E+05  0.000E+00  0.000E+00  0.000E+00  3.42364E+01  2.364E-01  2.000E+01  2.000E+04 -8.503E-02
   1   16   27     3     6    3.1022E+05 -1.1222E+03   3.1134E+05  0.000E+00  0.000E+00  0.000E+00  3.33481E+01  2.370E-01  2.000E+01  2.000E+04 -5.611E-02
   1   17   28     3     7    3.1134E+05 -1.0576E+03   3.1240E+05  0.000E+00  0.000E+00  0.000E+00  3.24597E+01  2.375E-01  2.000E+01  2.000E+04 -5.288E-02
   1   18   29     3     8    3.1240E+05 -7.0295E+03   3.1943E+05  0.000E+00  0.000E+00  0.000E+00  3.15727E+01  2.394E-01  2.000E+01  2.000E+04 -3.515E-01
   1   18   30     3     9    3.1943E+05 -6.2893E+03   3.2572E+05  0.000E+00  0.000E+00  0.000E+00  3.06868E+01  2.424E-01  2.000E+01  2.000E+04 -3.145E-01



1
              HEAD IN LAYER   1 AT END OF TIME STEP   1 IN STRESS PERIOD    1
  ---------------------------------------------------------------------------

          1      2      3      4      5      6      7      8      9     10
         11     12     13     14     15     16     17     18     19     20
         21     22     23     24     25     26     27     28     29     30
 .........................................................................
   1  ****** ****** ****** ****** ****** ****** ****** ****** ****** ******
      ****** ****** ****** ****** ****** ****** ****** ****** ****** ******
      ****** ****** ****** ****** ****** ****** ****** ****** ****** ******
   2  ****** ****** ****** ****** ****** ****** ****** ****** ****** ******
      ****** ****** ****** ****** ****** ****** ****** ****** ****** ******
      ****** ****** ****** ****** ****** ****** ****** ****** ****** ******
   3  ****** ****** ****** ****** ****** ****** ****** ****** ****** ******
      ****** ****** ****** ****** ****** ****** ****** ****** ****** ******
      ****** ****** ****** ****** ****** ****** ****** ****** ****** ******
   4  ****** ****** ****** ****** ****** ****** ****** ****** ****** ******
      ****** ****** ****** ****** ****** ****** ****** ****** ****** ******
      ****** ****** ****** ****** ****** ****** ****** ****** ****** ******
   5  ****** ****** ****** ****** ****** ****** ****** ****** ****** ******
      ****** ****** ****** ****** ****** ****** ****** ****** ****** ******
      ****** ****** ****** ****** ****** ****** ****** ****** ****** ******
   6  ****** ****** ****** ****** ****** ****** ****** ****** ****** ******
      ****** ****** ****** ****** ****** ****** ****** ****** ****** ******
      ****** ****** ****** ****** ****** ****** ****** ****** ****** ******
   7  ****** ****** ****** ****** ****** ****** ****** ****** ****** ******
      ****** ****** ****** ****** ****** ****** ****** ****** ****** ******
      ****** ****** ****** ****** ****** ****** ****** ****** ****** ******
   8  ****** ****** ****** ****** ****** ****** ****** ****** ****** ******
      ****** ****** ****** ****** ****** ****** ****** ****** ****** ******
      ****** ****** ****** ****** ****** ****** ****** ****** ****** ******
   9  ****** ****** ****** ****** ****** ****** ****** ****** ****** ******
      ****** ****** ****** ****** ****** ****** ****** ****** ****** ******
      ****** ****** ****** ****** ****** ****** ****** ****** ****** ******
  10  ****** ****** ****** ****** ****** ****** ****** ****** ****** ******
      ****** ****** ****** ****** ****** ****** ****** ****** ****** ******
      ****** ****** ****** ****** ****** ****** ****** ****** ****** ******
  11  ****** ****** ****** ****** ****** ****** ****** ****** ****** ******
      ****** ****** ****** ****** ****** ****** ****** ****** ****** ******
      ****** ****** ****** ****** ****** ****** ****** ****** ****** ******
  12  ****** ****** ****** ****** ****** ****** ****** ****** ****** ******
      ****** ****** ****** ****** ****** ****** ****** ****** ****** ******
      ****** ****** ****** ****** ****** ****** ****** ****** ****** ******
  13  ****** ****** ****** ****** ****** ****** ****** ****** ****** ******
      ****** ****** ****** ****** ****** ****** ****** ****** ****** ******
      ****** ****** ****** ****** ****** ****** ****** ****** ****** ******
  14  ****** ****** ****** ****** ****** ****** ****** ****** ****** ******
      ****** ****** ****** ****** ****** ****** ****** ****** ****** ******
      ****** ****** ****** ****** ****** ****** ****** ****** ****** ******
  15  ****** ****** ****** ****** ****** ****** ****** ****** ****** ******
      ****** ****** ****** ****** ****** ****** ****** ****** ****** ******
      ****** ****** ****** ****** ****** ****** ****** ****** ****** ******
  16  ****** ****** ****** ****** ****** ****** ****** ****** ****** ******
      ****** ****** ****** ****** ****** ****** ****** ****** ****** ******
      ****** ****** ****** ****** ****** ****** ****** ****** ****** ******
  17  ****** ****** ****** ****** ****** ****** ****** ****** ****** ******
      ****** ****** ****** ****** ****** ****** ****** ****** ****** ******
      ****** ****** ****** ****** ****** ****** ****** ****** ****** ******
  18  ****** ****** ****** ****** ****** ****** ****** ****** ****** ******
      ****** ****** ****** ****** ****** ****** ****** ****** ****** ******
      ****** ****** ****** ****** ****** ****** ****** ****** ****** ******
  19  ****** ****** ****** ****** ****** ****** ****** ****** ****** ******
      ****** ****** ****** ****** ****** ****** ****** ****** ****** ******
      ****** ****** ****** ****** ****** ****** ****** ****** ****** ******
  20  ****** ****** ****** ****** ****** ****** ****** ****** ****** ******
      ****** ****** ****** ****** ****** ****** ****** ****** ****** ******
      ****** ****** ****** ****** ****** ****** ****** ****** ****** ******
  21  ****** ****** ****** ****** ****** ****** ****** ****** ****** ******
      ****** ****** ****** ****** ****** ****** ****** ****** ****** ******
      ****** ****** ****** ****** ****** ****** ****** ****** ****** ******
  22  ****** ****** ****** ****** ****** ****** ****** ****** ****** ******
      ****** ****** ****** ****** ****** ****** ****** ****** ****** ******
      ****** ****** ****** ****** ****** ****** ****** ****** ****** ******
  23  ****** ****** ****** ****** ****** ****** ****** ****** ****** ******
      ****** ****** ****** ****** ****** ****** ****** ****** ****** ******
      ****** ****** ****** ****** ****** ****** ****** ****** ****** ******
  24  ****** ****** ****** ****** ****** ****** ****** ****** ****** ******
      ****** ****** ****** ****** ****** ****** ****** ****** ****** ******
      ****** ****** ****** ****** ****** ****** ****** ****** ****** ******
  25  ****** ****** ****** ****** ****** ****** ****** ****** ****** ******
      ****** ****** ****** ****** ****** ****** ****** ****** ****** ******
      ****** ****** ****** ****** ****** ****** ****** ****** ****** ******

 HEAD WILL BE SAVED ON UNIT   51 AT END OF TIME STEP    1, STRESS PERIOD    1
1
  VOLUMETRIC BUDGET FOR ENTIRE MODEL AT END OF TIME STEP    1, STRESS PERIOD   1
  ------------------------------------------------------------------------------

     CUMULATIVE VOLUMES      L**3       RATES FOR THIS TIME STEP      L**3/T
     ------------------                 ------------------------

           IN:                                      IN:
           ---                                      ---
             STORAGE =    17600865.4284               STORAGE =      191313.7547
       CONSTANT HEAD =     1124862.0916         CONSTANT HEAD =       12226.7619
               WELLS =           0.0000                 WELLS =           0.0000
            RECHARGE =     1269600.0000              RECHARGE =       13800.0000
      STREAM LEAKAGE =      422314.1873        STREAM LEAKAGE =        4590.3716

            TOTAL IN =    20417641.7073              TOTAL IN =      221930.8881

          OUT:                                     OUT:
          ----                                     ----
             STORAGE =           0.0000               STORAGE =           0.0000
       CONSTANT HEAD =           0.0000         CONSTANT HEAD =           0.0000
               WELLS =     3828984.9920                 WELLS =       41619.4021
            RECHARGE =           0.0000              RECHARGE =           0.0000
      STREAM LEAKAGE =    16588657.0045        STREAM LEAKAGE =      180311.4892

           TOTAL OUT =    20417641.9965             TOTAL OUT =      221930.8913

            IN - OUT =          -0.2892              IN - OUT =      -3.1432E-03

 PERCENT DISCREPANCY =          -0.00     PERCENT DISCREPANCY =          -0.00






         TIME SUMMARY AT END OF TIME STEP    1 IN STRESS PERIOD    1
                    SECONDS     MINUTES      HOURS       DAYS        YEARS
                    -----------------------------------------------------------
   TIME STEP LENGTH 7.94880E+06 1.32480E+05  2208.0      92.000     0.25188    
 STRESS PERIOD TIME 7.94880E+06 1.32480E+05  2208.0      92.000     0.25188    
         TOTAL TIME 7.94880E+06 1.32480E+05  2208.0      92.000     0.25188    
1
1
                            STRESS PERIOD NO.    2, LENGTH =   91.00000    
                            -----------------------------------------------

                              NUMBER OF TIME STEPS =     1

                               MULTIPLIER FOR DELT =     1.500

                            INITIAL TIME STEP SIZE =   91.00000    

 WELL NO.  LAYER   ROW   COL   STRESS RATE         
 --------------------------------------------------
      1      1     14      6       0.000    
      2      1      3      9       0.000    
      3      1     20     10       0.000    
      4      1     14     20       0.000    
      5      1     11     21     -0.1135E+05
      6      1     18     20      -9351.    
      7      1     16     28     -0.1048E+05
      8      1     10     28     -0.1044E+05

      8 WELLS

                 RECHARGE =  2.000000E-03

 REUSING STREAM SEGMENT DATA FROM LAST STRESS PERIOD
 
 SOLVING FOR HEAD 


     7 CALLS TO PCG ROUTINE FOR TIME STEP   1 IN STRESS PERIOD    2
    27 TOTAL ITERATIONS

 OUTPUT CONTROL FOR STRESS PERIOD    2   TIME STEP    1
    SAVE BUDGET
    SAVE HEAD FOR ALL LAYERS
    PRINT HEAD FOR ALL LAYERS
 UBDSV2 SAVING "STREAMFLOW OUT  " ON UNIT  50 AT TIME STEP  1, STRESS PERIOD   2



 STREAM LISTING     PERIOD      2   STEP        1

 LAYER ROW COL. STREAM  RCH.  FLOW INTO     FLOW TO   FLOW OUT OF   OVRLND.     DIRECT     STREAM       STREAM     STREAM     STREAM   STREAMBED  STREAMBED
                SEG.NO.  NO.  STRM. RCH.    AQUIFER    STRM. RCH.    RUNOFF     PRECIP       ET          HEAD       DEPTH      WIDTH   CONDCTNC.   GRADIENT

   1   13    1     1     1    1.0000E+05 -4.0098E+03   1.0401E+05  0.000E+00  0.000E+00  0.000E+00  4.84077E+01  1.464E-01  2.000E+01  2.000E+04 -2.005E-01
   1   13    2     1     2    1.0401E+05 -5.2724E+03   1.0928E+05  0.000E+00  0.000E+00  0.000E+00  4.79344E+01  1.503E-01  2.000E+01  2.000E+04 -2.636E-01
   1   14    3     1     3    1.0928E+05 -1.1158E+03   1.1040E+05  0.000E+00  0.000E+00  0.000E+00  4.74598E+01  1.530E-01  2.000E+01  2.000E+04 -5.579E-02
   1   15    4     1     4    1.1040E+05 -1.1426E+03   1.1154E+05  0.000E+00  0.000E+00  0.000E+00  4.69835E+01  1.540E-01  2.000E+01  2.000E+04 -5.713E-02
   1   16    5     1     5    1.1154E+05 -4.2341E+03   1.1577E+05  0.000E+00  0.000E+00  0.000E+00  4.65085E+01  1.562E-01  2.000E+01  2.000E+04 -2.117E-01
   1   16    6     1     6    1.1577E+05 -2.4913E+03   1.1827E+05  0.000E+00  0.000E+00  0.000E+00  4.60340E+01  1.590E-01  2.000E+01  2.000E+04 -1.246E-01
   1   16    7     1     7    1.1827E+05 -2.3917E+03   1.2066E+05  0.000E+00  0.000E+00  0.000E+00  4.55587E+01  1.609E-01  2.000E+01  2.000E+04 -1.196E-01
   1   16    8     1     8    1.2066E+05 -2.3540E+03   1.2301E+05  0.000E+00  0.000E+00  0.000E+00  4.50833E+01  1.628E-01  2.000E+01  2.000E+04 -1.177E-01
   1   16    9     1     9    1.2301E+05 -2.3204E+03   1.2533E+05  0.000E+00  0.000E+00  0.000E+00  4.46079E+01  1.647E-01  2.000E+01  2.000E+04 -1.160E-01
   1   16   10     1    10    1.2533E+05 -2.2760E+03   1.2761E+05  0.000E+00  0.000E+00  0.000E+00  4.41324E+01  1.665E-01  2.000E+01  2.000E+04 -1.138E-01
   1   16   11     1    11    1.2761E+05 -2.2459E+03   1.2985E+05  0.000E+00  0.000E+00  0.000E+00  4.36570E+01  1.683E-01  2.000E+01  2.000E+04 -1.123E-01
   1   16   12     1    12    1.2985E+05 -3.8360E+03   1.3369E+05  0.000E+00  0.000E+00  0.000E+00  4.31821E+01  1.707E-01  2.000E+01  2.000E+04 -1.918E-01
   1   15   13     1    13    1.3369E+05 -3.8103E+03   1.3750E+05  0.000E+00  0.000E+00  0.000E+00  4.27077E+01  1.736E-01  2.000E+01  2.000E+04 -1.905E-01
   1   14   14     1    14    1.3750E+05 -4.1859E+03   1.4169E+05  0.000E+00  0.000E+00  0.000E+00  4.22335E+01  1.767E-01  2.000E+01  2.000E+04 -2.093E-01
   1   13   15     1    15    1.4169E+05 -4.5643E+03   1.4625E+05  0.000E+00  0.000E+00  0.000E+00  4.17596E+01  1.800E-01  2.000E+01  2.000E+04 -2.282E-01
   1   12   16     1    16    1.4625E+05 -5.4698E+03   1.5172E+05  0.000E+00  0.000E+00  0.000E+00  4.12860E+01  1.837E-01  2.000E+01  2.000E+04 -2.735E-01
   1   12   17     1    17    1.5172E+05 -3.4091E+03   1.5513E+05  0.000E+00  0.000E+00  0.000E+00  4.08120E+01  1.870E-01  2.000E+01  2.000E+04 -1.705E-01
   1   12   18     1    18    1.5513E+05 -2.9807E+03   1.5811E+05  0.000E+00  0.000E+00  0.000E+00  4.03371E+01  1.893E-01  2.000E+01  2.000E+04 -1.490E-01
   1   12   19     1    19    1.5811E+05 -2.5293E+03   1.6064E+05  0.000E+00  0.000E+00  0.000E+00  3.98618E+01  1.913E-01  2.000E+01  2.000E+04 -1.265E-01
   1   13   20     1    20    1.6064E+05 -1.4648E+03   1.6210E+05  0.000E+00  0.000E+00  0.000E+00  3.93859E+01  1.928E-01  2.000E+01  2.000E+04 -7.324E-02
   1   14   21     1    21    1.6210E+05 -1.8325E+03   1.6394E+05  0.000E+00  0.000E+00  0.000E+00  3.89099E+01  1.939E-01  2.000E+01  2.000E+04 -9.162E-02
   1   14   22     1    22    1.6394E+05  5.0017E+03   1.5894E+05  0.000E+00  0.000E+00  0.000E+00  3.84314E+01  1.928E-01  2.000E+01  2.000E+04  2.501E-01
   1    9   30     2     1    5.0000E+04 -9.3791E+02   5.0938E+04  0.000E+00  0.000E+00  0.000E+00  4.02415E+01  1.165E-01  2.000E+01  2.000E+04 -4.690E-02
   1    9   29     2     2    5.0938E+04 -6.2118E+02   5.1559E+04  0.000E+00  0.000E+00  0.000E+00  3.99926E+01  1.176E-01  2.000E+01  2.000E+04 -3.106E-02
   1    9   28     2     3    5.1559E+04  1.0773E+03   5.0482E+04  0.000E+00  0.000E+00  0.000E+00  3.97423E+01  1.173E-01  2.000E+01  2.000E+04  5.387E-02
   1    9   27     2     4    5.0482E+04 -3.2226E+03   5.3704E+04  0.000E+00  0.000E+00  0.000E+00  3.94938E+01  1.188E-01  2.000E+01  2.000E+04 -1.611E-01
   1   10   26     2     5    5.3704E+04 -1.5761E+03   5.5280E+04  0.000E+00  0.000E+00  0.000E+00  3.92470E+01  1.220E-01  2.000E+01  2.000E+04 -7.881E-02
   1   11   25     2     6    5.5280E+04 -1.8998E+03   5.7180E+04  0.000E+00  0.000E+00  0.000E+00  3.89993E+01  1.243E-01  2.000E+01  2.000E+04 -9.499E-02
   1   12   24     2     7    5.7180E+04 -1.6706E+03   5.8851E+04  0.000E+00  0.000E+00  0.000E+00  3.87517E+01  1.267E-01  2.000E+01  2.000E+04 -8.353E-02
   1   13   23     2     8    5.8851E+04 -3.1133E+02   5.9162E+04  0.000E+00  0.000E+00  0.000E+00  3.85030E+01  1.280E-01  2.000E+01  2.000E+04 -1.557E-02
   1   14   22     2     9    5.9162E+04  1.4178E+03   5.7744E+04  0.000E+00  0.000E+00  0.000E+00  3.82523E+01  1.273E-01  2.000E+01  2.000E+04  7.089E-02
   1   14   22     3     1    2.1668E+05 -8.6527E+03   2.2533E+05  0.000E+00  0.000E+00  0.000E+00  3.77487E+01  1.932E-01  2.000E+01  2.000E+04 -4.326E-01
   1   15   23     3     2    2.2533E+05 -8.1268E+02   2.2615E+05  0.000E+00  0.000E+00  0.000E+00  3.68623E+01  1.956E-01  2.000E+01  2.000E+04 -4.063E-02
   1   15   24     3     3    2.2615E+05 -6.0418E+02   2.2675E+05  0.000E+00  0.000E+00  0.000E+00  3.59738E+01  1.960E-01  2.000E+01  2.000E+04 -3.021E-02
   1   15   25     3     4    2.2675E+05 -6.1651E+02   2.2737E+05  0.000E+00  0.000E+00  0.000E+00  3.50852E+01  1.963E-01  2.000E+01  2.000E+04 -3.083E-02
   1   15   26     3     5    2.2737E+05 -5.2512E+02   2.2789E+05  0.000E+00  0.000E+00  0.000E+00  3.41966E+01  1.966E-01  2.000E+01  2.000E+04 -2.626E-02
   1   16   27     3     6    2.2789E+05  2.5040E+02   2.2764E+05  0.000E+00  0.000E+00  0.000E+00  3.33078E+01  1.967E-01  2.000E+01  2.000E+04  1.252E-02
   1   17   28     3     7    2.2764E+05  2.7440E+03   2.2490E+05  0.000E+00  0.000E+00  0.000E+00  3.24181E+01  1.959E-01  2.000E+01  2.000E+04  1.372E-01
   1   18   29     3     8    2.2490E+05 -3.8478E+03   2.2874E+05  0.000E+00  0.000E+00  0.000E+00  3.15295E+01  1.962E-01  2.000E+01  2.000E+04 -1.924E-01
   1   18   30     3     9    2.2874E+05 -3.5729E+03   2.3232E+05  0.000E+00  0.000E+00  0.000E+00  3.06426E+01  1.981E-01  2.000E+01  2.000E+04 -1.786E-01



1
              HEAD IN LAYER   1 AT END OF TIME STEP   1 IN STRESS PERIOD    2
  ---------------------------------------------------------------------------

          1      2      3      4      5      6      7      8      9     10
         11     12     13     14     15     16     17     18     19     20
         21     22     23     24     25     26     27     28     29     30
 .........................................................................
   1  ****** ****** ****** ****** ****** ****** ****** ****** ****** ******
      ****** ****** ****** ****** ****** ****** ****** ****** ****** ******
      ****** ****** ****** ****** ****** ****** ****** ****** ****** ******
   2  ****** ****** ****** ****** ****** ****** ****** ****** ****** ******
      ****** ****** ****** ****** ****** ****** ****** ****** ****** ******
      ****** ****** ****** ****** ****** ****** ****** ****** ****** ******
   3  ****** ****** ****** ****** ****** ****** ****** ****** ****** ******
      ****** ****** ****** ****** ****** ****** ****** ****** ****** ******
      ****** ****** ****** ****** ****** ****** ****** ****** ****** ******
   4  ****** ****** ****** ****** ****** ****** ****** ****** ****** ******
      ****** ****** ****** ****** ****** ****** ****** ****** ****** ******
      ****** ****** ****** ****** ****** ****** ****** ****** ****** ******
   5  ****** ****** ****** ****** ****** ****** ****** ****** ****** ******
      ****** ****** ****** ****** ****** ****** ****** ****** ****** ******
      ****** ****** ****** ****** ****** ****** ****** ****** ****** ******
   6  ****** ****** ****** ****** ****** ****** ****** ****** ****** ******
      ****** ****** ****** ****** ****** ****** ****** ****** ****** ******
      ****** ****** ****** ****** ****** ****** ****** ****** ****** ******
   7  ****** ****** ****** ****** ****** ****** ****** ****** ****** ******
      ****** ****** ****** ****** ****** ****** ****** ****** ****** ******
      ****** ****** ****** ****** ****** ****** ****** ****** ****** ******
   8  ****** ****** ****** ****** ****** ****** ****** ****** ****** ******
      ****** ****** ****** ****** ****** ****** ****** ****** ****** ******
      ****** ****** ****** ****** ****** ****** ****** ****** ****** ******
   9  ****** ****** ****** ****** ****** ****** ****** ****** ****** ******
      ****** ****** ****** ****** ****** ****** ****** ****** ****** ******
      ****** ****** ****** ****** ****** ****** ****** ****** ****** ******
  10  ****** ****** ****** ****** ****** ****** ****** ****** ****** ******
      ****** ****** ****** ****** ****** ****** ****** ****** ****** ******
      ****** ****** ****** ****** ****** ****** ****** ****** ****** ******
  11  ****** ****** ****** ****** ****** ****** ****** ****** ****** ******
      ****** ****** ****** ****** ****** ****** ****** ****** ****** ******
      ****** ****** ****** ****** ****** ****** ****** ****** ****** ******
  12  ****** ****** ****** ****** ****** ****** ****** ****** ****** ******
      ****** ****** ****** ****** ****** ****** ****** ****** ****** ******
      ****** ****** ****** ****** ****** ****** ****** ****** ****** ******
  13  ****** ****** ****** ****** ****** ****** ****** ****** ****** ******
      ****** ****** ****** ****** ****** ****** ****** ****** ****** ******
      ****** ****** ****** ****** ****** ****** ****** ****** ****** ******
  14  ****** ****** ****** ****** ****** ****** ****** ****** ****** ******
      ****** ****** ****** ****** ****** ****** ****** ****** ****** ******
      ****** ****** ****** ****** ****** ****** ****** ****** ****** ******
  15  ****** ****** ****** ****** ****** ****** ****** ****** ****** ******
      ****** ****** ****** ****** ****** ****** ****** ****** ****** ******
      ****** ****** ****** ****** ****** ****** ****** ****** ****** ******
  16  ****** ****** ****** ****** ****** ****** ****** ****** ****** ******
      ****** ****** ****** ****** ****** ****** ****** ****** ****** ******
      ****** ****** ****** ****** ****** ****** ****** ****** ****** ******
  17  ****** ****** ****** ****** ****** ****** ****** ****** ****** ******
      ****** ****** ****** ****** ****** ****** ****** ****** ****** ******
      ****** ****** ****** ****** ****** ****** ****** ****** ****** ******
  18  ****** ****** ****** ****** ****** ****** ****** ****** ****** ******
      ****** ****** ****** ****** ****** ****** ****** ****** ****** ******
      ****** ****** ****** ****** ****** ****** ****** ****** ****** ******
  19  ****** ****** ****** ****** ****** ****** ****** ****** ****** ******
      ****** ****** ****** ****** ****** ****** ****** ****** ****** ******
      ****** ****** ****** ****** ****** ****** ****** ****** ****** ******
  20  ****** ****** ****** ****** ****** ****** ****** ****** ****** ******
      ****** ****** ****** ****** ****** ****** ****** ****** ****** ******
      ****** ****** ****** ****** ****** ****** ****** ****** ****** ******
  21  ****** ****** ****** ****** ****** ****** ****** ****** ****** ******
      ****** ****** ****** ****** ****** ****** ****** ****** ****** ******
      ****** ****** ****** ****** ****** ****** ****** ****** ****** ******
  22  ****** ****** ****** ****** ****** ****** ****** ****** ****** ******
      ****** ****** ****** ****** ****** ****** ****** ****** ****** ******
      ****** ****** ****** ****** ****** ****** ****** ****** ****** ******
  23  ****** ****** ****** ****** ****** ****** ****** ****** ****** ******
      ****** ****** ****** ****** ****** ****** ****** ****** ****** ******
      ****** ****** ****** ****** ****** ****** ****** ****** ****** ******
  24  ****** ****** ****** ****** ****** ****** ****** ****** ****** ******
      ****** ****** ****** ****** ****** ****** ****** ****** ****** ******
      ****** ****** ****** ****** ****** ****** ****** ****** ****** ******
  25  ****** ****** ****** ****** ****** ****** ****** ****** ****** ******
      ****** ****** ****** ****** ****** ****** ****** ****** ****** ******
      ****** ****** ****** ****** ****** ****** ****** ****** ****** ******

 HEAD WILL BE SAVED ON UNIT   51 AT END OF TIME STEP    1, STRESS PERIOD    2
1
  VOLUMETRIC BUDGET FOR ENTIRE MODEL AT END OF TIME STEP    1, STRESS PERIOD   2
  ------------------------------------------------------------------------------

     CUMULATIVE VOLUMES      L**3       RATES FOR THIS TIME STEP      L**3/T
     ------------------                 ------------------------

           IN:                                      IN:
           ---                                      ---
             STORAGE =    22355713.2791               STORAGE =       52251.0753
       CONSTANT HEAD =     2625034.9374         CONSTANT HEAD =       16485.4159
               WELLS =           0.0000                 WELLS =           0.0000
            RECHARGE =     6292800.0000              RECHARGE =       55200.0000
      STREAM LEAKAGE =     1377015.8591        STREAM LEAKAGE =       10491.2272

            TOTAL IN =    32650564.0755              TOTAL IN =      134427.7183

          OUT:                                     OUT:
          ----                                     ----
             STORAGE =           0.0000               STORAGE =           0.0000
       CONSTANT HEAD =           0.0000         CONSTANT HEAD =           0.0000
               WELLS =     7616350.5819                 WELLS =       41619.4021
            RECHARGE =           0.0000              RECHARGE =           0.0000
      STREAM LEAKAGE =    25034214.7250        STREAM LEAKAGE =       92808.3266

           TOTAL OUT =    32650565.3069             TOTAL OUT =      134427.7287

            IN - OUT =          -1.2314              IN - OUT =      -1.0354E-02

 PERCENT DISCREPANCY =          -0.00     PERCENT DISCREPANCY =          -0.00






         TIME SUMMARY AT END OF TIME STEP    1 IN STRESS PERIOD    2
                    SECONDS     MINUTES      HOURS       DAYS        YEARS
                    -----------------------------------------------------------
   TIME STEP LENGTH 7.86240E+06 1.31040E+05  2184.0      91.000     0.24914    
 STRESS PERIOD TIME 7.86240E+06 1.31040E+05  2184.0      91.000     0.24914    
         TOTAL TIME 1.58112E+07 2.63520E+05  4392.0      183.00     0.50103    
1
1
                            STRESS PERIOD NO.    3, LENGTH =   91.00000    
                            -----------------------------------------------

                              NUMBER OF TIME STEPS =     1

                               MULTIPLIER FOR DELT =     1.500

                            INITIAL TIME STEP SIZE =   91.00000    

 WELL NO.  LAYER   ROW   COL   STRESS RATE         
 --------------------------------------------------
      1      1     14      6       0.000    
      2      1      3      9       0.000    
      3      1     20     10       0.000    
      4      1     14     20       0.000    
      5      1     11     21     -0.1135E+05
      6      1     18     20      -9351.    
      7      1     16     28     -0.1048E+05
      8      1     10     28     -0.1044E+05

      8 WELLS

                 RECHARGE =   0.00000    

 REUSING STREAM SEGMENT DATA FROM LAST STRESS PERIOD
 
 SOLVING FOR HEAD 


     7 CALLS TO PCG ROUTINE FOR TIME STEP   1 IN STRESS PERIOD    3
    27 TOTAL ITERATIONS

 OUTPUT CONTROL FOR STRESS PERIOD    3   TIME STEP    1
    SAVE BUDGET
    SAVE HEAD FOR ALL LAYERS
    PRINT HEAD FOR ALL LAYERS
 UBDSV2 SAVING "STREAMFLOW OUT  " ON UNIT  50 AT TIME STEP  1, STRESS PERIOD   3



 STREAM LISTING     PERIOD      3   STEP        1

 LAYER ROW COL. STREAM  RCH.  FLOW INTO     FLOW TO   FLOW OUT OF   OVRLND.     DIRECT     STREAM       STREAM     STREAM     STREAM   STREAMBED  STREAMBED
                SEG.NO.  NO.  STRM. RCH.    AQUIFER    STRM. RCH.    RUNOFF     PRECIP       ET          HEAD       DEPTH      WIDTH   CONDCTNC.   GRADIENT

   1   13    1     1     1    1.0000E+05 -2.7673E+03   1.0277E+05  0.000E+00  0.000E+00  0.000E+00  4.84072E+01  1.458E-01  2.000E+01  2.000E+04 -1.384E-01
   1   13    2     1     2    1.0277E+05 -3.8773E+03   1.0664E+05  0.000E+00  0.000E+00  0.000E+00  4.79328E+01  1.487E-01  2.000E+01  2.000E+04 -1.939E-01
   1   14    3     1     3    1.0664E+05 -6.5540E+02   1.0730E+05  0.000E+00  0.000E+00  0.000E+00  4.74574E+01  1.506E-01  2.000E+01  2.000E+04 -3.277E-02
   1   15    4     1     4    1.0730E+05 -6.3738E+02   1.0794E+05  0.000E+00  0.000E+00  0.000E+00  4.69807E+01  1.512E-01  2.000E+01  2.000E+04 -3.187E-02
   1   16    5     1     5    1.0794E+05 -2.4314E+03   1.1037E+05  0.000E+00  0.000E+00  0.000E+00  4.65047E+01  1.525E-01  2.000E+01  2.000E+04 -1.216E-01
   1   16    6     1     6    1.1037E+05 -1.4826E+03   1.1185E+05  0.000E+00  0.000E+00  0.000E+00  4.60291E+01  1.541E-01  2.000E+01  2.000E+04 -7.413E-02
   1   16    7     1     7    1.1185E+05 -1.4396E+03   1.1329E+05  0.000E+00  0.000E+00  0.000E+00  4.55530E+01  1.553E-01  2.000E+01  2.000E+04 -7.198E-02
   1   16    8     1     8    1.1329E+05 -1.4177E+03   1.1471E+05  0.000E+00  0.000E+00  0.000E+00  4.50769E+01  1.565E-01  2.000E+01  2.000E+04 -7.089E-02
   1   16    9     1     9    1.1471E+05 -1.3854E+03   1.1609E+05  0.000E+00  0.000E+00  0.000E+00  4.46008E+01  1.576E-01  2.000E+01  2.000E+04 -6.927E-02
   1   16   10     1    10    1.1609E+05 -1.3367E+03   1.1743E+05  0.000E+00  0.000E+00  0.000E+00  4.41247E+01  1.587E-01  2.000E+01  2.000E+04 -6.684E-02
   1   16   11     1    11    1.1743E+05 -1.2935E+03   1.1872E+05  0.000E+00  0.000E+00  0.000E+00  4.36485E+01  1.598E-01  2.000E+01  2.000E+04 -6.468E-02
   1   16   12     1    12    1.1872E+05 -2.1666E+03   1.2089E+05  0.000E+00  0.000E+00  0.000E+00  4.31726E+01  1.612E-01  2.000E+01  2.000E+04 -1.083E-01
   1   15   13     1    13    1.2089E+05 -2.1153E+03   1.2301E+05  0.000E+00  0.000E+00  0.000E+00  4.26970E+01  1.629E-01  2.000E+01  2.000E+04 -1.058E-01
   1   14   14     1    14    1.2301E+05 -2.4531E+03   1.2546E+05  0.000E+00  0.000E+00  0.000E+00  4.22216E+01  1.648E-01  2.000E+01  2.000E+04 -1.227E-01
   1   13   15     1    15    1.2546E+05 -2.8392E+03   1.2830E+05  0.000E+00  0.000E+00  0.000E+00  4.17464E+01  1.669E-01  2.000E+01  2.000E+04 -1.420E-01
   1   12   16     1    16    1.2830E+05 -3.7060E+03   1.3200E+05  0.000E+00  0.000E+00  0.000E+00  4.12717E+01  1.694E-01  2.000E+01  2.000E+04 -1.853E-01
   1   12   17     1    17    1.3200E+05 -2.1163E+03   1.3412E+05  0.000E+00  0.000E+00  0.000E+00  4.07967E+01  1.717E-01  2.000E+01  2.000E+04 -1.058E-01
   1   12   18     1    18    1.3412E+05 -1.7004E+03   1.3582E+05  0.000E+00  0.000E+00  0.000E+00  4.03209E+01  1.732E-01  2.000E+01  2.000E+04 -8.502E-02
   1   12   19     1    19    1.3582E+05 -9.2008E+02   1.3674E+05  0.000E+00  0.000E+00  0.000E+00  3.98446E+01  1.742E-01  2.000E+01  2.000E+04 -4.600E-02
   1   13   20     1    20    1.3674E+05  4.5217E+01   1.3670E+05  0.000E+00  0.000E+00  0.000E+00  3.93677E+01  1.745E-01  2.000E+01  2.000E+04  2.261E-03
   1   14   21     1    21    1.3670E+05 -2.5713E+02   1.3695E+05  0.000E+00  0.000E+00  0.000E+00  3.88905E+01  1.746E-01  2.000E+01  2.000E+04 -1.286E-02
   1   14   22     1    22    1.3695E+05  5.3888E+03   1.3156E+05  0.000E+00  0.000E+00  0.000E+00  3.84113E+01  1.726E-01  2.000E+01  2.000E+04  2.694E-01
   1    9   30     2     1    5.0000E+04  2.9957E+02   4.9700E+04  0.000E+00  0.000E+00  0.000E+00  4.02407E+01  1.157E-01  2.000E+01  2.000E+04  1.498E-02
   1    9   29     2     2    4.9700E+04  6.1261E+02   4.9088E+04  0.000E+00  0.000E+00  0.000E+00  3.99900E+01  1.150E-01  2.000E+01  2.000E+04  3.063E-02
   1    9   28     2     3    4.9088E+04  2.3196E+03   4.6768E+04  0.000E+00  0.000E+00  0.000E+00  3.97380E+01  1.130E-01  2.000E+01  2.000E+04  1.160E-01
   1    9   27     2     4    4.6768E+04 -1.4537E+03   4.8222E+04  0.000E+00  0.000E+00  0.000E+00  3.94873E+01  1.123E-01  2.000E+01  2.000E+04 -7.268E-02
   1   10   26     2     5    4.8222E+04  9.4767E+01   4.8127E+04  0.000E+00  0.000E+00  0.000E+00  3.92383E+01  1.133E-01  2.000E+01  2.000E+04  4.738E-03
   1   11   25     2     6    4.8127E+04 -3.4234E+02   4.8469E+04  0.000E+00  0.000E+00  0.000E+00  3.89885E+01  1.135E-01  2.000E+01  2.000E+04 -1.712E-02
   1   12   24     2     7    4.8469E+04 -2.8562E+02   4.8755E+04  0.000E+00  0.000E+00  0.000E+00  3.87389E+01  1.139E-01  2.000E+01  2.000E+04 -1.428E-02
   1   13   23     2     8    4.8755E+04  2.9033E+01   4.8726E+04  0.000E+00  0.000E+00  0.000E+00  3.84891E+01  1.141E-01  2.000E+01  2.000E+04  1.452E-03
   1   14   22     2     9    4.8726E+04  1.9183E+03   4.6808E+04  0.000E+00  0.000E+00  0.000E+00  3.82377E+01  1.127E-01  2.000E+01  2.000E+04  9.592E-02
   1   14   22     3     1    1.7837E+05 -8.2809E+03   1.8665E+05  0.000E+00  0.000E+00  0.000E+00  3.77278E+01  1.722E-01  2.000E+01  2.000E+04 -4.140E-01
   1   15   23     3     2    1.8665E+05 -3.9565E+02   1.8705E+05  0.000E+00  0.000E+00  0.000E+00  3.68413E+01  1.747E-01  2.000E+01  2.000E+04 -1.978E-02
   1   15   24     3     3    1.8705E+05 -2.6907E+02   1.8732E+05  0.000E+00  0.000E+00  0.000E+00  3.59526E+01  1.748E-01  2.000E+01  2.000E+04 -1.345E-02
   1   15   25     3     4    1.8732E+05 -2.6560E+02   1.8758E+05  0.000E+00  0.000E+00  0.000E+00  3.50639E+01  1.750E-01  2.000E+01  2.000E+04 -1.328E-02
   1   15   26     3     5    1.8758E+05 -1.0060E+02   1.8768E+05  0.000E+00  0.000E+00  0.000E+00  3.41751E+01  1.751E-01  2.000E+01  2.000E+04 -5.030E-03
   1   16   27     3     6    1.8768E+05  7.4208E+02   1.8694E+05  0.000E+00  0.000E+00  0.000E+00  3.32860E+01  1.749E-01  2.000E+01  2.000E+04  3.710E-02
   1   17   28     3     7    1.8694E+05  4.2590E+03   1.8268E+05  0.000E+00  0.000E+00  0.000E+00  3.23957E+01  1.735E-01  2.000E+01  2.000E+04  2.130E-01
   1   18   29     3     8    1.8268E+05 -2.2411E+03   1.8492E+05  0.000E+00  0.000E+00  0.000E+00  3.15063E+01  1.729E-01  2.000E+01  2.000E+04 -1.121E-01
   1   18   30     3     9    1.8492E+05 -2.3662E+03   1.8729E+05  0.000E+00  0.000E+00  0.000E+00  3.06187E+01  1.742E-01  2.000E+01  2.000E+04 -1.183E-01



1
              HEAD IN LAYER   1 AT END OF TIME STEP   1 IN STRESS PERIOD    3
  ---------------------------------------------------------------------------

          1      2      3      4      5      6      7      8      9     10
         11     12     13     14     15     16     17     18     19     20
         21     22     23     24     25     26     27     28     29     30
 .........................................................................
   1  ****** ****** ****** ****** ****** ****** ****** ****** ****** ******
      ****** ****** ****** ****** ****** ****** ****** ****** ****** ******
      ****** ****** ****** ****** ****** ****** ****** ****** ****** ******
   2  ****** ****** ****** ****** ****** ****** ****** ****** ****** ******
      ****** ****** ****** ****** ****** ****** ****** ****** ****** ******
      ****** ****** ****** ****** ****** ****** ****** ****** ****** ******
   3  ****** ****** ****** ****** ****** ****** ****** ****** ****** ******
      ****** ****** ****** ****** ****** ****** ****** ****** ****** ******
      ****** ****** ****** ****** ****** ****** ****** ****** ****** ******
   4  ****** ****** ****** ****** ****** ****** ****** ****** ****** ******
      ****** ****** ****** ****** ****** ****** ****** ****** ****** ******
      ****** ****** ****** ****** ****** ****** ****** ****** ****** ******
   5  ****** ****** ****** ****** ****** ****** ****** ****** ****** ******
      ****** ****** ****** ****** ****** ****** ****** ****** ****** ******
      ****** ****** ****** ****** ****** ****** ****** ****** ****** ******
   6  ****** ****** ****** ****** ****** ****** ****** ****** ****** ******
      ****** ****** ****** ****** ****** ****** ****** ****** ****** ******
      ****** ****** ****** ****** ****** ****** ****** ****** ****** ******
   7  ****** ****** ****** ****** ****** ****** ****** ****** ****** ******
      ****** ****** ****** ****** ****** ****** ****** ****** ****** ******
      ****** ****** ****** ****** ****** ****** ****** ****** ****** ******
   8  ****** ****** ****** ****** ****** ****** ****** ****** ****** ******
      ****** ****** ****** ****** ****** ****** ****** ****** ****** ******
      ****** ****** ****** ****** ****** ****** ****** ****** ****** ******
   9  ****** ****** ****** ****** ****** ****** ****** ****** ****** ******
      ****** ****** ****** ****** ****** ****** ****** ****** ****** ******
      ****** ****** ****** ****** ****** ****** ****** ****** ****** ******
  10  ****** ****** ****** ****** ****** ****** ****** ****** ****** ******
      ****** ****** ****** ****** ****** ****** ****** ****** ****** ******
      ****** ****** ****** ****** ****** ****** ****** ****** ****** ******
  11  ****** ****** ****** ****** ****** ****** ****** ****** ****** ******
      ****** ****** ****** ****** ****** ****** ****** ****** ****** ******
      ****** ****** ****** ****** ****** ****** ****** ****** ****** ******
  12  ****** ****** ****** ****** ****** ****** ****** ****** ****** ******
      ****** ****** ****** ****** ****** ****** ****** ****** ****** ******
      ****** ****** ****** ****** ****** ****** ****** ****** ****** ******
  13  ****** ****** ****** ****** ****** ****** ****** ****** ****** ******
      ****** ****** ****** ****** ****** ****** ****** ****** ****** ******
      ****** ****** ****** ****** ****** ****** ****** ****** ****** ******
  14  ****** ****** ****** ****** ****** ****** ****** ****** ****** ******
      ****** ****** ****** ****** ****** ****** ****** ****** ****** ******
      ****** ****** ****** ****** ****** ****** ****** ****** ****** ******
  15  ****** ****** ****** ****** ****** ****** ****** ****** ****** ******
      ****** ****** ****** ****** ****** ****** ****** ****** ****** ******
      ****** ****** ****** ****** ****** ****** ****** ****** ****** ******
  16  ****** ****** ****** ****** ****** ****** ****** ****** ****** ******
      ****** ****** ****** ****** ****** ****** ****** ****** ****** ******
      ****** ****** ****** ****** ****** ****** ****** ****** ****** ******
  17  ****** ****** ****** ****** ****** ****** ****** ****** ****** ******
      ****** ****** ****** ****** ****** ****** ****** ****** ****** ******
      ****** ****** ****** ****** ****** ****** ****** ****** ****** ******
  18  ****** ****** ****** ****** ****** ****** ****** ****** ****** ******
      ****** ****** ****** ****** ****** ****** ****** ****** ****** ******
      ****** ****** ****** ****** ****** ****** ****** ****** ****** ******
  19  ****** ****** ****** ****** ****** ****** ****** ****** ****** ******
      ****** ****** ****** ****** ****** ****** ****** ****** ****** ******
      ****** ****** ****** ****** ****** ****** ****** ****** ****** ******
  20  ****** ****** ****** ****** ****** ****** ****** ****** ****** ******
      ****** ****** ****** ****** ****** ****** ****** ****** ****** ******
      ****** ****** ****** ****** ****** ****** ****** ****** ****** ******
  21  ****** ****** ****** ****** ****** ****** ****** ****** ****** ******
      ****** ****** ****** ****** ****** ****** ****** ****** ****** ******
      ****** ****** ****** ****** ****** ****** ****** ****** ****** ******
  22  ****** ****** ****** ****** ****** ****** ****** ****** ****** ******
      ****** ****** ****** ****** ****** ****** ****** ****** ****** ******
      ****** ****** ****** ****** ****** ****** ****** ****** ****** ******
  23  ****** ****** ****** ****** ****** ****** ****** ****** ****** ******
      ****** ****** ****** ****** ****** ****** ****** ****** ****** ******
      ****** ****** ****** ****** ****** ****** ****** ****** ****** ******
  24  ****** ****** ****** ****** ****** ****** ****** ****** ****** ******
      ****** ****** ****** ****** ****** ****** ****** ****** ****** ******
      ****** ****** ****** ****** ****** ****** ****** ****** ****** ******
  25  ****** ****** ****** ****** ****** ****** ****** ****** ****** ******
      ****** ****** ****** ****** ****** ****** ****** ****** ****** ******
      ****** ****** ****** ****** ****** ****** ****** ****** ****** ******

 HEAD WILL BE SAVED ON UNIT   51 AT END OF TIME STEP    1, STRESS PERIOD    3
1
  VOLUMETRIC BUDGET FOR ENTIRE MODEL AT END OF TIME STEP    1, STRESS PERIOD   3
  ------------------------------------------------------------------------------

     CUMULATIVE VOLUMES      L**3       RATES FOR THIS TIME STEP      L**3/T
     ------------------                 ------------------------

           IN:                                      IN:
           ---                                      ---
             STORAGE =    27272105.2734               STORAGE =       54026.2857
       CONSTANT HEAD =     4889398.6001         CONSTANT HEAD =       24883.1172
               WELLS =           0.0000                 WELLS =           0.0000
            RECHARGE =     6292800.0000              RECHARGE =           0.0000
      STREAM LEAKAGE =     2806539.6056        STREAM LEAKAGE =       15709.0522

            TOTAL IN =    41260843.4791              TOTAL IN =       94618.4550

          OUT:                                     OUT:
          ----                                     ----
             STORAGE =           0.0000               STORAGE =           0.0000
       CONSTANT HEAD =           0.0000         CONSTANT HEAD =           0.0000
               WELLS =    11403716.1718                 WELLS =       41619.4021
            RECHARGE =           0.0000              RECHARGE =           0.0000
      STREAM LEAKAGE =    29857129.2257        STREAM LEAKAGE =       52999.0604

           TOTAL OUT =    41260845.3976             TOTAL OUT =       94618.4625

            IN - OUT =          -1.9185              IN - OUT =      -7.5502E-03

 PERCENT DISCREPANCY =          -0.00     PERCENT DISCREPANCY =          -0.00






         TIME SUMMARY AT END OF TIME STEP    1 IN STRESS PERIOD    3
                    SECONDS     MINUTES      HOURS       DAYS        YEARS
                    -----------------------------------------------------------
   TIME STEP LENGTH 7.86240E+06 1.31040E+05  2184.0      91.000     0.24914    
 STRESS PERIOD TIME 7.86240E+06 1.31040E+05  2184.0      91.000     0.24914    
         TOTAL TIME 2.36736E+07 3.94560E+05  6576.0      274.00     0.75017    
1
1
                            STRESS PERIOD NO.    4, LENGTH =   91.00000    
                            -----------------------------------------------

                              NUMBER OF TIME STEPS =     1

                               MULTIPLIER FOR DELT =     1.500

                            INITIAL TIME STEP SIZE =   91.00000    

 WELL NO.  LAYER   ROW   COL   STRESS RATE         
 --------------------------------------------------
      1      1     14      6       0.000    
      2      1      3      9       0.000    
      3      1     20     10       0.000    
      4      1     14     20       0.000    
      5      1     11     21     -0.1135E+05
      6      1     18     20      -9351.    
      7      1     16     28     -0.1048E+05
      8      1     10     28     -0.1044E+05

      8 WELLS

                 RECHARGE =  1.000000E-03

 REUSING STREAM SEGMENT DATA FROM LAST STRESS PERIOD
 
 SOLVING FOR HEAD 


     6 CALLS TO PCG ROUTINE FOR TIME STEP   1 IN STRESS PERIOD    4
    23 TOTAL ITERATIONS

 OUTPUT CONTROL FOR STRESS PERIOD    4   TIME STEP    1
    SAVE BUDGET
    SAVE HEAD FOR ALL LAYERS
    PRINT HEAD FOR ALL LAYERS
 UBDSV2 SAVING "STREAMFLOW OUT  " ON UNIT  50 AT TIME STEP  1, STRESS PERIOD   4



 STREAM LISTING     PERIOD      4   STEP        1

 LAYER ROW COL. STREAM  RCH.  FLOW INTO     FLOW TO   FLOW OUT OF   OVRLND.     DIRECT     STREAM       STREAM     STREAM     STREAM   STREAMBED  STREAMBED
                SEG.NO.  NO.  STRM. RCH.    AQUIFER    STRM. RCH.    RUNOFF     PRECIP       ET          HEAD       DEPTH      WIDTH   CONDCTNC.   GRADIENT

   1   13    1     1     1    1.0000E+05 -2.5411E+03   1.0254E+05  0.000E+00  0.000E+00  0.000E+00  4.84071E+01  1.458E-01  2.000E+01  2.000E+04 -1.271E-01
   1   13    2     1     2    1.0254E+05 -3.6141E+03   1.0616E+05  0.000E+00  0.000E+00  0.000E+00  4.79325E+01  1.484E-01  2.000E+01  2.000E+04 -1.807E-01
   1   14    3     1     3    1.0616E+05 -6.2785E+02   1.0678E+05  0.000E+00  0.000E+00  0.000E+00  4.74570E+01  1.502E-01  2.000E+01  2.000E+04 -3.139E-02
   1   15    4     1     4    1.0678E+05 -5.9950E+02   1.0738E+05  0.000E+00  0.000E+00  0.000E+00  4.69803E+01  1.507E-01  2.000E+01  2.000E+04 -2.998E-02
   1   16    5     1     5    1.0738E+05 -2.1258E+03   1.0951E+05  0.000E+00  0.000E+00  0.000E+00  4.65041E+01  1.519E-01  2.000E+01  2.000E+04 -1.063E-01
   1   16    6     1     6    1.0951E+05 -1.3318E+03   1.1084E+05  0.000E+00  0.000E+00  0.000E+00  4.60283E+01  1.533E-01  2.000E+01  2.000E+04 -6.659E-02
   1   16    7     1     7    1.1084E+05 -1.2997E+03   1.1214E+05  0.000E+00  0.000E+00  0.000E+00  4.55521E+01  1.544E-01  2.000E+01  2.000E+04 -6.499E-02
   1   16    8     1     8    1.1214E+05 -1.2812E+03   1.1342E+05  0.000E+00  0.000E+00  0.000E+00  4.50759E+01  1.555E-01  2.000E+01  2.000E+04 -6.406E-02
   1   16    9     1     9    1.1342E+05 -1.2504E+03   1.1467E+05  0.000E+00  0.000E+00  0.000E+00  4.45997E+01  1.565E-01  2.000E+01  2.000E+04 -6.252E-02
   1   16   10     1    10    1.1467E+05 -1.2033E+03   1.1587E+05  0.000E+00  0.000E+00  0.000E+00  4.41234E+01  1.575E-01  2.000E+01  2.000E+04 -6.017E-02
   1   16   11     1    11    1.1587E+05 -1.1572E+03   1.1703E+05  0.000E+00  0.000E+00  0.000E+00  4.36471E+01  1.585E-01  2.000E+01  2.000E+04 -5.786E-02
   1   16   12     1    12    1.1703E+05 -1.8793E+03   1.1891E+05  0.000E+00  0.000E+00  0.000E+00  4.31711E+01  1.597E-01  2.000E+01  2.000E+04 -9.397E-02
   1   15   13     1    13    1.1891E+05 -1.8563E+03   1.2077E+05  0.000E+00  0.000E+00  0.000E+00  4.26953E+01  1.612E-01  2.000E+01  2.000E+04 -9.281E-02
   1   14   14     1    14    1.2077E+05 -2.1784E+03   1.2295E+05  0.000E+00  0.000E+00  0.000E+00  4.22197E+01  1.629E-01  2.000E+01  2.000E+04 -1.089E-01
   1   13   15     1    15    1.2295E+05 -2.5470E+03   1.2549E+05  0.000E+00  0.000E+00  0.000E+00  4.17443E+01  1.648E-01  2.000E+01  2.000E+04 -1.274E-01
   1   12   16     1    16    1.2549E+05 -3.3311E+03   1.2882E+05  0.000E+00  0.000E+00  0.000E+00  4.12694E+01  1.671E-01  2.000E+01  2.000E+04 -1.666E-01
   1   12   17     1    17    1.2882E+05 -1.8865E+03   1.3071E+05  0.000E+00  0.000E+00  0.000E+00  4.07941E+01  1.691E-01  2.000E+01  2.000E+04 -9.432E-02
   1   12   18     1    18    1.3071E+05 -1.4849E+03   1.3220E+05  0.000E+00  0.000E+00  0.000E+00  4.03182E+01  1.704E-01  2.000E+01  2.000E+04 -7.425E-02
   1   12   19     1    19    1.3220E+05 -6.5478E+02   1.3285E+05  0.000E+00  0.000E+00  0.000E+00  3.98417E+01  1.713E-01  2.000E+01  2.000E+04 -3.274E-02
   1   13   20     1    20    1.3285E+05  2.3045E+02   1.3262E+05  0.000E+00  0.000E+00  0.000E+00  3.93646E+01  1.714E-01  2.000E+01  2.000E+04  1.152E-02
   1   14   21     1    21    1.3262E+05  7.4267E+00   1.3261E+05  0.000E+00  0.000E+00  0.000E+00  3.88873E+01  1.713E-01  2.000E+01  2.000E+04  3.713E-04
   1   14   22     1    22    1.3261E+05  5.4320E+03   1.2718E+05  0.000E+00  0.000E+00  0.000E+00  3.84079E+01  1.692E-01  2.000E+01  2.000E+04  2.716E-01
   1    9   30     2     1    5.0000E+04  3.9411E+02   4.9606E+04  0.000E+00  0.000E+00  0.000E+00  4.02406E+01  1.156E-01  2.000E+01  2.000E+04  1.971E-02
   1    9   29     2     2    4.9606E+04  7.1358E+02   4.8892E+04  0.000E+00  0.000E+00  0.000E+00  3.99898E+01  1.148E-01  2.000E+01  2.000E+04  3.568E-02
   1    9   28     2     3    4.8892E+04  2.4395E+03   4.6453E+04  0.000E+00  0.000E+00  0.000E+00  3.97376E+01  1.126E-01  2.000E+01  2.000E+04  1.220E-01
   1    9   27     2     4    4.6453E+04 -1.1864E+03   4.7639E+04  0.000E+00  0.000E+00  0.000E+00  3.94867E+01  1.117E-01  2.000E+01  2.000E+04 -5.932E-02
   1   10   26     2     5    4.7639E+04  2.5543E+02   4.7384E+04  0.000E+00  0.000E+00  0.000E+00  3.92374E+01  1.124E-01  2.000E+01  2.000E+04  1.277E-02
   1   11   25     2     6    4.7384E+04 -2.2191E+02   4.7606E+04  0.000E+00  0.000E+00  0.000E+00  3.89873E+01  1.123E-01  2.000E+01  2.000E+04 -1.110E-02
   1   12   24     2     7    4.7606E+04 -1.8515E+02   4.7791E+04  0.000E+00  0.000E+00  0.000E+00  3.87376E+01  1.126E-01  2.000E+01  2.000E+04 -9.257E-03
   1   13   23     2     8    4.7791E+04  3.8719E+00   4.7787E+04  0.000E+00  0.000E+00  0.000E+00  3.84878E+01  1.128E-01  2.000E+01  2.000E+04  1.936E-04
   1   14   22     2     9    4.7787E+04  2.0014E+03   4.5786E+04  0.000E+00  0.000E+00  0.000E+00  3.82363E+01  1.113E-01  2.000E+01  2.000E+04  1.001E-01
   1   14   22     3     1    1.7297E+05 -8.2318E+03   1.8120E+05  0.000E+00  0.000E+00  0.000E+00  3.77247E+01  1.691E-01  2.000E+01  2.000E+04 -4.116E-01
   1   15   23     3     2    1.8120E+05 -3.6226E+02   1.8156E+05  0.000E+00  0.000E+00  0.000E+00  3.68382E+01  1.716E-01  2.000E+01  2.000E+04 -1.811E-02
   1   15   24     3     3    1.8156E+05 -2.6263E+02   1.8182E+05  0.000E+00  0.000E+00  0.000E+00  3.59495E+01  1.718E-01  2.000E+01  2.000E+04 -1.313E-02
   1   15   25     3     4    1.8182E+05 -2.5936E+02   1.8208E+05  0.000E+00  0.000E+00  0.000E+00  3.50608E+01  1.719E-01  2.000E+01  2.000E+04 -1.297E-02
   1   15   26     3     5    1.8208E+05 -1.0292E+02   1.8219E+05  0.000E+00  0.000E+00  0.000E+00  3.41720E+01  1.720E-01  2.000E+01  2.000E+04 -5.146E-03
   1   16   27     3     6    1.8219E+05  7.5032E+02   1.8143E+05  0.000E+00  0.000E+00  0.000E+00  3.32829E+01  1.718E-01  2.000E+01  2.000E+04  3.752E-02
   1   17   28     3     7    1.8143E+05  4.3538E+03   1.7708E+05  0.000E+00  0.000E+00  0.000E+00  3.23926E+01  1.704E-01  2.000E+01  2.000E+04  2.177E-01
   1   18   29     3     8    1.7708E+05 -1.9846E+03   1.7907E+05  0.000E+00  0.000E+00  0.000E+00  3.15030E+01  1.697E-01  2.000E+01  2.000E+04 -9.923E-02
   1   18   30     3     9    1.7907E+05 -2.2314E+03   1.8130E+05  0.000E+00  0.000E+00  0.000E+00  3.06153E+01  1.709E-01  2.000E+01  2.000E+04 -1.116E-01



1
              HEAD IN LAYER   1 AT END OF TIME STEP   1 IN STRESS PERIOD    4
  ---------------------------------------------------------------------------

          1      2      3      4      5      6      7      8      9     10
         11     12     13     14     15     16     17     18     19     20
         21     22     23     24     25     26     27     28     29     30
 .........................................................................
   1  ****** ****** ****** ****** ****** ****** ****** ****** ****** ******
      ****** ****** ****** ****** ****** ****** ****** ****** ****** ******
      ****** ****** ****** ****** ****** ****** ****** ****** ****** ******
   2  ****** ****** ****** ****** ****** ****** ****** ****** ****** ******
      ****** ****** ****** ****** ****** ****** ****** ****** ****** ******
      ****** ****** ****** ****** ****** ****** ****** ****** ****** ******
   3  ****** ****** ****** ****** ****** ****** ****** ****** ****** ******
      ****** ****** ****** ****** ****** ****** ****** ****** ****** ******
      ****** ****** ****** ****** ****** ****** ****** ****** ****** ******
   4  ****** ****** ****** ****** ****** ****** ****** ****** ****** ******
      ****** ****** ****** ****** ****** ****** ****** ****** ****** ******
      ****** ****** ****** ****** ****** ****** ****** ****** ****** ******
   5  ****** ****** ****** ****** ****** ****** ****** ****** ****** ******
      ****** ****** ****** ****** ****** ****** ****** ****** ****** ******
      ****** ****** ****** ****** ****** ****** ****** ****** ****** ******
   6  ****** ****** ****** ****** ****** ****** ****** ****** ****** ******
      ****** ****** ****** ****** ****** ****** ****** ****** ****** ******
      ****** ****** ****** ****** ****** ****** ****** ****** ****** ******
   7  ****** ****** ****** ****** ****** ****** ****** ****** ****** ******
      ****** ****** ****** ****** ****** ****** ****** ****** ****** ******
      ****** ****** ****** ****** ****** ****** ****** ****** ****** ******
   8  ****** ****** ****** ****** ****** ****** ****** ****** ****** ******
      ****** ****** ****** ****** ****** ****** ****** ****** ****** ******
      ****** ****** ****** ****** ****** ****** ****** ****** ****** ******
   9  ****** ****** ****** ****** ****** ****** ****** ****** ****** ******
      ****** ****** ****** ****** ****** ****** ****** ****** ****** ******
      ****** ****** ****** ****** ****** ****** ****** ****** ****** ******
  10  ****** ****** ****** ****** ****** ****** ****** ****** ****** ******
      ****** ****** ****** ****** ****** ****** ****** ****** ****** ******
      ****** ****** ****** ****** ****** ****** ****** ****** ****** ******
  11  ****** ****** ****** ****** ****** ****** ****** ****** ****** ******
      ****** ****** ****** ****** ****** ****** ****** ****** ****** ******
      ****** ****** ****** ****** ****** ****** ****** ****** ****** ******
  12  ****** ****** ****** ****** ****** ****** ****** ****** ****** ******
      ****** ****** ****** ****** ****** ****** ****** ****** ****** ******
      ****** ****** ****** ****** ****** ****** ****** ****** ****** ******
  13  ****** ****** ****** ****** ****** ****** ****** ****** ****** ******
      ****** ****** ****** ****** ****** ****** ****** ****** ****** ******
      ****** ****** ****** ****** ****** ****** ****** ****** ****** ******
  14  ****** ****** ****** ****** ****** ****** ****** ****** ****** ******
      ****** ****** ****** ****** ****** ****** ****** ****** ****** ******
      ****** ****** ****** ****** ****** ****** ****** ****** ****** ******
  15  ****** ****** ****** ****** ****** ****** ****** ****** ****** ******
      ****** ****** ****** ****** ****** ****** ****** ****** ****** ******
      ****** ****** ****** ****** ****** ****** ****** ****** ****** ******
  16  ****** ****** ****** ****** ****** ****** ****** ****** ****** ******
      ****** ****** ****** ****** ****** ****** ****** ****** ****** ******
      ****** ****** ****** ****** ****** ****** ****** ****** ****** ******
  17  ****** ****** ****** ****** ****** ****** ****** ****** ****** ******
      ****** ****** ****** ****** ****** ****** ****** ****** ****** ******
      ****** ****** ****** ****** ****** ****** ****** ****** ****** ******
  18  ****** ****** ****** ****** ****** ****** ****** ****** ****** ******
      ****** ****** ****** ****** ****** ****** ****** ****** ****** ******
      ****** ****** ****** ****** ****** ****** ****** ****** ****** ******
  19  ****** ****** ****** ****** ****** ****** ****** ****** ****** ******
      ****** ****** ****** ****** ****** ****** ****** ****** ****** ******
      ****** ****** ****** ****** ****** ****** ****** ****** ****** ******
  20  ****** ****** ****** ****** ****** ****** ****** ****** ****** ******
      ****** ****** ****** ****** ****** ****** ****** ****** ****** ******
      ****** ****** ****** ****** ****** ****** ****** ****** ****** ******
  21  ****** ****** ****** ****** ****** ****** ****** ****** ****** ******
      ****** ****** ****** ****** ****** ****** ****** ****** ****** ******
      ****** ****** ****** ****** ****** ****** ****** ****** ****** ******
  22  ****** ****** ****** ****** ****** ****** ****** ****** ****** ******
      ****** ****** ****** ****** ****** ****** ****** ****** ****** ******
      ****** ****** ****** ****** ****** ****** ****** ****** ****** ******
  23  ****** ****** ****** ****** ****** ****** ****** ****** ****** ******
      ****** ****** ****** ****** ****** ****** ****** ****** ****** ******
      ****** ****** ****** ****** ****** ****** ****** ****** ****** ******
  24  ****** ****** ****** ****** ****** ****** ****** ****** ****** ******
      ****** ****** ****** ****** ****** ****** ****** ****** ****** ******
      ****** ****** ****** ****** ****** ****** ****** ****** ****** ******
  25  ****** ****** ****** ****** ****** ****** ****** ****** ****** ******
      ****** ****** ****** ****** ****** ****** ****** ****** ****** ******
      ****** ****** ****** ****** ****** ****** ****** ****** ****** ******

 HEAD WILL BE SAVED ON UNIT   51 AT END OF TIME STEP    1, STRESS PERIOD    4
1
  VOLUMETRIC BUDGET FOR ENTIRE MODEL AT END OF TIME STEP    1, STRESS PERIOD   4
  ------------------------------------------------------------------------------

     CUMULATIVE VOLUMES      L**3       RATES FOR THIS TIME STEP      L**3/T
     ------------------                 ------------------------

           IN:                                      IN:
           ---                                      ---
             STORAGE =    28902937.4698               STORAGE =       17921.2329
       CONSTANT HEAD =     7382906.7832         CONSTANT HEAD =       27401.1888
               WELLS =           0.0000                 WELLS =           0.0000
            RECHARGE =     8804400.0000              RECHARGE =       27600.0000
      STREAM LEAKAGE =     4315486.9695        STREAM LEAKAGE =       16581.8392

            TOTAL IN =    49405731.2226              TOTAL IN =       89504.2609

          OUT:                                     OUT:
          ----                                     ----
             STORAGE =         545.6880               STORAGE =           5.9966
       CONSTANT HEAD =           0.0000         CONSTANT HEAD =           0.0000
               WELLS =    15191081.7618                 WELLS =       41619.4021
            RECHARGE =           0.0000              RECHARGE =           0.0000
      STREAM LEAKAGE =    34214105.7602        STREAM LEAKAGE =       47878.8630

           TOTAL OUT =    49405733.2100             TOTAL OUT =       89504.2617

            IN - OUT =          -1.9874              IN - OUT =      -7.5754E-04

 PERCENT DISCREPANCY =          -0.00     PERCENT DISCREPANCY =          -0.00






         TIME SUMMARY AT END OF TIME STEP    1 IN STRESS PERIOD    4
                    SECONDS     MINUTES      HOURS       DAYS        YEARS
                    -----------------------------------------------------------
   TIME STEP LENGTH 7.86240E+06 1.31040E+05  2184.0      91.000     0.24914    
 STRESS PERIOD TIME 7.86240E+06 1.31040E+05  2184.0      91.000     0.24914    
         TOTAL TIME 3.15360E+07 5.25600E+05  8760.0      365.00     0.99932    
1
1
                            STRESS PERIOD NO.    5, LENGTH =   92.00000    
                            -----------------------------------------------

                              NUMBER OF TIME STEPS =     1

                               MULTIPLIER FOR DELT =     1.500

                            INITIAL TIME STEP SIZE =   92.00000    

 WELL NO.  LAYER   ROW   COL   STRESS RATE         
 --------------------------------------------------
      1      1     14      6       0.000    
      2      1      3      9       0.000    
      3      1     20     10       0.000    
      4      1     14     20       0.000    
      5      1     11     21     -0.1135E+05
      6      1     18     20      -9351.    
      7      1     16     28     -0.1048E+05
      8      1     10     28     -0.1044E+05

      8 WELLS

                 RECHARGE =  5.000000E-04

 REUSING STREAM SEGMENT DATA FROM LAST STRESS PERIOD
 
 SOLVING FOR HEAD 


     7 CALLS TO PCG ROUTINE FOR TIME STEP   1 IN STRESS PERIOD    5
    26 TOTAL ITERATIONS

 OUTPUT CONTROL FOR STRESS PERIOD    5   TIME STEP    1
    SAVE BUDGET
    SAVE HEAD FOR ALL LAYERS
    PRINT HEAD FOR ALL LAYERS
 UBDSV2 SAVING "STREAMFLOW OUT  " ON UNIT  50 AT TIME STEP  1, STRESS PERIOD   5



 STREAM LISTING     PERIOD      5   STEP        1

 LAYER ROW COL. STREAM  RCH.  FLOW INTO     FLOW TO   FLOW OUT OF   OVRLND.     DIRECT     STREAM       STREAM     STREAM     STREAM   STREAMBED  STREAMBED
                SEG.NO.  NO.  STRM. RCH.    AQUIFER    STRM. RCH.    RUNOFF     PRECIP       ET          HEAD       DEPTH      WIDTH   CONDCTNC.   GRADIENT

   1   13    1     1     1    1.0000E+05 -2.1344E+03   1.0213E+05  0.000E+00  0.000E+00  0.000E+00  4.84069E+01  1.456E-01  2.000E+01  2.000E+04 -1.067E-01
   1   13    2     1     2    1.0213E+05 -3.1546E+03   1.0529E+05  0.000E+00  0.000E+00  0.000E+00  4.79319E+01  1.478E-01  2.000E+01  2.000E+04 -1.577E-01
   1   14    3     1     3    1.0529E+05 -5.0667E+02   1.0580E+05  0.000E+00  0.000E+00  0.000E+00  4.74562E+01  1.494E-01  2.000E+01  2.000E+04 -2.533E-02
   1   15    4     1     4    1.0580E+05 -4.7139E+02   1.0627E+05  0.000E+00  0.000E+00  0.000E+00  4.69794E+01  1.498E-01  2.000E+01  2.000E+04 -2.357E-02
   1   16    5     1     5    1.0627E+05 -1.6932E+03   1.0796E+05  0.000E+00  0.000E+00  0.000E+00  4.65030E+01  1.507E-01  2.000E+01  2.000E+04 -8.466E-02
   1   16    6     1     6    1.0796E+05 -1.0788E+03   1.0904E+05  0.000E+00  0.000E+00  0.000E+00  4.60269E+01  1.519E-01  2.000E+01  2.000E+04 -5.394E-02
   1   16    7     1     7    1.0904E+05 -1.0570E+03   1.1010E+05  0.000E+00  0.000E+00  0.000E+00  4.55505E+01  1.528E-01  2.000E+01  2.000E+04 -5.285E-02
   1   16    8     1     8    1.1010E+05 -1.0417E+03   1.1114E+05  0.000E+00  0.000E+00  0.000E+00  4.50741E+01  1.537E-01  2.000E+01  2.000E+04 -5.209E-02
   1   16    9     1     9    1.1114E+05 -1.0133E+03   1.1215E+05  0.000E+00  0.000E+00  0.000E+00  4.45977E+01  1.545E-01  2.000E+01  2.000E+04 -5.066E-02
   1   16   10     1    10    1.1215E+05 -9.6875E+02   1.1312E+05  0.000E+00  0.000E+00  0.000E+00  4.41213E+01  1.554E-01  2.000E+01  2.000E+04 -4.844E-02
   1   16   11     1    11    1.1312E+05 -9.2071E+02   1.1404E+05  0.000E+00  0.000E+00  0.000E+00  4.36448E+01  1.561E-01  2.000E+01  2.000E+04 -4.604E-02
   1   16   12     1    12    1.1404E+05 -1.4547E+03   1.1550E+05  0.000E+00  0.000E+00  0.000E+00  4.31685E+01  1.571E-01  2.000E+01  2.000E+04 -7.274E-02
   1   15   13     1    13    1.1550E+05 -1.4153E+03   1.1691E+05  0.000E+00  0.000E+00  0.000E+00  4.26924E+01  1.583E-01  2.000E+01  2.000E+04 -7.076E-02
   1   14   14     1    14    1.1691E+05 -1.7137E+03   1.1862E+05  0.000E+00  0.000E+00  0.000E+00  4.22164E+01  1.596E-01  2.000E+01  2.000E+04 -8.569E-02
   1   13   15     1    15    1.1862E+05 -2.0691E+03   1.2069E+05  0.000E+00  0.000E+00  0.000E+00  4.17406E+01  1.611E-01  2.000E+01  2.000E+04 -1.035E-01
   1   12   16     1    16    1.2069E+05 -2.8147E+03   1.2351E+05  0.000E+00  0.000E+00  0.000E+00  4.12653E+01  1.631E-01  2.000E+01  2.000E+04 -1.407E-01
   1   12   17     1    17    1.2351E+05 -1.5362E+03   1.2504E+05  0.000E+00  0.000E+00  0.000E+00  4.07898E+01  1.648E-01  2.000E+01  2.000E+04 -7.681E-02
   1   12   18     1    18    1.2504E+05 -1.1506E+03   1.2619E+05  0.000E+00  0.000E+00  0.000E+00  4.03136E+01  1.659E-01  2.000E+01  2.000E+04 -5.753E-02
   1   12   19     1    19    1.2619E+05 -2.5105E+02   1.2645E+05  0.000E+00  0.000E+00  0.000E+00  3.98369E+01  1.664E-01  2.000E+01  2.000E+04 -1.255E-02
   1   13   20     1    20    1.2645E+05  5.9070E+02   1.2586E+05  0.000E+00  0.000E+00  0.000E+00  3.93595E+01  1.663E-01  2.000E+01  2.000E+04  2.953E-02
   1   14   21     1    21    1.2586E+05  4.0160E+02   1.2545E+05  0.000E+00  0.000E+00  0.000E+00  3.88818E+01  1.659E-01  2.000E+01  2.000E+04  2.008E-02
   1   14   22     1    22    1.2545E+05  5.5164E+03   1.1994E+05  0.000E+00  0.000E+00  0.000E+00  3.84022E+01  1.635E-01  2.000E+01  2.000E+04  2.758E-01
   1    9   30     2     1    5.0000E+04  6.2524E+02   4.9375E+04  0.000E+00  0.000E+00  0.000E+00  4.02404E+01  1.154E-01  2.000E+01  2.000E+04  3.126E-02
   1    9   29     2     2    4.9375E+04  9.4801E+02   4.8427E+04  0.000E+00  0.000E+00  0.000E+00  3.99893E+01  1.143E-01  2.000E+01  2.000E+04  4.740E-02
   1    9   28     2     3    4.8427E+04  2.6852E+03   4.5742E+04  0.000E+00  0.000E+00  0.000E+00  3.97368E+01  1.118E-01  2.000E+01  2.000E+04  1.343E-01
   1    9   27     2     4    4.5742E+04 -8.0148E+02   4.6543E+04  0.000E+00  0.000E+00  0.000E+00  3.94854E+01  1.104E-01  2.000E+01  2.000E+04 -4.007E-02
   1   10   26     2     5    4.6543E+04  5.9258E+02   4.5950E+04  0.000E+00  0.000E+00  0.000E+00  3.92356E+01  1.106E-01  2.000E+01  2.000E+04  2.963E-02
   1   11   25     2     6    4.5950E+04  8.7580E+01   4.5863E+04  0.000E+00  0.000E+00  0.000E+00  3.89851E+01  1.101E-01  2.000E+01  2.000E+04  4.379E-03
   1   12   24     2     7    4.5863E+04  9.6892E+01   4.5766E+04  0.000E+00  0.000E+00  0.000E+00  3.87349E+01  1.099E-01  2.000E+01  2.000E+04  4.845E-03
   1   13   23     2     8    4.5766E+04  7.2017E+01   4.5694E+04  0.000E+00  0.000E+00  0.000E+00  3.84848E+01  1.098E-01  2.000E+01  2.000E+04  3.601E-03
   1   14   22     2     9    4.5694E+04  2.1374E+03   4.3557E+04  0.000E+00  0.000E+00  0.000E+00  3.82332E+01  1.082E-01  2.000E+01  2.000E+04  1.069E-01
   1   14   22     3     1    1.6349E+05 -8.1438E+03   1.7164E+05  0.000E+00  0.000E+00  0.000E+00  3.77192E+01  1.636E-01  2.000E+01  2.000E+04 -4.072E-01
   1   15   23     3     2    1.7164E+05 -2.5872E+02   1.7190E+05  0.000E+00  0.000E+00  0.000E+00  3.68327E+01  1.661E-01  2.000E+01  2.000E+04 -1.294E-02
   1   15   24     3     3    1.7190E+05 -1.8739E+02   1.7208E+05  0.000E+00  0.000E+00  0.000E+00  3.59440E+01  1.662E-01  2.000E+01  2.000E+04 -9.370E-03
   1   15   25     3     4    1.7208E+05 -1.8499E+02   1.7227E+05  0.000E+00  0.000E+00  0.000E+00  3.50552E+01  1.663E-01  2.000E+01  2.000E+04 -9.249E-03
   1   15   26     3     5    1.7227E+05 -2.8028E+01   1.7230E+05  0.000E+00  0.000E+00  0.000E+00  3.41664E+01  1.664E-01  2.000E+01  2.000E+04 -1.401E-03
   1   16   27     3     6    1.7230E+05  8.4487E+02   1.7145E+05  0.000E+00  0.000E+00  0.000E+00  3.32772E+01  1.661E-01  2.000E+01  2.000E+04  4.224E-02
   1   17   28     3     7    1.7145E+05  4.6358E+03   1.6682E+05  0.000E+00  0.000E+00  0.000E+00  3.23867E+01  1.645E-01  2.000E+01  2.000E+04  2.318E-01
   1   18   29     3     8    1.6682E+05 -1.5868E+03   1.6840E+05  0.000E+00  0.000E+00  0.000E+00  3.14970E+01  1.636E-01  2.000E+01  2.000E+04 -7.934E-02
   1   18   30     3     9    1.6840E+05 -1.9587E+03   1.7036E+05  0.000E+00  0.000E+00  0.000E+00  3.06091E+01  1.647E-01  2.000E+01  2.000E+04 -9.794E-02



1
              HEAD IN LAYER   1 AT END OF TIME STEP   1 IN STRESS PERIOD    5
  ---------------------------------------------------------------------------

          1      2      3      4      5      6      7      8      9     10
         11     12     13     14     15     16     17     18     19     20
         21     22     23     24     25     26     27     28     29     30
 .........................................................................
   1  ****** ****** ****** ****** ****** ****** ****** ****** ****** ******
      ****** ****** ****** ****** ****** ****** ****** ****** ****** ******
      ****** ****** ****** ****** ****** ****** ****** ****** ****** ******
   2  ****** ****** ****** ****** ****** ****** ****** ****** ****** ******
      ****** ****** ****** ****** ****** ****** ****** ****** ****** ******
      ****** ****** ****** ****** ****** ****** ****** ****** ****** ******
   3  ****** ****** ****** ****** ****** ****** ****** ****** ****** ******
      ****** ****** ****** ****** ****** ****** ****** ****** ****** ******
      ****** ****** ****** ****** ****** ****** ****** ****** ****** ******
   4  ****** ****** ****** ****** ****** ****** ****** ****** ****** ******
      ****** ****** ****** ****** ****** ****** ****** ****** ****** ******
      ****** ****** ****** ****** ****** ****** ****** ****** ****** ******
   5  ****** ****** ****** ****** ****** ****** ****** ****** ****** ******
      ****** ****** ****** ****** ****** ****** ****** ****** ****** ******
      ****** ****** ****** ****** ****** ****** ****** ****** ****** ******
   6  ****** ****** ****** ****** ****** ****** ****** ****** ****** ******
      ****** ****** ****** ****** ****** ****** ****** ****** ****** ******
      ****** ****** ****** ****** ****** ****** ****** ****** ****** ******
   7  ****** ****** ****** ****** ****** ****** ****** ****** ****** ******
      ****** ****** ****** ****** ****** ****** ****** ****** ****** ******
      ****** ****** ****** ****** ****** ****** ****** ****** ****** ******
   8  ****** ****** ****** ****** ****** ****** ****** ****** ****** ******
      ****** ****** ****** ****** ****** ****** ****** ****** ****** ******
      ****** ****** ****** ****** ****** ****** ****** ****** ****** ******
   9  ****** ****** ****** ****** ****** ****** ****** ****** ****** ******
      ****** ****** ****** ****** ****** ****** ****** ****** ****** ******
      ****** ****** ****** ****** ****** ****** ****** ****** ****** ******
  10  ****** ****** ****** ****** ****** ****** ****** ****** ****** ******
      ****** ****** ****** ****** ****** ****** ****** ****** ****** ******
      ****** ****** ****** ****** ****** ****** ****** ****** ****** ******
  11  ****** ****** ****** ****** ****** ****** ****** ****** ****** ******
      ****** ****** ****** ****** ****** ****** ****** ****** ****** ******
      ****** ****** ****** ****** ****** ****** ****** ****** ****** ******
  12  ****** ****** ****** ****** ****** ****** ****** ****** ****** ******
      ****** ****** ****** ****** ****** ****** ****** ****** ****** ******
      ****** ****** ****** ****** ****** ****** ****** ****** ****** ******
  13  ****** ****** ****** ****** ****** ****** ****** ****** ****** ******
      ****** ****** ****** ****** ****** ****** ****** ****** ****** ******
      ****** ****** ****** ****** ****** ****** ****** ****** ****** ******
  14  ****** ****** ****** ****** ****** ****** ****** ****** ****** ******
      ****** ****** ****** ****** ****** ****** ****** ****** ****** ******
      ****** ****** ****** ****** ****** ****** ****** ****** ****** ******
  15  ****** ****** ****** ****** ****** ****** ****** ****** ****** ******
      ****** ****** ****** ****** ****** ****** ****** ****** ****** ******
      ****** ****** ****** ****** ****** ****** ****** ****** ****** ******
  16  ****** ****** ****** ****** ****** ****** ****** ****** ****** ******
      ****** ****** ****** ****** ****** ****** ****** ****** ****** ******
      ****** ****** ****** ****** ****** ****** ****** ****** ****** ******
  17  ****** ****** ****** ****** ****** ****** ****** ****** ****** ******
      ****** ****** ****** ****** ****** ****** ****** ****** ****** ******
      ****** ****** ****** ****** ****** ****** ****** ****** ****** ******
  18  ****** ****** ****** ****** ****** ****** ****** ****** ****** ******
      ****** ****** ****** ****** ****** ****** ****** ****** ****** ******
      ****** ****** ****** ****** ****** ****** ****** ****** ****** ******
  19  ****** ****** ****** ****** ****** ****** ****** ****** ****** ******
      ****** ****** ****** ****** ****** ****** ****** ****** ****** ******
      ****** ****** ****** ****** ****** ****** ****** ****** ****** ******
  20  ****** ****** ****** ****** ****** ****** ****** ****** ****** ******
      ****** ****** ****** ****** ****** ****** ****** ****** ****** ******
      ****** ****** ****** ****** ****** ****** ****** ****** ****** ******
  21  ****** ****** ****** ****** ****** ****** ****** ****** ****** ******
      ****** ****** ****** ****** ****** ****** ****** ****** ****** ******
      ****** ****** ****** ****** ****** ****** ****** ****** ****** ******
  22  ****** ****** ****** ****** ****** ****** ****** ****** ****** ******
      ****** ****** ****** ****** ****** ****** ****** ****** ****** ******
      ****** ****** ****** ****** ****** ****** ****** ****** ****** ******
  23  ****** ****** ****** ****** ****** ****** ****** ****** ****** ******
      ****** ****** ****** ****** ****** ****** ****** ****** ****** ******
      ****** ****** ****** ****** ****** ****** ****** ****** ****** ******
  24  ****** ****** ****** ****** ****** ****** ****** ****** ****** ******
      ****** ****** ****** ****** ****** ****** ****** ****** ****** ******
      ****** ****** ****** ****** ****** ****** ****** ****** ****** ******
  25  ****** ****** ****** ****** ****** ****** ****** ****** ****** ******
      ****** ****** ****** ****** ****** ****** ****** ****** ****** ******
      ****** ****** ****** ****** ****** ****** ****** ****** ****** ******

 HEAD WILL BE SAVED ON UNIT   51 AT END OF TIME STEP    1, STRESS PERIOD    5
1
  VOLUMETRIC BUDGET FOR ENTIRE MODEL AT END OF TIME STEP    1, STRESS PERIOD   5
  ------------------------------------------------------------------------------

     CUMULATIVE VOLUMES      L**3       RATES FOR THIS TIME STEP      L**3/T
     ------------------                 ------------------------

           IN:                                      IN:
           ---                                      ---
             STORAGE =    30550390.2620               STORAGE =       17907.0956
       CONSTANT HEAD =    10168089.3164         CONSTANT HEAD =       30273.7232
               WELLS =           0.0000                 WELLS =           0.0000
            RECHARGE =    10074000.0000              RECHARGE =       13800.0000
      STREAM LEAKAGE =     6085042.4671        STREAM LEAKAGE =       19234.2989

            TOTAL IN =    56877522.0456              TOTAL IN =       81215.1176

          OUT:                                     OUT:
          ----                                     ----
             STORAGE =         545.6880               STORAGE =           0.0000
       CONSTANT HEAD =           0.0000         CONSTANT HEAD =           0.0000
               WELLS =    19020066.7538                 WELLS =       41619.4021
            RECHARGE =           0.0000              RECHARGE =           0.0000
      STREAM LEAKAGE =    37856911.8698        STREAM LEAKAGE =       39595.7186

           TOTAL OUT =    56877524.3116             TOTAL OUT =       81215.1207

            IN - OUT =          -2.2660              IN - OUT =      -3.0284E-03

 PERCENT DISCREPANCY =          -0.00     PERCENT DISCREPANCY =          -0.00






         TIME SUMMARY AT END OF TIME STEP    1 IN STRESS PERIOD    5
                    SECONDS     MINUTES      HOURS       DAYS        YEARS
                    -----------------------------------------------------------
   TIME STEP LENGTH 7.94880E+06 1.32480E+05  2208.0      92.000     0.25188    
 STRESS PERIOD TIME 7.94880E+06 1.32480E+05  2208.0      92.000     0.25188    
         TOTAL TIME 3.94848E+07 6.58080E+05  10968.      457.00      1.2512    
1
1
                            STRESS PERIOD NO.    6, LENGTH =   91.00000    
                            -----------------------------------------------

                              NUMBER OF TIME STEPS =     1

                               MULTIPLIER FOR DELT =     1.500

                            INITIAL TIME STEP SIZE =   91.00000    

 WELL NO.  LAYER   ROW   COL   STRESS RATE         
 --------------------------------------------------
      1      1     14      6       0.000    
      2      1      3      9       0.000    
      3      1     20     10       0.000    
      4      1     14     20       0.000    
      5      1     11     21     -0.1135E+05
      6      1     18     20      -9351.    
      7      1     16     28     -0.1048E+05
      8      1     10     28     -0.1044E+05

      8 WELLS

                 RECHARGE =  2.000000E-03

 REUSING STREAM SEGMENT DATA FROM LAST STRESS PERIOD
 
 SOLVING FOR HEAD 


     7 CALLS TO PCG ROUTINE FOR TIME STEP   1 IN STRESS PERIOD    6
    26 TOTAL ITERATIONS

 OUTPUT CONTROL FOR STRESS PERIOD    6   TIME STEP    1
    SAVE BUDGET
    SAVE HEAD FOR ALL LAYERS
    PRINT HEAD FOR ALL LAYERS
 UBDSV2 SAVING "STREAMFLOW OUT  " ON UNIT  50 AT TIME STEP  1, STRESS PERIOD   6



 STREAM LISTING     PERIOD      6   STEP        1

 LAYER ROW COL. STREAM  RCH.  FLOW INTO     FLOW TO   FLOW OUT OF   OVRLND.     DIRECT     STREAM       STREAM     STREAM     STREAM   STREAMBED  STREAMBED
                SEG.NO.  NO.  STRM. RCH.    AQUIFER    STRM. RCH.    RUNOFF     PRECIP       ET          HEAD       DEPTH      WIDTH   CONDCTNC.   GRADIENT

   1   13    1     1     1    1.0000E+05 -2.4565E+03   1.0246E+05  0.000E+00  0.000E+00  0.000E+00  4.84071E+01  1.457E-01  2.000E+01  2.000E+04 -1.228E-01
   1   13    2     1     2    1.0246E+05 -3.5076E+03   1.0596E+05  0.000E+00  0.000E+00  0.000E+00  4.79324E+01  1.483E-01  2.000E+01  2.000E+04 -1.754E-01
   1   14    3     1     3    1.0596E+05 -6.6259E+02   1.0663E+05  0.000E+00  0.000E+00  0.000E+00  4.74569E+01  1.500E-01  2.000E+01  2.000E+04 -3.313E-02
   1   15    4     1     4    1.0663E+05 -6.3844E+02   1.0727E+05  0.000E+00  0.000E+00  0.000E+00  4.69801E+01  1.506E-01  2.000E+01  2.000E+04 -3.192E-02
   1   16    5     1     5    1.0727E+05 -2.1888E+03   1.0945E+05  0.000E+00  0.000E+00  0.000E+00  4.65041E+01  1.518E-01  2.000E+01  2.000E+04 -1.094E-01
   1   16    6     1     6    1.0945E+05 -1.3699E+03   1.1082E+05  0.000E+00  0.000E+00  0.000E+00  4.60283E+01  1.533E-01  2.000E+01  2.000E+04 -6.849E-02
   1   16    7     1     7    1.1082E+05 -1.3328E+03   1.1216E+05  0.000E+00  0.000E+00  0.000E+00  4.55521E+01  1.544E-01  2.000E+01  2.000E+04 -6.664E-02
   1   16    8     1     8    1.1216E+05 -1.3128E+03   1.1347E+05  0.000E+00  0.000E+00  0.000E+00  4.50760E+01  1.555E-01  2.000E+01  2.000E+04 -6.564E-02
   1   16    9     1     9    1.1347E+05 -1.2836E+03   1.1475E+05  0.000E+00  0.000E+00  0.000E+00  4.45998E+01  1.566E-01  2.000E+01  2.000E+04 -6.418E-02
   1   16   10     1    10    1.1475E+05 -1.2401E+03   1.1599E+05  0.000E+00  0.000E+00  0.000E+00  4.41235E+01  1.576E-01  2.000E+01  2.000E+04 -6.201E-02
   1   16   11     1    11    1.1599E+05 -1.1946E+03   1.1719E+05  0.000E+00  0.000E+00  0.000E+00  4.36472E+01  1.586E-01  2.000E+01  2.000E+04 -5.973E-02
   1   16   12     1    12    1.1719E+05 -1.8963E+03   1.1908E+05  0.000E+00  0.000E+00  0.000E+00  4.31712E+01  1.599E-01  2.000E+01  2.000E+04 -9.482E-02
   1   15   13     1    13    1.1908E+05 -1.8703E+03   1.2095E+05  0.000E+00  0.000E+00  0.000E+00  4.26955E+01  1.614E-01  2.000E+01  2.000E+04 -9.351E-02
   1   14   14     1    14    1.2095E+05 -2.1662E+03   1.2312E+05  0.000E+00  0.000E+00  0.000E+00  4.22198E+01  1.630E-01  2.000E+01  2.000E+04 -1.083E-01
   1   13   15     1    15    1.2312E+05 -2.5045E+03   1.2563E+05  0.000E+00  0.000E+00  0.000E+00  4.17444E+01  1.649E-01  2.000E+01  2.000E+04 -1.252E-01
   1   12   16     1    16    1.2563E+05 -3.2083E+03   1.2883E+05  0.000E+00  0.000E+00  0.000E+00  4.12694E+01  1.671E-01  2.000E+01  2.000E+04 -1.604E-01
   1   12   17     1    17    1.2883E+05 -1.8538E+03   1.3069E+05  0.000E+00  0.000E+00  0.000E+00  4.07941E+01  1.691E-01  2.000E+01  2.000E+04 -9.269E-02
   1   12   18     1    18    1.3069E+05 -1.4711E+03   1.3216E+05  0.000E+00  0.000E+00  0.000E+00  4.03181E+01  1.704E-01  2.000E+01  2.000E+04 -7.355E-02
   1   12   19     1    19    1.3216E+05 -6.5004E+02   1.3281E+05  0.000E+00  0.000E+00  0.000E+00  3.98417E+01  1.712E-01  2.000E+01  2.000E+04 -3.250E-02
   1   13   20     1    20    1.3281E+05  1.6974E+02   1.3264E+05  0.000E+00  0.000E+00  0.000E+00  3.93646E+01  1.714E-01  2.000E+01  2.000E+04  8.487E-03
   1   14   21     1    21    1.3264E+05 -3.7736E+00   1.3264E+05  0.000E+00  0.000E+00  0.000E+00  3.88873E+01  1.714E-01  2.000E+01  2.000E+04 -1.887E-04
   1   14   22     1    22    1.3264E+05  5.4075E+03   1.2723E+05  0.000E+00  0.000E+00  0.000E+00  3.84079E+01  1.693E-01  2.000E+01  2.000E+04  2.704E-01
   1    9   30     2     1    5.0000E+04  2.6020E+02   4.9740E+04  0.000E+00  0.000E+00  0.000E+00  4.02407E+01  1.157E-01  2.000E+01  2.000E+04  1.301E-02
   1    9   29     2     2    4.9740E+04  5.8719E+02   4.9153E+04  0.000E+00  0.000E+00  0.000E+00  3.99901E+01  1.151E-01  2.000E+01  2.000E+04  2.936E-02
   1    9   28     2     3    4.9153E+04  2.3308E+03   4.6822E+04  0.000E+00  0.000E+00  0.000E+00  3.97380E+01  1.130E-01  2.000E+01  2.000E+04  1.165E-01
   1    9   27     2     4    4.6822E+04 -1.2513E+03   4.8073E+04  0.000E+00  0.000E+00  0.000E+00  3.94873E+01  1.123E-01  2.000E+01  2.000E+04 -6.257E-02
   1   10   26     2     5    4.8073E+04  1.1954E+02   4.7954E+04  0.000E+00  0.000E+00  0.000E+00  3.92381E+01  1.131E-01  2.000E+01  2.000E+04  5.977E-03
   1   11   25     2     6    4.7954E+04 -3.7051E+02   4.8324E+04  0.000E+00  0.000E+00  0.000E+00  3.89883E+01  1.133E-01  2.000E+01  2.000E+04 -1.853E-02
   1   12   24     2     7    4.8324E+04 -3.1632E+02   4.8640E+04  0.000E+00  0.000E+00  0.000E+00  3.87387E+01  1.137E-01  2.000E+01  2.000E+04 -1.582E-02
   1   13   23     2     8    4.8640E+04 -6.6286E+01   4.8707E+04  0.000E+00  0.000E+00  0.000E+00  3.84890E+01  1.140E-01  2.000E+01  2.000E+04 -3.314E-03
   1   14   22     2     9    4.8707E+04  2.0024E+03   4.6704E+04  0.000E+00  0.000E+00  0.000E+00  3.82376E+01  1.126E-01  2.000E+01  2.000E+04  1.001E-01
   1   14   22     3     1    1.7394E+05 -8.2457E+03   1.8218E+05  0.000E+00  0.000E+00  0.000E+00  3.77252E+01  1.697E-01  2.000E+01  2.000E+04 -4.123E-01
   1   15   23     3     2    1.8218E+05 -3.9394E+02   1.8258E+05  0.000E+00  0.000E+00  0.000E+00  3.68388E+01  1.721E-01  2.000E+01  2.000E+04 -1.970E-02
   1   15   24     3     3    1.8258E+05 -3.0805E+02   1.8289E+05  0.000E+00  0.000E+00  0.000E+00  3.59501E+01  1.723E-01  2.000E+01  2.000E+04 -1.540E-02
   1   15   25     3     4    1.8289E+05 -3.1023E+02   1.8320E+05  0.000E+00  0.000E+00  0.000E+00  3.50614E+01  1.725E-01  2.000E+01  2.000E+04 -1.551E-02
   1   15   26     3     5    1.8320E+05 -1.7848E+02   1.8338E+05  0.000E+00  0.000E+00  0.000E+00  3.41727E+01  1.727E-01  2.000E+01  2.000E+04 -8.924E-03
   1   16   27     3     6    1.8338E+05  6.7759E+02   1.8270E+05  0.000E+00  0.000E+00  0.000E+00  3.32836E+01  1.725E-01  2.000E+01  2.000E+04  3.388E-02
   1   17   28     3     7    1.8270E+05  4.1777E+03   1.7852E+05  0.000E+00  0.000E+00  0.000E+00  3.23934E+01  1.711E-01  2.000E+01  2.000E+04  2.089E-01
   1   18   29     3     8    1.7852E+05 -2.0177E+03   1.8054E+05  0.000E+00  0.000E+00  0.000E+00  3.15039E+01  1.705E-01  2.000E+01  2.000E+04 -1.009E-01
   1   18   30     3     9    1.8054E+05 -2.3096E+03   1.8285E+05  0.000E+00  0.000E+00  0.000E+00  3.06162E+01  1.718E-01  2.000E+01  2.000E+04 -1.155E-01



1
              HEAD IN LAYER   1 AT END OF TIME STEP   1 IN STRESS PERIOD    6
  ---------------------------------------------------------------------------

          1      2      3      4      5      6      7      8      9     10
         11     12     13     14     15     16     17     18     19     20
         21     22     23     24     25     26     27     28     29     30
 .........................................................................
   1  ****** ****** ****** ****** ****** ****** ****** ****** ****** ******
      ****** ****** ****** ****** ****** ****** ****** ****** ****** ******
      ****** ****** ****** ****** ****** ****** ****** ****** ****** ******
   2  ****** ****** ****** ****** ****** ****** ****** ****** ****** ******
      ****** ****** ****** ****** ****** ****** ****** ****** ****** ******
      ****** ****** ****** ****** ****** ****** ****** ****** ****** ******
   3  ****** ****** ****** ****** ****** ****** ****** ****** ****** ******
      ****** ****** ****** ****** ****** ****** ****** ****** ****** ******
      ****** ****** ****** ****** ****** ****** ****** ****** ****** ******
   4  ****** ****** ****** ****** ****** ****** ****** ****** ****** ******
      ****** ****** ****** ****** ****** ****** ****** ****** ****** ******
      ****** ****** ****** ****** ****** ****** ****** ****** ****** ******
   5  ****** ****** ****** ****** ****** ****** ****** ****** ****** ******
      ****** ****** ****** ****** ****** ****** ****** ****** ****** ******
      ****** ****** ****** ****** ****** ****** ****** ****** ****** ******
   6  ****** ****** ****** ****** ****** ****** ****** ****** ****** ******
      ****** ****** ****** ****** ****** ****** ****** ****** ****** ******
      ****** ****** ****** ****** ****** ****** ****** ****** ****** ******
   7  ****** ****** ****** ****** ****** ****** ****** ****** ****** ******
      ****** ****** ****** ****** ****** ****** ****** ****** ****** ******
      ****** ****** ****** ****** ****** ****** ****** ****** ****** ******
   8  ****** ****** ****** ****** ****** ****** ****** ****** ****** ******
      ****** ****** ****** ****** ****** ****** ****** ****** ****** ******
      ****** ****** ****** ****** ****** ****** ****** ****** ****** ******
   9  ****** ****** ****** ****** ****** ****** ****** ****** ****** ******
      ****** ****** ****** ****** ****** ****** ****** ****** ****** ******
      ****** ****** ****** ****** ****** ****** ****** ****** ****** ******
  10  ****** ****** ****** ****** ****** ****** ****** ****** ****** ******
      ****** ****** ****** ****** ****** ****** ****** ****** ****** ******
      ****** ****** ****** ****** ****** ****** ****** ****** ****** ******
  11  ****** ****** ****** ****** ****** ****** ****** ****** ****** ******
      ****** ****** ****** ****** ****** ****** ****** ****** ****** ******
      ****** ****** ****** ****** ****** ****** ****** ****** ****** ******
  12  ****** ****** ****** ****** ****** ****** ****** ****** ****** ******
      ****** ****** ****** ****** ****** ****** ****** ****** ****** ******
      ****** ****** ****** ****** ****** ****** ****** ****** ****** ******
  13  ****** ****** ****** ****** ****** ****** ****** ****** ****** ******
      ****** ****** ****** ****** ****** ****** ****** ****** ****** ******
      ****** ****** ****** ****** ****** ****** ****** ****** ****** ******
  14  ****** ****** ****** ****** ****** ****** ****** ****** ****** ******
      ****** ****** ****** ****** ****** ****** ****** ****** ****** ******
      ****** ****** ****** ****** ****** ****** ****** ****** ****** ******
  15  ****** ****** ****** ****** ****** ****** ****** ****** ****** ******
      ****** ****** ****** ****** ****** ****** ****** ****** ****** ******
      ****** ****** ****** ****** ****** ****** ****** ****** ****** ******
  16  ****** ****** ****** ****** ****** ****** ****** ****** ****** ******
      ****** ****** ****** ****** ****** ****** ****** ****** ****** ******
      ****** ****** ****** ****** ****** ****** ****** ****** ****** ******
  17  ****** ****** ****** ****** ****** ****** ****** ****** ****** ******
      ****** ****** ****** ****** ****** ****** ****** ****** ****** ******
      ****** ****** ****** ****** ****** ****** ****** ****** ****** ******
  18  ****** ****** ****** ****** ****** ****** ****** ****** ****** ******
      ****** ****** ****** ****** ****** ****** ****** ****** ****** ******
      ****** ****** ****** ****** ****** ****** ****** ****** ****** ******
  19  ****** ****** ****** ****** ****** ****** ****** ****** ****** ******
      ****** ****** ****** ****** ****** ****** ****** ****** ****** ******
      ****** ****** ****** ****** ****** ****** ****** ****** ****** ******
  20  ****** ****** ****** ****** ****** ****** ****** ****** ****** ******
      ****** ****** ****** ****** ****** ****** ****** ****** ****** ******
      ****** ****** ****** ****** ****** ****** ****** ****** ****** ******
  21  ****** ****** ****** ****** ****** ****** ****** ****** ****** ******
      ****** ****** ****** ****** ****** ****** ****** ****** ****** ******
      ****** ****** ****** ****** ****** ****** ****** ****** ****** ******
  22  ****** ****** ****** ****** ****** ****** ****** ****** ****** ******
      ****** ****** ****** ****** ****** ****** ****** ****** ****** ******
      ****** ****** ****** ****** ****** ****** ****** ****** ****** ******
  23  ****** ****** ****** ****** ****** ****** ****** ****** ****** ******
      ****** ****** ****** ****** ****** ****** ****** ****** ****** ******
      ****** ****** ****** ****** ****** ****** ****** ****** ****** ******
  24  ****** ****** ****** ****** ****** ****** ****** ****** ****** ******
      ****** ****** ****** ****** ****** ****** ****** ****** ****** ******
      ****** ****** ****** ****** ****** ****** ****** ****** ****** ******
  25  ****** ****** ****** ****** ****** ****** ****** ****** ****** ******
      ****** ****** ****** ****** ****** ****** ****** ****** ****** ******
      ****** ****** ****** ****** ****** ****** ****** ****** ****** ******

 HEAD WILL BE SAVED ON UNIT   51 AT END OF TIME STEP    1, STRESS PERIOD    6
1
  VOLUMETRIC BUDGET FOR ENTIRE MODEL AT END OF TIME STEP    1, STRESS PERIOD   6
  ------------------------------------------------------------------------------

     CUMULATIVE VOLUMES      L**3       RATES FOR THIS TIME STEP      L**3/T
     ------------------                 ------------------------

           IN:                                      IN:
           ---                                      ---
             STORAGE =    30550390.2620               STORAGE =           0.0000
       CONSTANT HEAD =    12746496.0082         CONSTANT HEAD =       28334.1395
               WELLS =           0.0000                 WELLS =           0.0000
            RECHARGE =    15097200.0000              RECHARGE =       55200.0000
      STREAM LEAKAGE =     7516711.9040        STREAM LEAKAGE =       15732.6312

            TOTAL IN =    65910798.1742              TOTAL IN =       99266.7706

          OUT:                                     OUT:
          ----                                     ----
             STORAGE =      825648.5223               STORAGE =        9067.0641
       CONSTANT HEAD =           0.0000         CONSTANT HEAD =           0.0000
               WELLS =    22807432.3437                 WELLS =       41619.4021
            RECHARGE =           0.0000              RECHARGE =           0.0000
      STREAM LEAKAGE =    42277719.3108        STREAM LEAKAGE =       48580.3015

           TOTAL OUT =    65910800.1767             TOTAL OUT =       99266.7677

            IN - OUT =          -2.0025              IN - OUT =       2.8957E-03

 PERCENT DISCREPANCY =          -0.00     PERCENT DISCREPANCY =           0.00






         TIME SUMMARY AT END OF TIME STEP    1 IN STRESS PERIOD    6
                    SECONDS     MINUTES      HOURS       DAYS        YEARS
                    -----------------------------------------------------------
   TIME STEP LENGTH 7.86240E+06 1.31040E+05  2184.0      91.000     0.24914    
 STRESS PERIOD TIME 7.86240E+06 1.31040E+05  2184.0      91.000     0.24914    
         TOTAL TIME 4.73472E+07 7.89120E+05  13152.      548.00      1.5003    
1
1
                            STRESS PERIOD NO.    7, LENGTH =   91.00000    
                            -----------------------------------------------

                              NUMBER OF TIME STEPS =     1

                               MULTIPLIER FOR DELT =     1.500

                            INITIAL TIME STEP SIZE =   91.00000    

 WELL NO.  LAYER   ROW   COL   STRESS RATE         
 --------------------------------------------------
      1      1     14      6       0.000    
      2      1      3      9       0.000    
      3      1     20     10       0.000    
      4      1     14     20       0.000    
      5      1     11     21     -0.1135E+05
      6      1     18     20      -9351.    
      7      1     16     28     -0.1048E+05
      8      1     10     28     -0.1044E+05

      8 WELLS

                 RECHARGE =   0.00000    

 REUSING STREAM SEGMENT DATA FROM LAST STRESS PERIOD
 
 SOLVING FOR HEAD 


     7 CALLS TO PCG ROUTINE FOR TIME STEP   1 IN STRESS PERIOD    7
    26 TOTAL ITERATIONS

 OUTPUT CONTROL FOR STRESS PERIOD    7   TIME STEP    1
    SAVE BUDGET
    SAVE HEAD FOR ALL LAYERS
    PRINT HEAD FOR ALL LAYERS
 UBDSV2 SAVING "STREAMFLOW OUT  " ON UNIT  50 AT TIME STEP  1, STRESS PERIOD   7



 STREAM LISTING     PERIOD      7   STEP        1

 LAYER ROW COL. STREAM  RCH.  FLOW INTO     FLOW TO   FLOW OUT OF   OVRLND.     DIRECT     STREAM       STREAM     STREAM     STREAM   STREAMBED  STREAMBED
                SEG.NO.  NO.  STRM. RCH.    AQUIFER    STRM. RCH.    RUNOFF     PRECIP       ET          HEAD       DEPTH      WIDTH   CONDCTNC.   GRADIENT

   1   13    1     1     1    1.0000E+05 -1.7966E+03   1.0180E+05  0.000E+00  0.000E+00  0.000E+00  4.84068E+01  1.454E-01  2.000E+01  2.000E+04 -8.983E-02
   1   13    2     1     2    1.0180E+05 -2.7696E+03   1.0457E+05  0.000E+00  0.000E+00  0.000E+00  4.79315E+01  1.474E-01  2.000E+01  2.000E+04 -1.385E-01
   1   14    3     1     3    1.0457E+05 -4.1157E+02   1.0498E+05  0.000E+00  0.000E+00  0.000E+00  4.74556E+01  1.488E-01  2.000E+01  2.000E+04 -2.058E-02
   1   15    4     1     4    1.0498E+05 -3.7641E+02   1.0535E+05  0.000E+00  0.000E+00  0.000E+00  4.69786E+01  1.491E-01  2.000E+01  2.000E+04 -1.882E-02
   1   16    5     1     5    1.0535E+05 -1.4352E+03   1.0679E+05  0.000E+00  0.000E+00  0.000E+00  4.65021E+01  1.499E-01  2.000E+01  2.000E+04 -7.176E-02
   1   16    6     1     6    1.0679E+05 -9.1563E+02   1.0770E+05  0.000E+00  0.000E+00  0.000E+00  4.60259E+01  1.509E-01  2.000E+01  2.000E+04 -4.578E-02
   1   16    7     1     7    1.0770E+05 -8.9693E+02   1.0860E+05  0.000E+00  0.000E+00  0.000E+00  4.55493E+01  1.516E-01  2.000E+01  2.000E+04 -4.485E-02
   1   16    8     1     8    1.0860E+05 -8.8279E+02   1.0948E+05  0.000E+00  0.000E+00  0.000E+00  4.50728E+01  1.524E-01  2.000E+01  2.000E+04 -4.414E-02
   1   16    9     1     9    1.0948E+05 -8.5649E+02   1.1034E+05  0.000E+00  0.000E+00  0.000E+00  4.45963E+01  1.531E-01  2.000E+01  2.000E+04 -4.282E-02
   1   16   10     1    10    1.1034E+05 -8.1517E+02   1.1116E+05  0.000E+00  0.000E+00  0.000E+00  4.41197E+01  1.538E-01  2.000E+01  2.000E+04 -4.076E-02
   1   16   11     1    11    1.1116E+05 -7.6792E+02   1.1192E+05  0.000E+00  0.000E+00  0.000E+00  4.36431E+01  1.544E-01  2.000E+01  2.000E+04 -3.840E-02
   1   16   12     1    12    1.1192E+05 -1.1790E+03   1.1310E+05  0.000E+00  0.000E+00  0.000E+00  4.31666E+01  1.553E-01  2.000E+01  2.000E+04 -5.895E-02
   1   15   13     1    13    1.1310E+05 -1.1033E+03   1.1421E+05  0.000E+00  0.000E+00  0.000E+00  4.26903E+01  1.562E-01  2.000E+01  2.000E+04 -5.517E-02
   1   14   14     1    14    1.1421E+05 -1.3731E+03   1.1558E+05  0.000E+00  0.000E+00  0.000E+00  4.22140E+01  1.572E-01  2.000E+01  2.000E+04 -6.866E-02
   1   13   15     1    15    1.1558E+05 -1.7111E+03   1.1729E+05  0.000E+00  0.000E+00  0.000E+00  4.17380E+01  1.585E-01  2.000E+01  2.000E+04 -8.556E-02
   1   12   16     1    16    1.1729E+05 -2.4241E+03   1.1971E+05  0.000E+00  0.000E+00  0.000E+00  4.12624E+01  1.602E-01  2.000E+01  2.000E+04 -1.212E-01
   1   12   17     1    17    1.1971E+05 -1.2813E+03   1.2100E+05  0.000E+00  0.000E+00  0.000E+00  4.07867E+01  1.617E-01  2.000E+01  2.000E+04 -6.407E-02
   1   12   18     1    18    1.2100E+05 -9.1194E+02   1.2191E+05  0.000E+00  0.000E+00  0.000E+00  4.03103E+01  1.625E-01  2.000E+01  2.000E+04 -4.560E-02
   1   12   19     1    19    1.2191E+05  3.2763E+01   1.2188E+05  0.000E+00  0.000E+00  0.000E+00  3.98333E+01  1.629E-01  2.000E+01  2.000E+04  1.638E-03
   1   13   20     1    20    1.2188E+05  8.3865E+02   1.2104E+05  0.000E+00  0.000E+00  0.000E+00  3.93557E+01  1.625E-01  2.000E+01  2.000E+04  4.193E-02
   1   14   21     1    21    1.2104E+05  6.5966E+02   1.2038E+05  0.000E+00  0.000E+00  0.000E+00  3.88779E+01  1.619E-01  2.000E+01  2.000E+04  3.298E-02
   1   14   22     1    22    1.2038E+05  5.5705E+03   1.1481E+05  0.000E+00  0.000E+00  0.000E+00  3.83981E+01  1.594E-01  2.000E+01  2.000E+04  2.785E-01
   1    9   30     2     1    5.0000E+04  7.7272E+02   4.9227E+04  0.000E+00  0.000E+00  0.000E+00  4.02403E+01  1.153E-01  2.000E+01  2.000E+04  3.864E-02
   1    9   29     2     2    4.9227E+04  1.0978E+03   4.8129E+04  0.000E+00  0.000E+00  0.000E+00  3.99890E+01  1.140E-01  2.000E+01  2.000E+04  5.489E-02
   1    9   28     2     3    4.8129E+04  2.8425E+03   4.5287E+04  0.000E+00  0.000E+00  0.000E+00  3.97362E+01  1.112E-01  2.000E+01  2.000E+04  1.421E-01
   1    9   27     2     4    4.5287E+04 -5.5717E+02   4.5844E+04  0.000E+00  0.000E+00  0.000E+00  3.94846E+01  1.096E-01  2.000E+01  2.000E+04 -2.786E-02
   1   10   26     2     5    4.5844E+04  8.1608E+02   4.5028E+04  0.000E+00  0.000E+00  0.000E+00  3.92344E+01  1.094E-01  2.000E+01  2.000E+04  4.080E-02
   1   11   25     2     6    4.5028E+04  2.9748E+02   4.4730E+04  0.000E+00  0.000E+00  0.000E+00  3.89836E+01  1.086E-01  2.000E+01  2.000E+04  1.487E-02
   1   12   24     2     7    4.4730E+04  2.9242E+02   4.4438E+04  0.000E+00  0.000E+00  0.000E+00  3.87332E+01  1.082E-01  2.000E+01  2.000E+04  1.462E-02
   1   13   23     2     8    4.4438E+04  1.2512E+02   4.4313E+04  0.000E+00  0.000E+00  0.000E+00  3.84829E+01  1.079E-01  2.000E+01  2.000E+04  6.256E-03
   1   14   22     2     9    4.4313E+04  2.2320E+03   4.2081E+04  0.000E+00  0.000E+00  0.000E+00  3.82311E+01  1.061E-01  2.000E+01  2.000E+04  1.116E-01
   1   14   22     3     1    1.5689E+05 -8.0857E+03   1.6497E+05  0.000E+00  0.000E+00  0.000E+00  3.77152E+01  1.597E-01  2.000E+01  2.000E+04 -4.043E-01
   1   15   23     3     2    1.6497E+05 -1.8690E+02   1.6516E+05  0.000E+00  0.000E+00  0.000E+00  3.68288E+01  1.621E-01  2.000E+01  2.000E+04 -9.345E-03
   1   15   24     3     3    1.6516E+05 -1.3405E+02   1.6529E+05  0.000E+00  0.000E+00  0.000E+00  3.59400E+01  1.622E-01  2.000E+01  2.000E+04 -6.702E-03
   1   15   25     3     4    1.6529E+05 -1.3319E+02   1.6543E+05  0.000E+00  0.000E+00  0.000E+00  3.50512E+01  1.623E-01  2.000E+01  2.000E+04 -6.659E-03
   1   15   26     3     5    1.6543E+05  2.2965E+01   1.6540E+05  0.000E+00  0.000E+00  0.000E+00  3.41623E+01  1.623E-01  2.000E+01  2.000E+04  1.148E-03
   1   16   27     3     6    1.6540E+05  9.1033E+02   1.6449E+05  0.000E+00  0.000E+00  0.000E+00  3.32732E+01  1.621E-01  2.000E+01  2.000E+04  4.552E-02
   1   17   28     3     7    1.6449E+05  4.8205E+03   1.5967E+05  0.000E+00  0.000E+00  0.000E+00  3.23826E+01  1.604E-01  2.000E+01  2.000E+04  2.410E-01
   1   18   29     3     8    1.5967E+05 -1.3290E+03   1.6100E+05  0.000E+00  0.000E+00  0.000E+00  3.14927E+01  1.593E-01  2.000E+01  2.000E+04 -6.645E-02
   1   18   30     3     9    1.6100E+05 -1.7796E+03   1.6278E+05  0.000E+00  0.000E+00  0.000E+00  3.06047E+01  1.603E-01  2.000E+01  2.000E+04 -8.898E-02



1
              HEAD IN LAYER   1 AT END OF TIME STEP   1 IN STRESS PERIOD    7
  ---------------------------------------------------------------------------

          1      2      3      4      5      6      7      8      9     10
         11     12     13     14     15     16     17     18     19     20
         21     22     23     24     25     26     27     28     29     30
 .........................................................................
   1  ****** ****** ****** ****** ****** ****** ****** ****** ****** ******
      ****** ****** ****** ****** ****** ****** ****** ****** ****** ******
      ****** ****** ****** ****** ****** ****** ****** ****** ****** ******
   2  ****** ****** ****** ****** ****** ****** ****** ****** ****** ******
      ****** ****** ****** ****** ****** ****** ****** ****** ****** ******
      ****** ****** ****** ****** ****** ****** ****** ****** ****** ******
   3  ****** ****** ****** ****** ****** ****** ****** ****** ****** ******
      ****** ****** ****** ****** ****** ****** ****** ****** ****** ******
      ****** ****** ****** ****** ****** ****** ****** ****** ****** ******
   4  ****** ****** ****** ****** ****** ****** ****** ****** ****** ******
      ****** ****** ****** ****** ****** ****** ****** ****** ****** ******
      ****** ****** ****** ****** ****** ****** ****** ****** ****** ******
   5  ****** ****** ****** ****** ****** ****** ****** ****** ****** ******
      ****** ****** ****** ****** ****** ****** ****** ****** ****** ******
      ****** ****** ****** ****** ****** ****** ****** ****** ****** ******
   6  ****** ****** ****** ****** ****** ****** ****** ****** ****** ******
      ****** ****** ****** ****** ****** ****** ****** ****** ****** ******
      ****** ****** ****** ****** ****** ****** ****** ****** ****** ******
   7  ****** ****** ****** ****** ****** ****** ****** ****** ****** ******
      ****** ****** ****** ****** ****** ****** ****** ****** ****** ******
      ****** ****** ****** ****** ****** ****** ****** ****** ****** ******
   8  ****** ****** ****** ****** ****** ****** ****** ****** ****** ******
      ****** ****** ****** ****** ****** ****** ****** ****** ****** ******
      ****** ****** ****** ****** ****** ****** ****** ****** ****** ******
   9  ****** ****** ****** ****** ****** ****** ****** ****** ****** ******
      ****** ****** ****** ****** ****** ****** ****** ****** ****** ******
      ****** ****** ****** ****** ****** ****** ****** ****** ****** ******
  10  ****** ****** ****** ****** ****** ****** ****** ****** ****** ******
      ****** ****** ****** ****** ****** ****** ****** ****** ****** ******
      ****** ****** ****** ****** ****** ****** ****** ****** ****** ******
  11  ****** ****** ****** ****** ****** ****** ****** ****** ****** ******
      ****** ****** ****** ****** ****** ****** ****** ****** ****** ******
      ****** ****** ****** ****** ****** ****** ****** ****** ****** ******
  12  ****** ****** ****** ****** ****** ****** ****** ****** ****** ******
      ****** ****** ****** ****** ****** ****** ****** ****** ****** ******
      ****** ****** ****** ****** ****** ****** ****** ****** ****** ******
  13  ****** ****** ****** ****** ****** ****** ****** ****** ****** ******
      ****** ****** ****** ****** ****** ****** ****** ****** ****** ******
      ****** ****** ****** ****** ****** ****** ****** ****** ****** ******
  14  ****** ****** ****** ****** ****** ****** ****** ****** ****** ******
      ****** ****** ****** ****** ****** ****** ****** ****** ****** ******
      ****** ****** ****** ****** ****** ****** ****** ****** ****** ******
  15  ****** ****** ****** ****** ****** ****** ****** ****** ****** ******
      ****** ****** ****** ****** ****** ****** ****** ****** ****** ******
      ****** ****** ****** ****** ****** ****** ****** ****** ****** ******
  16  ****** ****** ****** ****** ****** ****** ****** ****** ****** ******
      ****** ****** ****** ****** ****** ****** ****** ****** ****** ******
      ****** ****** ****** ****** ****** ****** ****** ****** ****** ******
  17  ****** ****** ****** ****** ****** ****** ****** ****** ****** ******
      ****** ****** ****** ****** ****** ****** ****** ****** ****** ******
      ****** ****** ****** ****** ****** ****** ****** ****** ****** ******
  18  ****** ****** ****** ****** ****** ****** ****** ****** ****** ******
      ****** ****** ****** ****** ****** ****** ****** ****** ****** ******
      ****** ****** ****** ****** ****** ****** ****** ****** ****** ******
  19  ****** ****** ****** ****** ****** ****** ****** ****** ****** ******
      ****** ****** ****** ****** ****** ****** ****** ****** ****** ******
      ****** ****** ****** ****** ****** ****** ****** ****** ****** ******
  20  ****** ****** ****** ****** ****** ****** ****** ****** ****** ******
      ****** ****** ****** ****** ****** ****** ****** ****** ****** ******
      ****** ****** ****** ****** ****** ****** ****** ****** ****** ******
  21  ****** ****** ****** ****** ****** ****** ****** ****** ****** ******
      ****** ****** ****** ****** ****** ****** ****** ****** ****** ******
      ****** ****** ****** ****** ****** ****** ****** ****** ****** ******
  22  ****** ****** ****** ****** ****** ****** ****** ****** ****** ******
      ****** ****** ****** ****** ****** ****** ****** ****** ****** ******
      ****** ****** ****** ****** ****** ****** ****** ****** ****** ******
  23  ****** ****** ****** ****** ****** ****** ****** ****** ****** ******
      ****** ****** ****** ****** ****** ****** ****** ****** ****** ******
      ****** ****** ****** ****** ****** ****** ****** ****** ****** ******
  24  ****** ****** ****** ****** ****** ****** ****** ****** ****** ******
      ****** ****** ****** ****** ****** ****** ****** ****** ****** ******
      ****** ****** ****** ****** ****** ****** ****** ****** ****** ******
  25  ****** ****** ****** ****** ****** ****** ****** ****** ****** ******
      ****** ****** ****** ****** ****** ****** ****** ****** ****** ******
      ****** ****** ****** ****** ****** ****** ****** ****** ****** ******

 HEAD WILL BE SAVED ON UNIT   51 AT END OF TIME STEP    1, STRESS PERIOD    7
1
  VOLUMETRIC BUDGET FOR ENTIRE MODEL AT END OF TIME STEP    1, STRESS PERIOD   7
  ------------------------------------------------------------------------------

     CUMULATIVE VOLUMES      L**3       RATES FOR THIS TIME STEP      L**3/T
     ------------------                 ------------------------

           IN:                                      IN:
           ---                                      ---
             STORAGE =    32567303.6814               STORAGE =       22163.8837
       CONSTANT HEAD =    15680118.4842         CONSTANT HEAD =       32237.6096
               WELLS =           0.0000                 WELLS =           0.0000
            RECHARGE =    15097200.0000              RECHARGE =           0.0000
      STREAM LEAKAGE =     9457889.3138        STREAM LEAKAGE =       21331.6199

            TOTAL IN =    72802511.4794              TOTAL IN =       75733.1132

          OUT:                                     OUT:
          ----                                     ----
             STORAGE =      825648.5223               STORAGE =           0.0000
       CONSTANT HEAD =           0.0000         CONSTANT HEAD =           0.0000
               WELLS =    26594797.9336                 WELLS =       41619.4021
            RECHARGE =           0.0000              RECHARGE =           0.0000
      STREAM LEAKAGE =    45382067.5200        STREAM LEAKAGE =       34113.7166

           TOTAL OUT =    72802513.9759             TOTAL OUT =       75733.1187

            IN - OUT =          -2.4965              IN - OUT =      -5.4285E-03

 PERCENT DISCREPANCY =          -0.00     PERCENT DISCREPANCY =          -0.00






         TIME SUMMARY AT END OF TIME STEP    1 IN STRESS PERIOD    7
                    SECONDS     MINUTES      HOURS       DAYS        YEARS
                    -----------------------------------------------------------
   TIME STEP LENGTH 7.86240E+06 1.31040E+05  2184.0      91.000     0.24914    
 STRESS PERIOD TIME 7.86240E+06 1.31040E+05  2184.0      91.000     0.24914    
         TOTAL TIME 5.52096E+07 9.20160E+05  15336.      639.00      1.7495    
1
1
                            STRESS PERIOD NO.    8, LENGTH =   91.00000    
                            -----------------------------------------------

                              NUMBER OF TIME STEPS =     1

                               MULTIPLIER FOR DELT =     1.500

                            INITIAL TIME STEP SIZE =   91.00000    

 WELL NO.  LAYER   ROW   COL   STRESS RATE         
 --------------------------------------------------
      1      1     14      6       0.000    
      2      1      3      9       0.000    
      3      1     20     10       0.000    
      4      1     14     20       0.000    
      5      1     11     21     -0.1135E+05
      6      1     18     20      -9351.    
      7      1     16     28     -0.1048E+05
      8      1     10     28     -0.1044E+05

      8 WELLS

                 RECHARGE =  1.000000E-03

 REUSING STREAM SEGMENT DATA FROM LAST STRESS PERIOD
 
 SOLVING FOR HEAD 


     6 CALLS TO PCG ROUTINE FOR TIME STEP   1 IN STRESS PERIOD    8
    22 TOTAL ITERATIONS

 OUTPUT CONTROL FOR STRESS PERIOD    8   TIME STEP    1
    SAVE BUDGET
    SAVE HEAD FOR ALL LAYERS
    PRINT HEAD FOR ALL LAYERS
 UBDSV2 SAVING "STREAMFLOW OUT  " ON UNIT  50 AT TIME STEP  1, STRESS PERIOD   8



 STREAM LISTING     PERIOD      8   STEP        1

 LAYER ROW COL. STREAM  RCH.  FLOW INTO     FLOW TO   FLOW OUT OF   OVRLND.     DIRECT     STREAM       STREAM     STREAM     STREAM   STREAMBED  STREAMBED
                SEG.NO.  NO.  STRM. RCH.    AQUIFER    STRM. RCH.    RUNOFF     PRECIP       ET          HEAD       DEPTH      WIDTH   CONDCTNC.   GRADIENT

   1   13    1     1     1    1.0000E+05 -1.8749E+03   1.0187E+05  0.000E+00  0.000E+00  0.000E+00  4.84068E+01  1.455E-01  2.000E+01  2.000E+04 -9.374E-02
   1   13    2     1     2    1.0187E+05 -2.8482E+03   1.0472E+05  0.000E+00  0.000E+00  0.000E+00  4.79316E+01  1.475E-01  2.000E+01  2.000E+04 -1.424E-01
   1   14    3     1     3    1.0472E+05 -4.7637E+02   1.0520E+05  0.000E+00  0.000E+00  0.000E+00  4.74557E+01  1.489E-01  2.000E+01  2.000E+04 -2.382E-02
   1   15    4     1     4    1.0520E+05 -4.4565E+02   1.0565E+05  0.000E+00  0.000E+00  0.000E+00  4.69789E+01  1.493E-01  2.000E+01  2.000E+04 -2.228E-02
   1   16    5     1     5    1.0565E+05 -1.6089E+03   1.0725E+05  0.000E+00  0.000E+00  0.000E+00  4.65025E+01  1.502E-01  2.000E+01  2.000E+04 -8.045E-02
   1   16    6     1     6    1.0725E+05 -1.0228E+03   1.0828E+05  0.000E+00  0.000E+00  0.000E+00  4.60263E+01  1.513E-01  2.000E+01  2.000E+04 -5.114E-02
   1   16    7     1     7    1.0828E+05 -9.9915E+02   1.0928E+05  0.000E+00  0.000E+00  0.000E+00  4.55499E+01  1.521E-01  2.000E+01  2.000E+04 -4.996E-02
   1   16    8     1     8    1.0928E+05 -9.8412E+02   1.1026E+05  0.000E+00  0.000E+00  0.000E+00  4.50734E+01  1.530E-01  2.000E+01  2.000E+04 -4.921E-02
   1   16    9     1     9    1.1026E+05 -9.5887E+02   1.1122E+05  0.000E+00  0.000E+00  0.000E+00  4.45970E+01  1.538E-01  2.000E+01  2.000E+04 -4.794E-02
   1   16   10     1    10    1.1122E+05 -9.1987E+02   1.1214E+05  0.000E+00  0.000E+00  0.000E+00  4.41205E+01  1.546E-01  2.000E+01  2.000E+04 -4.599E-02
   1   16   11     1    11    1.1214E+05 -8.7541E+02   1.1301E+05  0.000E+00  0.000E+00  0.000E+00  4.36439E+01  1.553E-01  2.000E+01  2.000E+04 -4.377E-02
   1   16   12     1    12    1.1301E+05 -1.3397E+03   1.1435E+05  0.000E+00  0.000E+00  0.000E+00  4.31676E+01  1.562E-01  2.000E+01  2.000E+04 -6.698E-02
   1   15   13     1    13    1.1435E+05 -1.2722E+03   1.1563E+05  0.000E+00  0.000E+00  0.000E+00  4.26914E+01  1.573E-01  2.000E+01  2.000E+04 -6.361E-02
   1   14   14     1    14    1.1563E+05 -1.5359E+03   1.1716E+05  0.000E+00  0.000E+00  0.000E+00  4.22153E+01  1.584E-01  2.000E+01  2.000E+04 -7.679E-02
   1   13   15     1    15    1.1716E+05 -1.8617E+03   1.1902E+05  0.000E+00  0.000E+00  0.000E+00  4.17394E+01  1.598E-01  2.000E+01  2.000E+04 -9.309E-02
   1   12   16     1    16    1.1902E+05 -2.5379E+03   1.2156E+05  0.000E+00  0.000E+00  0.000E+00  4.12639E+01  1.616E-01  2.000E+01  2.000E+04 -1.269E-01
   1   12   17     1    17    1.2156E+05 -1.3937E+03   1.2296E+05  0.000E+00  0.000E+00  0.000E+00  4.07882E+01  1.632E-01  2.000E+01  2.000E+04 -6.969E-02
   1   12   18     1    18    1.2296E+05 -1.0308E+03   1.2399E+05  0.000E+00  0.000E+00  0.000E+00  4.03119E+01  1.642E-01  2.000E+01  2.000E+04 -5.154E-02
   1   12   19     1    19    1.2399E+05 -1.1725E+02   1.2410E+05  0.000E+00  0.000E+00  0.000E+00  3.98351E+01  1.646E-01  2.000E+01  2.000E+04 -5.862E-03
   1   13   20     1    20    1.2410E+05  6.6079E+02   1.2344E+05  0.000E+00  0.000E+00  0.000E+00  3.93576E+01  1.644E-01  2.000E+01  2.000E+04  3.304E-02
   1   14   21     1    21    1.2344E+05  5.0261E+02   1.2294E+05  0.000E+00  0.000E+00  0.000E+00  3.88798E+01  1.639E-01  2.000E+01  2.000E+04  2.513E-02
   1   14   22     1    22    1.2294E+05  5.5217E+03   1.1742E+05  0.000E+00  0.000E+00  0.000E+00  3.84002E+01  1.615E-01  2.000E+01  2.000E+04  2.761E-01
   1    9   30     2     1    5.0000E+04  6.0920E+02   4.9391E+04  0.000E+00  0.000E+00  0.000E+00  4.02404E+01  1.154E-01  2.000E+01  2.000E+04  3.046E-02
   1    9   29     2     2    4.9391E+04  9.3709E+02   4.8454E+04  0.000E+00  0.000E+00  0.000E+00  3.99894E+01  1.144E-01  2.000E+01  2.000E+04  4.685E-02
   1    9   28     2     3    4.8454E+04  2.6873E+03   4.5766E+04  0.000E+00  0.000E+00  0.000E+00  3.97368E+01  1.118E-01  2.000E+01  2.000E+04  1.344E-01
   1    9   27     2     4    4.5766E+04 -7.3602E+02   4.6502E+04  0.000E+00  0.000E+00  0.000E+00  3.94854E+01  1.104E-01  2.000E+01  2.000E+04 -3.680E-02
   1   10   26     2     5    4.6502E+04  6.1028E+02   4.5892E+04  0.000E+00  0.000E+00  0.000E+00  3.92355E+01  1.105E-01  2.000E+01  2.000E+04  3.051E-02
   1   11   25     2     6    4.5892E+04  9.3262E+01   4.5799E+04  0.000E+00  0.000E+00  0.000E+00  3.89850E+01  1.100E-01  2.000E+01  2.000E+04  4.663E-03
   1   12   24     2     7    4.5799E+04  1.0705E+02   4.5692E+04  0.000E+00  0.000E+00  0.000E+00  3.87348E+01  1.098E-01  2.000E+01  2.000E+04  5.352E-03
   1   13   23     2     8    4.5692E+04  5.0805E+01   4.5641E+04  0.000E+00  0.000E+00  0.000E+00  3.84847E+01  1.097E-01  2.000E+01  2.000E+04  2.540E-03
   1   14   22     2     9    4.5641E+04  2.1809E+03   4.3460E+04  0.000E+00  0.000E+00  0.000E+00  3.82331E+01  1.081E-01  2.000E+01  2.000E+04  1.090E-01
   1   14   22     3     1    1.6088E+05 -8.1289E+03   1.6901E+05  0.000E+00  0.000E+00  0.000E+00  3.77176E+01  1.621E-01  2.000E+01  2.000E+04 -4.064E-01
   1   15   23     3     2    1.6901E+05 -2.5061E+02   1.6926E+05  0.000E+00  0.000E+00  0.000E+00  3.68312E+01  1.645E-01  2.000E+01  2.000E+04 -1.253E-02
   1   15   24     3     3    1.6926E+05 -1.9425E+02   1.6945E+05  0.000E+00  0.000E+00  0.000E+00  3.59424E+01  1.647E-01  2.000E+01  2.000E+04 -9.713E-03
   1   15   25     3     4    1.6945E+05 -1.9514E+02   1.6965E+05  0.000E+00  0.000E+00  0.000E+00  3.50537E+01  1.648E-01  2.000E+01  2.000E+04 -9.757E-03
   1   15   26     3     5    1.6965E+05 -5.1495E+01   1.6970E+05  0.000E+00  0.000E+00  0.000E+00  3.41648E+01  1.648E-01  2.000E+01  2.000E+04 -2.575E-03
   1   16   27     3     6    1.6970E+05  8.2884E+02   1.6887E+05  0.000E+00  0.000E+00  0.000E+00  3.32757E+01  1.646E-01  2.000E+01  2.000E+04  4.144E-02
   1   17   28     3     7    1.6887E+05  4.6179E+03   1.6425E+05  0.000E+00  0.000E+00  0.000E+00  3.23852E+01  1.630E-01  2.000E+01  2.000E+04  2.309E-01
   1   18   29     3     8    1.6425E+05 -1.4922E+03   1.6574E+05  0.000E+00  0.000E+00  0.000E+00  3.14954E+01  1.621E-01  2.000E+01  2.000E+04 -7.461E-02
   1   18   30     3     9    1.6574E+05 -1.9249E+03   1.6767E+05  0.000E+00  0.000E+00  0.000E+00  3.06076E+01  1.631E-01  2.000E+01  2.000E+04 -9.624E-02



1
              HEAD IN LAYER   1 AT END OF TIME STEP   1 IN STRESS PERIOD    8
  ---------------------------------------------------------------------------

          1      2      3      4      5      6      7      8      9     10
         11     12     13     14     15     16     17     18     19     20
         21     22     23     24     25     26     27     28     29     30
 .........................................................................
   1  ****** ****** ****** ****** ****** ****** ****** ****** ****** ******
      ****** ****** ****** ****** ****** ****** ****** ****** ****** ******
      ****** ****** ****** ****** ****** ****** ****** ****** ****** ******
   2  ****** ****** ****** ****** ****** ****** ****** ****** ****** ******
      ****** ****** ****** ****** ****** ****** ****** ****** ****** ******
      ****** ****** ****** ****** ****** ****** ****** ****** ****** ******
   3  ****** ****** ****** ****** ****** ****** ****** ****** ****** ******
      ****** ****** ****** ****** ****** ****** ****** ****** ****** ******
      ****** ****** ****** ****** ****** ****** ****** ****** ****** ******
   4  ****** ****** ****** ****** ****** ****** ****** ****** ****** ******
      ****** ****** ****** ****** ****** ****** ****** ****** ****** ******
      ****** ****** ****** ****** ****** ****** ****** ****** ****** ******
   5  ****** ****** ****** ****** ****** ****** ****** ****** ****** ******
      ****** ****** ****** ****** ****** ****** ****** ****** ****** ******
      ****** ****** ****** ****** ****** ****** ****** ****** ****** ******
   6  ****** ****** ****** ****** ****** ****** ****** ****** ****** ******
      ****** ****** ****** ****** ****** ****** ****** ****** ****** ******
      ****** ****** ****** ****** ****** ****** ****** ****** ****** ******
   7  ****** ****** ****** ****** ****** ****** ****** ****** ****** ******
      ****** ****** ****** ****** ****** ****** ****** ****** ****** ******
      ****** ****** ****** ****** ****** ****** ****** ****** ****** ******
   8  ****** ****** ****** ****** ****** ****** ****** ****** ****** ******
      ****** ****** ****** ****** ****** ****** ****** ****** ****** ******
      ****** ****** ****** ****** ****** ****** ****** ****** ****** ******
   9  ****** ****** ****** ****** ****** ****** ****** ****** ****** ******
      ****** ****** ****** ****** ****** ****** ****** ****** ****** ******
      ****** ****** ****** ****** ****** ****** ****** ****** ****** ******
  10  ****** ****** ****** ****** ****** ****** ****** ****** ****** ******
      ****** ****** ****** ****** ****** ****** ****** ****** ****** ******
      ****** ****** ****** ****** ****** ****** ****** ****** ****** ******
  11  ****** ****** ****** ****** ****** ****** ****** ****** ****** ******
      ****** ****** ****** ****** ****** ****** ****** ****** ****** ******
      ****** ****** ****** ****** ****** ****** ****** ****** ****** ******
  12  ****** ****** ****** ****** ****** ****** ****** ****** ****** ******
      ****** ****** ****** ****** ****** ****** ****** ****** ****** ******
      ****** ****** ****** ****** ****** ****** ****** ****** ****** ******
  13  ****** ****** ****** ****** ****** ****** ****** ****** ****** ******
      ****** ****** ****** ****** ****** ****** ****** ****** ****** ******
      ****** ****** ****** ****** ****** ****** ****** ****** ****** ******
  14  ****** ****** ****** ****** ****** ****** ****** ****** ****** ******
      ****** ****** ****** ****** ****** ****** ****** ****** ****** ******
      ****** ****** ****** ****** ****** ****** ****** ****** ****** ******
  15  ****** ****** ****** ****** ****** ****** ****** ****** ****** ******
      ****** ****** ****** ****** ****** ****** ****** ****** ****** ******
      ****** ****** ****** ****** ****** ****** ****** ****** ****** ******
  16  ****** ****** ****** ****** ****** ****** ****** ****** ****** ******
      ****** ****** ****** ****** ****** ****** ****** ****** ****** ******
      ****** ****** ****** ****** ****** ****** ****** ****** ****** ******
  17  ****** ****** ****** ****** ****** ****** ****** ****** ****** ******
      ****** ****** ****** ****** ****** ****** ****** ****** ****** ******
      ****** ****** ****** ****** ****** ****** ****** ****** ****** ******
  18  ****** ****** ****** ****** ****** ****** ****** ****** ****** ******
      ****** ****** ****** ****** ****** ****** ****** ****** ****** ******
      ****** ****** ****** ****** ****** ****** ****** ****** ****** ******
  19  ****** ****** ****** ****** ****** ****** ****** ****** ****** ******
      ****** ****** ****** ****** ****** ****** ****** ****** ****** ******
      ****** ****** ****** ****** ****** ****** ****** ****** ****** ******
  20  ****** ****** ****** ****** ****** ****** ****** ****** ****** ******
      ****** ****** ****** ****** ****** ****** ****** ****** ****** ******
      ****** ****** ****** ****** ****** ****** ****** ****** ****** ******
  21  ****** ****** ****** ****** ****** ****** ****** ****** ****** ******
      ****** ****** ****** ****** ****** ****** ****** ****** ****** ******
      ****** ****** ****** ****** ****** ****** ****** ****** ****** ******
  22  ****** ****** ****** ****** ****** ****** ****** ****** ****** ******
      ****** ****** ****** ****** ****** ****** ****** ****** ****** ******
      ****** ****** ****** ****** ****** ****** ****** ****** ****** ******
  23  ****** ****** ****** ****** ****** ****** ****** ****** ****** ******
      ****** ****** ****** ****** ****** ****** ****** ****** ****** ******
      ****** ****** ****** ****** ****** ****** ****** ****** ****** ******
  24  ****** ****** ****** ****** ****** ****** ****** ****** ****** ******
      ****** ****** ****** ****** ****** ****** ****** ****** ****** ******
      ****** ****** ****** ****** ****** ****** ****** ****** ****** ******
  25  ****** ****** ****** ****** ****** ****** ****** ****** ****** ******
      ****** ****** ****** ****** ****** ****** ****** ****** ****** ******
      ****** ****** ****** ****** ****** ****** ****** ****** ****** ******

 HEAD WILL BE SAVED ON UNIT   51 AT END OF TIME STEP    1, STRESS PERIOD    8
1
  VOLUMETRIC BUDGET FOR ENTIRE MODEL AT END OF TIME STEP    1, STRESS PERIOD   8
  ------------------------------------------------------------------------------

     CUMULATIVE VOLUMES      L**3       RATES FOR THIS TIME STEP      L**3/T
     ------------------                 ------------------------

           IN:                                      IN:
           ---                                      ---
             STORAGE =    32688297.3591               STORAGE =        1329.6009
       CONSTANT HEAD =    18585403.2703         CONSTANT HEAD =       31926.2064
               WELLS =           0.0000                 WELLS =           0.0000
            RECHARGE =    17608800.0000              RECHARGE =       27600.0000
      STREAM LEAKAGE =    11223990.3571        STREAM LEAKAGE =       19407.7038

            TOTAL IN =    80106490.9865              TOTAL IN =       80263.5111

          OUT:                                     OUT:
          ----                                     ----
             STORAGE =      968260.9980               STORAGE =        1567.1701
       CONSTANT HEAD =           0.0000         CONSTANT HEAD =           0.0000
               WELLS =    30382163.5235                 WELLS =       41619.4021
            RECHARGE =           0.0000              RECHARGE =           0.0000
      STREAM LEAKAGE =    48756068.1917        STREAM LEAKAGE =       37076.9305

           TOTAL OUT =    80106492.7132             TOTAL OUT =       80263.5026

            IN - OUT =          -1.7268              IN - OUT =       8.4587E-03

 PERCENT DISCREPANCY =          -0.00     PERCENT DISCREPANCY =           0.00






         TIME SUMMARY AT END OF TIME STEP    1 IN STRESS PERIOD    8
                    SECONDS     MINUTES      HOURS       DAYS        YEARS
                    -----------------------------------------------------------
   TIME STEP LENGTH 7.86240E+06 1.31040E+05  2184.0      91.000     0.24914    
 STRESS PERIOD TIME 7.86240E+06 1.31040E+05  2184.0      91.000     0.24914    
         TOTAL TIME 6.30720E+07 1.05120E+06  17520.      730.00      1.9986    
1
1
                            STRESS PERIOD NO.    9, LENGTH =   92.00000    
                            -----------------------------------------------

                              NUMBER OF TIME STEPS =     1

                               MULTIPLIER FOR DELT =     1.500

                            INITIAL TIME STEP SIZE =   92.00000    

 WELL NO.  LAYER   ROW   COL   STRESS RATE         
 --------------------------------------------------
      1      1     14      6       0.000    
      2      1      3      9       0.000    
      3      1     20     10       0.000    
      4      1     14     20       0.000    
      5      1     11     21     -0.1135E+05
      6      1     18     20      -9351.    
      7      1     16     28     -0.1048E+05
      8      1     10     28     -0.1044E+05

      8 WELLS

                 RECHARGE =  5.000000E-04

 REUSING STREAM SEGMENT DATA FROM LAST STRESS PERIOD
 
 SOLVING FOR HEAD 


     6 CALLS TO PCG ROUTINE FOR TIME STEP   1 IN STRESS PERIOD    9
    23 TOTAL ITERATIONS

 OUTPUT CONTROL FOR STRESS PERIOD    9   TIME STEP    1
    SAVE BUDGET
    SAVE HEAD FOR ALL LAYERS
    PRINT HEAD FOR ALL LAYERS
 UBDSV2 SAVING "STREAMFLOW OUT  " ON UNIT  50 AT TIME STEP  1, STRESS PERIOD   9



 STREAM LISTING     PERIOD      9   STEP        1

 LAYER ROW COL. STREAM  RCH.  FLOW INTO     FLOW TO   FLOW OUT OF   OVRLND.     DIRECT     STREAM       STREAM     STREAM     STREAM   STREAMBED  STREAMBED
                SEG.NO.  NO.  STRM. RCH.    AQUIFER    STRM. RCH.    RUNOFF     PRECIP       ET          HEAD       DEPTH      WIDTH   CONDCTNC.   GRADIENT

   1   13    1     1     1    1.0000E+05 -1.6641E+03   1.0166E+05  0.000E+00  0.000E+00  0.000E+00  4.84067E+01  1.454E-01  2.000E+01  2.000E+04 -8.321E-02
   1   13    2     1     2    1.0166E+05 -2.6097E+03   1.0427E+05  0.000E+00  0.000E+00  0.000E+00  4.79313E+01  1.472E-01  2.000E+01  2.000E+04 -1.305E-01
   1   14    3     1     3    1.0427E+05 -4.0616E+02   1.0468E+05  0.000E+00  0.000E+00  0.000E+00  4.74553E+01  1.485E-01  2.000E+01  2.000E+04 -2.031E-02
   1   15    4     1     4    1.0468E+05 -3.7428E+02   1.0505E+05  0.000E+00  0.000E+00  0.000E+00  4.69784E+01  1.488E-01  2.000E+01  2.000E+04 -1.871E-02
   1   16    5     1     5    1.0505E+05 -1.4166E+03   1.0647E+05  0.000E+00  0.000E+00  0.000E+00  4.65019E+01  1.496E-01  2.000E+01  2.000E+04 -7.083E-02
   1   16    6     1     6    1.0647E+05 -9.0315E+02   1.0737E+05  0.000E+00  0.000E+00  0.000E+00  4.60256E+01  1.506E-01  2.000E+01  2.000E+04 -4.516E-02
   1   16    7     1     7    1.0737E+05 -8.8325E+02   1.0826E+05  0.000E+00  0.000E+00  0.000E+00  4.55491E+01  1.513E-01  2.000E+01  2.000E+04 -4.416E-02
   1   16    8     1     8    1.0826E+05 -8.6973E+02   1.0913E+05  0.000E+00  0.000E+00  0.000E+00  4.50725E+01  1.521E-01  2.000E+01  2.000E+04 -4.349E-02
   1   16    9     1     9    1.0913E+05 -8.4600E+02   1.0997E+05  0.000E+00  0.000E+00  0.000E+00  4.45960E+01  1.528E-01  2.000E+01  2.000E+04 -4.230E-02
   1   16   10     1    10    1.0997E+05 -8.0889E+02   1.1078E+05  0.000E+00  0.000E+00  0.000E+00  4.41194E+01  1.535E-01  2.000E+01  2.000E+04 -4.044E-02
   1   16   11     1    11    1.1078E+05 -7.6526E+02   1.1155E+05  0.000E+00  0.000E+00  0.000E+00  4.36428E+01  1.541E-01  2.000E+01  2.000E+04 -3.826E-02
   1   16   12     1    12    1.1155E+05 -1.1513E+03   1.1270E+05  0.000E+00  0.000E+00  0.000E+00  4.31663E+01  1.549E-01  2.000E+01  2.000E+04 -5.756E-02
   1   15   13     1    13    1.1270E+05 -1.0635E+03   1.1376E+05  0.000E+00  0.000E+00  0.000E+00  4.26899E+01  1.558E-01  2.000E+01  2.000E+04 -5.318E-02
   1   14   14     1    14    1.1376E+05 -1.3144E+03   1.1508E+05  0.000E+00  0.000E+00  0.000E+00  4.22136E+01  1.568E-01  2.000E+01  2.000E+04 -6.572E-02
   1   13   15     1    15    1.1508E+05 -1.6350E+03   1.1671E+05  0.000E+00  0.000E+00  0.000E+00  4.17376E+01  1.580E-01  2.000E+01  2.000E+04 -8.175E-02
   1   12   16     1    16    1.1671E+05 -2.3042E+03   1.1902E+05  0.000E+00  0.000E+00  0.000E+00  4.12619E+01  1.596E-01  2.000E+01  2.000E+04 -1.152E-01
   1   12   17     1    17    1.1902E+05 -1.2325E+03   1.2025E+05  0.000E+00  0.000E+00  0.000E+00  4.07861E+01  1.611E-01  2.000E+01  2.000E+04 -6.163E-02
   1   12   18     1    18    1.2025E+05 -8.7677E+02   1.2112E+05  0.000E+00  0.000E+00  0.000E+00  4.03097E+01  1.619E-01  2.000E+01  2.000E+04 -4.384E-02
   1   12   19     1    19    1.2112E+05  6.8114E+01   1.2106E+05  0.000E+00  0.000E+00  0.000E+00  3.98327E+01  1.623E-01  2.000E+01  2.000E+04  3.406E-03
   1   13   20     1    20    1.2106E+05  8.3398E+02   1.2022E+05  0.000E+00  0.000E+00  0.000E+00  3.93551E+01  1.619E-01  2.000E+01  2.000E+04  4.170E-02
   1   14   21     1    21    1.2022E+05  6.7472E+02   1.1955E+05  0.000E+00  0.000E+00  0.000E+00  3.88772E+01  1.613E-01  2.000E+01  2.000E+04  3.374E-02
   1   14   22     1    22    1.1955E+05  5.5614E+03   1.1399E+05  0.000E+00  0.000E+00  0.000E+00  3.83974E+01  1.588E-01  2.000E+01  2.000E+04  2.781E-01
   1    9   30     2     1    5.0000E+04  7.3214E+02   4.9268E+04  0.000E+00  0.000E+00  0.000E+00  4.02404E+01  1.154E-01  2.000E+01  2.000E+04  3.661E-02
   1    9   29     2     2    4.9268E+04  1.0602E+03   4.8208E+04  0.000E+00  0.000E+00  0.000E+00  3.99891E+01  1.141E-01  2.000E+01  2.000E+04  5.301E-02
   1    9   28     2     3    4.8208E+04  2.8122E+03   4.5395E+04  0.000E+00  0.000E+00  0.000E+00  3.97364E+01  1.114E-01  2.000E+01  2.000E+04  1.406E-01
   1    9   27     2     4    4.5395E+04 -5.6057E+02   4.5956E+04  0.000E+00  0.000E+00  0.000E+00  3.94847E+01  1.097E-01  2.000E+01  2.000E+04 -2.803E-02
   1   10   26     2     5    4.5956E+04  7.8302E+02   4.5173E+04  0.000E+00  0.000E+00  0.000E+00  3.92346E+01  1.096E-01  2.000E+01  2.000E+04  3.915E-02
   1   11   25     2     6    4.5173E+04  2.5856E+02   4.4914E+04  0.000E+00  0.000E+00  0.000E+00  3.89838E+01  1.088E-01  2.000E+01  2.000E+04  1.293E-02
   1   12   24     2     7    4.4914E+04  2.5895E+02   4.4655E+04  0.000E+00  0.000E+00  0.000E+00  3.87335E+01  1.085E-01  2.000E+01  2.000E+04  1.295E-02
   1   13   23     2     8    4.4655E+04  9.7760E+01   4.4558E+04  0.000E+00  0.000E+00  0.000E+00  3.84832E+01  1.082E-01  2.000E+01  2.000E+04  4.888E-03
   1   14   22     2     9    4.4558E+04  2.2433E+03   4.2314E+04  0.000E+00  0.000E+00  0.000E+00  3.82315E+01  1.065E-01  2.000E+01  2.000E+04  1.122E-01
   1   14   22     3     1    1.5630E+05 -8.0884E+03   1.6439E+05  0.000E+00  0.000E+00  0.000E+00  3.77149E+01  1.593E-01  2.000E+01  2.000E+04 -4.044E-01
   1   15   23     3     2    1.6439E+05 -1.9787E+02   1.6459E+05  0.000E+00  0.000E+00  0.000E+00  3.68285E+01  1.618E-01  2.000E+01  2.000E+04 -9.893E-03
   1   15   24     3     3    1.6459E+05 -1.5113E+02   1.6474E+05  0.000E+00  0.000E+00  0.000E+00  3.59397E+01  1.619E-01  2.000E+01  2.000E+04 -7.557E-03
   1   15   25     3     4    1.6474E+05 -1.5178E+02   1.6489E+05  0.000E+00  0.000E+00  0.000E+00  3.50509E+01  1.620E-01  2.000E+01  2.000E+04 -7.589E-03
   1   15   26     3     5    1.6489E+05 -3.8435E+00   1.6489E+05  0.000E+00  0.000E+00  0.000E+00  3.41620E+01  1.620E-01  2.000E+01  2.000E+04 -1.922E-04
   1   16   27     3     6    1.6489E+05  8.8496E+02   1.6401E+05  0.000E+00  0.000E+00  0.000E+00  3.32729E+01  1.618E-01  2.000E+01  2.000E+04  4.425E-02
   1   17   28     3     7    1.6401E+05  4.7718E+03   1.5924E+05  0.000E+00  0.000E+00  0.000E+00  3.23823E+01  1.601E-01  2.000E+01  2.000E+04  2.386E-01
   1   18   29     3     8    1.5924E+05 -1.3154E+03   1.6055E+05  0.000E+00  0.000E+00  0.000E+00  3.14924E+01  1.591E-01  2.000E+01  2.000E+04 -6.577E-02
   1   18   30     3     9    1.6055E+05 -1.7922E+03   1.6235E+05  0.000E+00  0.000E+00  0.000E+00  3.06044E+01  1.600E-01  2.000E+01  2.000E+04 -8.961E-02



1
              HEAD IN LAYER   1 AT END OF TIME STEP   1 IN STRESS PERIOD    9
  ---------------------------------------------------------------------------

          1      2      3      4      5      6      7      8      9     10
         11     12     13     14     15     16     17     18     19     20
         21     22     23     24     25     26     27     28     29     30
 .........................................................................
   1  ****** ****** ****** ****** ****** ****** ****** ****** ****** ******
      ****** ****** ****** ****** ****** ****** ****** ****** ****** ******
      ****** ****** ****** ****** ****** ****** ****** ****** ****** ******
   2  ****** ****** ****** ****** ****** ****** ****** ****** ****** ******
      ****** ****** ****** ****** ****** ****** ****** ****** ****** ******
      ****** ****** ****** ****** ****** ****** ****** ****** ****** ******
   3  ****** ****** ****** ****** ****** ****** ****** ****** ****** ******
      ****** ****** ****** ****** ****** ****** ****** ****** ****** ******
      ****** ****** ****** ****** ****** ****** ****** ****** ****** ******
   4  ****** ****** ****** ****** ****** ****** ****** ****** ****** ******
      ****** ****** ****** ****** ****** ****** ****** ****** ****** ******
      ****** ****** ****** ****** ****** ****** ****** ****** ****** ******
   5  ****** ****** ****** ****** ****** ****** ****** ****** ****** ******
      ****** ****** ****** ****** ****** ****** ****** ****** ****** ******
      ****** ****** ****** ****** ****** ****** ****** ****** ****** ******
   6  ****** ****** ****** ****** ****** ****** ****** ****** ****** ******
      ****** ****** ****** ****** ****** ****** ****** ****** ****** ******
      ****** ****** ****** ****** ****** ****** ****** ****** ****** ******
   7  ****** ****** ****** ****** ****** ****** ****** ****** ****** ******
      ****** ****** ****** ****** ****** ****** ****** ****** ****** ******
      ****** ****** ****** ****** ****** ****** ****** ****** ****** ******
   8  ****** ****** ****** ****** ****** ****** ****** ****** ****** ******
      ****** ****** ****** ****** ****** ****** ****** ****** ****** ******
      ****** ****** ****** ****** ****** ****** ****** ****** ****** ******
   9  ****** ****** ****** ****** ****** ****** ****** ****** ****** ******
      ****** ****** ****** ****** ****** ****** ****** ****** ****** ******
      ****** ****** ****** ****** ****** ****** ****** ****** ****** ******
  10  ****** ****** ****** ****** ****** ****** ****** ****** ****** ******
      ****** ****** ****** ****** ****** ****** ****** ****** ****** ******
      ****** ****** ****** ****** ****** ****** ****** ****** ****** ******
  11  ****** ****** ****** ****** ****** ****** ****** ****** ****** ******
      ****** ****** ****** ****** ****** ****** ****** ****** ****** ******
      ****** ****** ****** ****** ****** ****** ****** ****** ****** ******
  12  ****** ****** ****** ****** ****** ****** ****** ****** ****** ******
      ****** ****** ****** ****** ****** ****** ****** ****** ****** ******
      ****** ****** ****** ****** ****** ****** ****** ****** ****** ******
  13  ****** ****** ****** ****** ****** ****** ****** ****** ****** ******
      ****** ****** ****** ****** ****** ****** ****** ****** ****** ******
      ****** ****** ****** ****** ****** ****** ****** ****** ****** ******
  14  ****** ****** ****** ****** ****** ****** ****** ****** ****** ******
      ****** ****** ****** ****** ****** ****** ****** ****** ****** ******
      ****** ****** ****** ****** ****** ****** ****** ****** ****** ******
  15  ****** ****** ****** ****** ****** ****** ****** ****** ****** ******
      ****** ****** ****** ****** ****** ****** ****** ****** ****** ******
      ****** ****** ****** ****** ****** ****** ****** ****** ****** ******
  16  ****** ****** ****** ****** ****** ****** ****** ****** ****** ******
      ****** ****** ****** ****** ****** ****** ****** ****** ****** ******
      ****** ****** ****** ****** ****** ****** ****** ****** ****** ******
  17  ****** ****** ****** ****** ****** ****** ****** ****** ****** ******
      ****** ****** ****** ****** ****** ****** ****** ****** ****** ******
      ****** ****** ****** ****** ****** ****** ****** ****** ****** ******
  18  ****** ****** ****** ****** ****** ****** ****** ****** ****** ******
      ****** ****** ****** ****** ****** ****** ****** ****** ****** ******
      ****** ****** ****** ****** ****** ****** ****** ****** ****** ******
  19  ****** ****** ****** ****** ****** ****** ****** ****** ****** ******
      ****** ****** ****** ****** ****** ****** ****** ****** ****** ******
      ****** ****** ****** ****** ****** ****** ****** ****** ****** ******
  20  ****** ****** ****** ****** ****** ****** ****** ****** ****** ******
      ****** ****** ****** ****** ****** ****** ****** ****** ****** ******
      ****** ****** ****** ****** ****** ****** ****** ****** ****** ******
  21  ****** ****** ****** ****** ****** ****** ****** ****** ****** ******
      ****** ****** ****** ****** ****** ****** ****** ****** ****** ******
      ****** ****** ****** ****** ****** ****** ****** ****** ****** ******
  22  ****** ****** ****** ****** ****** ****** ****** ****** ****** ******
      ****** ****** ****** ****** ****** ****** ****** ****** ****** ******
      ****** ****** ****** ****** ****** ****** ****** ****** ****** ******
  23  ****** ****** ****** ****** ****** ****** ****** ****** ****** ******
      ****** ****** ****** ****** ****** ****** ****** ****** ****** ******
      ****** ****** ****** ****** ****** ****** ****** ****** ****** ******
  24  ****** ****** ****** ****** ****** ****** ****** ****** ****** ******
      ****** ****** ****** ****** ****** ****** ****** ****** ****** ******
      ****** ****** ****** ****** ****** ****** ****** ****** ****** ******
  25  ****** ****** ****** ****** ****** ****** ****** ****** ****** ******
      ****** ****** ****** ****** ****** ****** ****** ****** ****** ******
      ****** ****** ****** ****** ****** ****** ****** ****** ****** ******

 HEAD WILL BE SAVED ON UNIT   51 AT END OF TIME STEP    1, STRESS PERIOD    9
1
  VOLUMETRIC BUDGET FOR ENTIRE MODEL AT END OF TIME STEP    1, STRESS PERIOD   9
  ------------------------------------------------------------------------------

     CUMULATIVE VOLUMES      L**3       RATES FOR THIS TIME STEP      L**3/T
     ------------------                 ------------------------

           IN:                                      IN:
           ---                                      ---
             STORAGE =    33340091.5779               STORAGE =        7084.7198
       CONSTANT HEAD =    21628738.2740         CONSTANT HEAD =       33079.7283
               WELLS =           0.0000                 WELLS =           0.0000
            RECHARGE =    18878400.0000              RECHARGE =       13800.0000
      STREAM LEAKAGE =    13159772.2409        STREAM LEAKAGE =       21041.1074

            TOTAL IN =    87007002.0928              TOTAL IN =       75005.5555

          OUT:                                     OUT:
          ----                                     ----
             STORAGE =      968260.9980               STORAGE =           0.0000
       CONSTANT HEAD =           0.0000         CONSTANT HEAD =           0.0000
               WELLS =    34211148.5155                 WELLS =       41619.4021
            RECHARGE =           0.0000              RECHARGE =           0.0000
      STREAM LEAKAGE =    51827594.3746        STREAM LEAKAGE =       33386.1542

           TOTAL OUT =    87007003.8881             TOTAL OUT =       75005.5562

            IN - OUT =          -1.7953              IN - OUT =      -7.4498E-04

 PERCENT DISCREPANCY =          -0.00     PERCENT DISCREPANCY =          -0.00






         TIME SUMMARY AT END OF TIME STEP    1 IN STRESS PERIOD    9
                    SECONDS     MINUTES      HOURS       DAYS        YEARS
                    -----------------------------------------------------------
   TIME STEP LENGTH 7.94880E+06 1.32480E+05  2208.0      92.000     0.25188    
 STRESS PERIOD TIME 7.94880E+06 1.32480E+05  2208.0      92.000     0.25188    
         TOTAL TIME 7.10208E+07 1.18368E+06  19728.      822.00      2.2505    
1
1
                            STRESS PERIOD NO.   10, LENGTH =   91.00000    
                            -----------------------------------------------

                              NUMBER OF TIME STEPS =     1

                               MULTIPLIER FOR DELT =     1.500

                            INITIAL TIME STEP SIZE =   91.00000    

 WELL NO.  LAYER   ROW   COL   STRESS RATE         
 --------------------------------------------------
      1      1     14      6       0.000    
      2      1      3      9       0.000    
      3      1     20     10       0.000    
      4      1     14     20       0.000    
      5      1     11     21     -0.1135E+05
      6      1     18     20      -9351.    
      7      1     16     28     -0.1048E+05
      8      1     10     28     -0.1044E+05

      8 WELLS

                 RECHARGE =  2.000000E-03

 REUSING STREAM SEGMENT DATA FROM LAST STRESS PERIOD
 
 SOLVING FOR HEAD 


     7 CALLS TO PCG ROUTINE FOR TIME STEP   1 IN STRESS PERIOD   10
    26 TOTAL ITERATIONS

 OUTPUT CONTROL FOR STRESS PERIOD   10   TIME STEP    1
    SAVE BUDGET
    SAVE HEAD FOR ALL LAYERS
    PRINT HEAD FOR ALL LAYERS
 UBDSV2 SAVING "STREAMFLOW OUT  " ON UNIT  50 AT TIME STEP  1, STRESS PERIOD  10



 STREAM LISTING     PERIOD     10   STEP        1

 LAYER ROW COL. STREAM  RCH.  FLOW INTO     FLOW TO   FLOW OUT OF   OVRLND.     DIRECT     STREAM       STREAM     STREAM     STREAM   STREAMBED  STREAMBED
                SEG.NO.  NO.  STRM. RCH.    AQUIFER    STRM. RCH.    RUNOFF     PRECIP       ET          HEAD       DEPTH      WIDTH   CONDCTNC.   GRADIENT

   1   13    1     1     1    1.0000E+05 -2.1193E+03   1.0212E+05  0.000E+00  0.000E+00  0.000E+00  4.84069E+01  1.456E-01  2.000E+01  2.000E+04 -1.060E-01
   1   13    2     1     2    1.0212E+05 -3.1144E+03   1.0523E+05  0.000E+00  0.000E+00  0.000E+00  4.79319E+01  1.478E-01  2.000E+01  2.000E+04 -1.557E-01
   1   14    3     1     3    1.0523E+05 -5.9314E+02   1.0583E+05  0.000E+00  0.000E+00  0.000E+00  4.74562E+01  1.494E-01  2.000E+01  2.000E+04 -2.966E-02
   1   15    4     1     4    1.0583E+05 -5.7407E+02   1.0640E+05  0.000E+00  0.000E+00  0.000E+00  4.69794E+01  1.499E-01  2.000E+01  2.000E+04 -2.870E-02
   1   16    5     1     5    1.0640E+05 -2.0358E+03   1.0844E+05  0.000E+00  0.000E+00  0.000E+00  4.65033E+01  1.510E-01  2.000E+01  2.000E+04 -1.018E-01
   1   16    6     1     6    1.0844E+05 -1.2657E+03   1.0970E+05  0.000E+00  0.000E+00  0.000E+00  4.60274E+01  1.524E-01  2.000E+01  2.000E+04 -6.328E-02
   1   16    7     1     7    1.0970E+05 -1.2280E+03   1.1093E+05  0.000E+00  0.000E+00  0.000E+00  4.55512E+01  1.534E-01  2.000E+01  2.000E+04 -6.140E-02
   1   16    8     1     8    1.1093E+05 -1.2090E+03   1.1214E+05  0.000E+00  0.000E+00  0.000E+00  4.50749E+01  1.544E-01  2.000E+01  2.000E+04 -6.045E-02
   1   16    9     1     9    1.1214E+05 -1.1837E+03   1.1332E+05  0.000E+00  0.000E+00  0.000E+00  4.45986E+01  1.554E-01  2.000E+01  2.000E+04 -5.918E-02
   1   16   10     1    10    1.1332E+05 -1.1467E+03   1.1447E+05  0.000E+00  0.000E+00  0.000E+00  4.41223E+01  1.564E-01  2.000E+01  2.000E+04 -5.733E-02
   1   16   11     1    11    1.1447E+05 -1.1064E+03   1.1558E+05  0.000E+00  0.000E+00  0.000E+00  4.36460E+01  1.573E-01  2.000E+01  2.000E+04 -5.532E-02
   1   16   12     1    12    1.1558E+05 -1.7208E+03   1.1730E+05  0.000E+00  0.000E+00  0.000E+00  4.31698E+01  1.585E-01  2.000E+01  2.000E+04 -8.604E-02
   1   15   13     1    13    1.1730E+05 -1.6508E+03   1.1895E+05  0.000E+00  0.000E+00  0.000E+00  4.26939E+01  1.599E-01  2.000E+01  2.000E+04 -8.254E-02
   1   14   14     1    14    1.1895E+05 -1.9094E+03   1.2086E+05  0.000E+00  0.000E+00  0.000E+00  4.22181E+01  1.613E-01  2.000E+01  2.000E+04 -9.547E-02
   1   13   15     1    15    1.2086E+05 -2.2204E+03   1.2308E+05  0.000E+00  0.000E+00  0.000E+00  4.17425E+01  1.630E-01  2.000E+01  2.000E+04 -1.110E-01
   1   12   16     1    16    1.2308E+05 -2.8689E+03   1.2595E+05  0.000E+00  0.000E+00  0.000E+00  4.12673E+01  1.650E-01  2.000E+01  2.000E+04 -1.434E-01
   1   12   17     1    17    1.2595E+05 -1.6594E+03   1.2761E+05  0.000E+00  0.000E+00  0.000E+00  4.07918E+01  1.668E-01  2.000E+01  2.000E+04 -8.297E-02
   1   12   18     1    18    1.2761E+05 -1.2993E+03   1.2890E+05  0.000E+00  0.000E+00  0.000E+00  4.03157E+01  1.679E-01  2.000E+01  2.000E+04 -6.496E-02
   1   12   19     1    19    1.2890E+05 -4.5184E+02   1.2936E+05  0.000E+00  0.000E+00  0.000E+00  3.98391E+01  1.686E-01  2.000E+01  2.000E+04 -2.259E-02
   1   13   20     1    20    1.2936E+05  3.1223E+02   1.2904E+05  0.000E+00  0.000E+00  0.000E+00  3.93619E+01  1.687E-01  2.000E+01  2.000E+04  1.561E-02
   1   14   21     1    21    1.2904E+05  1.4973E+02   1.2889E+05  0.000E+00  0.000E+00  0.000E+00  3.88844E+01  1.685E-01  2.000E+01  2.000E+04  7.487E-03
   1   14   22     1    22    1.2889E+05  5.4307E+03   1.2346E+05  0.000E+00  0.000E+00  0.000E+00  3.84049E+01  1.663E-01  2.000E+01  2.000E+04  2.715E-01
   1    9   30     2     1    5.0000E+04  3.1758E+02   4.9682E+04  0.000E+00  0.000E+00  0.000E+00  4.02406E+01  1.156E-01  2.000E+01  2.000E+04  1.588E-02
   1    9   29     2     2    4.9682E+04  6.4792E+02   4.9034E+04  0.000E+00  0.000E+00  0.000E+00  3.99900E+01  1.150E-01  2.000E+01  2.000E+04  3.240E-02
   1    9   28     2     3    4.9034E+04  2.4007E+03   4.6634E+04  0.000E+00  0.000E+00  0.000E+00  3.97378E+01  1.128E-01  2.000E+01  2.000E+04  1.200E-01
   1    9   27     2     4    4.6634E+04 -1.1143E+03   4.7748E+04  0.000E+00  0.000E+00  0.000E+00  3.94869E+01  1.119E-01  2.000E+01  2.000E+04 -5.571E-02
   1   10   26     2     5    4.7748E+04  2.2943E+02   4.7519E+04  0.000E+00  0.000E+00  0.000E+00  3.92375E+01  1.125E-01  2.000E+01  2.000E+04  1.147E-02
   1   11   25     2     6    4.7519E+04 -2.7043E+02   4.7789E+04  0.000E+00  0.000E+00  0.000E+00  3.89876E+01  1.126E-01  2.000E+01  2.000E+04 -1.352E-02
   1   12   24     2     7    4.7789E+04 -2.1981E+02   4.8009E+04  0.000E+00  0.000E+00  0.000E+00  3.87379E+01  1.129E-01  2.000E+01  2.000E+04 -1.099E-02
   1   13   23     2     8    4.8009E+04 -5.0981E+01   4.8060E+04  0.000E+00  0.000E+00  0.000E+00  3.84881E+01  1.131E-01  2.000E+01  2.000E+04 -2.549E-03
   1   14   22     2     9    4.8060E+04  2.0654E+03   4.5994E+04  0.000E+00  0.000E+00  0.000E+00  3.82367E+01  1.117E-01  2.000E+01  2.000E+04  1.033E-01
   1   14   22     3     1    1.6946E+05 -8.2151E+03   1.7767E+05  0.000E+00  0.000E+00  0.000E+00  3.77227E+01  1.671E-01  2.000E+01  2.000E+04 -4.108E-01
   1   15   23     3     2    1.7767E+05 -3.6029E+02   1.7803E+05  0.000E+00  0.000E+00  0.000E+00  3.68362E+01  1.696E-01  2.000E+01  2.000E+04 -1.801E-02
   1   15   24     3     3    1.7803E+05 -2.8824E+02   1.7832E+05  0.000E+00  0.000E+00  0.000E+00  3.59475E+01  1.698E-01  2.000E+01  2.000E+04 -1.441E-02
   1   15   25     3     4    1.7832E+05 -2.9230E+02   1.7861E+05  0.000E+00  0.000E+00  0.000E+00  3.50588E+01  1.699E-01  2.000E+01  2.000E+04 -1.462E-02
   1   15   26     3     5    1.7861E+05 -1.6604E+02   1.7878E+05  0.000E+00  0.000E+00  0.000E+00  3.41700E+01  1.700E-01  2.000E+01  2.000E+04 -8.302E-03
   1   16   27     3     6    1.7878E+05  6.9917E+02   1.7808E+05  0.000E+00  0.000E+00  0.000E+00  3.32810E+01  1.699E-01  2.000E+01  2.000E+04  3.496E-02
   1   17   28     3     7    1.7808E+05  4.2514E+03   1.7383E+05  0.000E+00  0.000E+00  0.000E+00  3.23907E+01  1.685E-01  2.000E+01  2.000E+04  2.126E-01
   1   18   29     3     8    1.7383E+05 -1.8663E+03   1.7570E+05  0.000E+00  0.000E+00  0.000E+00  3.15011E+01  1.678E-01  2.000E+01  2.000E+04 -9.331E-02
   1   18   30     3     9    1.7570E+05 -2.2172E+03   1.7791E+05  0.000E+00  0.000E+00  0.000E+00  3.06134E+01  1.690E-01  2.000E+01  2.000E+04 -1.109E-01



1
              HEAD IN LAYER   1 AT END OF TIME STEP   1 IN STRESS PERIOD   10
  ---------------------------------------------------------------------------

          1      2      3      4      5      6      7      8      9     10
         11     12     13     14     15     16     17     18     19     20
         21     22     23     24     25     26     27     28     29     30
 .........................................................................
   1  ****** ****** ****** ****** ****** ****** ****** ****** ****** ******
      ****** ****** ****** ****** ****** ****** ****** ****** ****** ******
      ****** ****** ****** ****** ****** ****** ****** ****** ****** ******
   2  ****** ****** ****** ****** ****** ****** ****** ****** ****** ******
      ****** ****** ****** ****** ****** ****** ****** ****** ****** ******
      ****** ****** ****** ****** ****** ****** ****** ****** ****** ******
   3  ****** ****** ****** ****** ****** ****** ****** ****** ****** ******
      ****** ****** ****** ****** ****** ****** ****** ****** ****** ******
      ****** ****** ****** ****** ****** ****** ****** ****** ****** ******
   4  ****** ****** ****** ****** ****** ****** ****** ****** ****** ******
      ****** ****** ****** ****** ****** ****** ****** ****** ****** ******
      ****** ****** ****** ****** ****** ****** ****** ****** ****** ******
   5  ****** ****** ****** ****** ****** ****** ****** ****** ****** ******
      ****** ****** ****** ****** ****** ****** ****** ****** ****** ******
      ****** ****** ****** ****** ****** ****** ****** ****** ****** ******
   6  ****** ****** ****** ****** ****** ****** ****** ****** ****** ******
      ****** ****** ****** ****** ****** ****** ****** ****** ****** ******
      ****** ****** ****** ****** ****** ****** ****** ****** ****** ******
   7  ****** ****** ****** ****** ****** ****** ****** ****** ****** ******
      ****** ****** ****** ****** ****** ****** ****** ****** ****** ******
      ****** ****** ****** ****** ****** ****** ****** ****** ****** ******
   8  ****** ****** ****** ****** ****** ****** ****** ****** ****** ******
      ****** ****** ****** ****** ****** ****** ****** ****** ****** ******
      ****** ****** ****** ****** ****** ****** ****** ****** ****** ******
   9  ****** ****** ****** ****** ****** ****** ****** ****** ****** ******
      ****** ****** ****** ****** ****** ****** ****** ****** ****** ******
      ****** ****** ****** ****** ****** ****** ****** ****** ****** ******
  10  ****** ****** ****** ****** ****** ****** ****** ****** ****** ******
      ****** ****** ****** ****** ****** ****** ****** ****** ****** ******
      ****** ****** ****** ****** ****** ****** ****** ****** ****** ******
  11  ****** ****** ****** ****** ****** ****** ****** ****** ****** ******
      ****** ****** ****** ****** ****** ****** ****** ****** ****** ******
      ****** ****** ****** ****** ****** ****** ****** ****** ****** ******
  12  ****** ****** ****** ****** ****** ****** ****** ****** ****** ******
      ****** ****** ****** ****** ****** ****** ****** ****** ****** ******
      ****** ****** ****** ****** ****** ****** ****** ****** ****** ******
  13  ****** ****** ****** ****** ****** ****** ****** ****** ****** ******
      ****** ****** ****** ****** ****** ****** ****** ****** ****** ******
      ****** ****** ****** ****** ****** ****** ****** ****** ****** ******
  14  ****** ****** ****** ****** ****** ****** ****** ****** ****** ******
      ****** ****** ****** ****** ****** ****** ****** ****** ****** ******
      ****** ****** ****** ****** ****** ****** ****** ****** ****** ******
  15  ****** ****** ****** ****** ****** ****** ****** ****** ****** ******
      ****** ****** ****** ****** ****** ****** ****** ****** ****** ******
      ****** ****** ****** ****** ****** ****** ****** ****** ****** ******
  16  ****** ****** ****** ****** ****** ****** ****** ****** ****** ******
      ****** ****** ****** ****** ****** ****** ****** ****** ****** ******
      ****** ****** ****** ****** ****** ****** ****** ****** ****** ******
  17  ****** ****** ****** ****** ****** ****** ****** ****** ****** ******
      ****** ****** ****** ****** ****** ****** ****** ****** ****** ******
      ****** ****** ****** ****** ****** ****** ****** ****** ****** ******
  18  ****** ****** ****** ****** ****** ****** ****** ****** ****** ******
      ****** ****** ****** ****** ****** ****** ****** ****** ****** ******
      ****** ****** ****** ****** ****** ****** ****** ****** ****** ******
  19  ****** ****** ****** ****** ****** ****** ****** ****** ****** ******
      ****** ****** ****** ****** ****** ****** ****** ****** ****** ******
      ****** ****** ****** ****** ****** ****** ****** ****** ****** ******
  20  ****** ****** ****** ****** ****** ****** ****** ****** ****** ******
      ****** ****** ****** ****** ****** ****** ****** ****** ****** ******
      ****** ****** ****** ****** ****** ****** ****** ****** ****** ******
  21  ****** ****** ****** ****** ****** ****** ****** ****** ****** ******
      ****** ****** ****** ****** ****** ****** ****** ****** ****** ******
      ****** ****** ****** ****** ****** ****** ****** ****** ****** ******
  22  ****** ****** ****** ****** ****** ****** ****** ****** ****** ******
      ****** ****** ****** ****** ****** ****** ****** ****** ****** ******
      ****** ****** ****** ****** ****** ****** ****** ****** ****** ******
  23  ****** ****** ****** ****** ****** ****** ****** ****** ****** ******
      ****** ****** ****** ****** ****** ****** ****** ****** ****** ******
      ****** ****** ****** ****** ****** ****** ****** ****** ****** ******
  24  ****** ****** ****** ****** ****** ****** ****** ****** ****** ******
      ****** ****** ****** ****** ****** ****** ****** ****** ****** ******
      ****** ****** ****** ****** ****** ****** ****** ****** ****** ******
  25  ****** ****** ****** ****** ****** ****** ****** ****** ****** ******
      ****** ****** ****** ****** ****** ****** ****** ****** ****** ******
      ****** ****** ****** ****** ****** ****** ****** ****** ****** ******

 HEAD WILL BE SAVED ON UNIT   51 AT END OF TIME STEP    1, STRESS PERIOD   10
1
  VOLUMETRIC BUDGET FOR ENTIRE MODEL AT END OF TIME STEP    1, STRESS PERIOD  10
  ------------------------------------------------------------------------------

     CUMULATIVE VOLUMES      L**3       RATES FOR THIS TIME STEP      L**3/T
     ------------------                 ------------------------

           IN:                                      IN:
           ---                                      ---
             STORAGE =    33340091.5779               STORAGE =           0.0000
       CONSTANT HEAD =    24369351.6189         CONSTANT HEAD =       30116.6302
               WELLS =           0.0000                 WELLS =           0.0000
            RECHARGE =    23901600.0000              RECHARGE =       55200.0000
      STREAM LEAKAGE =    14661661.8352        STREAM LEAKAGE =       16504.2813

            TOTAL IN =    96272705.0320              TOTAL IN =      101820.9114

          OUT:                                     OUT:
          ----                                     ----
             STORAGE =     2404586.3091               STORAGE =       15783.7946
       CONSTANT HEAD =           0.0000         CONSTANT HEAD =           0.0000
               WELLS =    37998514.1054                 WELLS =       41619.4021
            RECHARGE =           0.0000              RECHARGE =           0.0000
      STREAM LEAKAGE =    55869606.1353        STREAM LEAKAGE =       44417.7117

           TOTAL OUT =    96272706.5498             TOTAL OUT =      101820.9084

            IN - OUT =          -1.5178              IN - OUT =       3.0493E-03

 PERCENT DISCREPANCY =          -0.00     PERCENT DISCREPANCY =           0.00






         TIME SUMMARY AT END OF TIME STEP    1 IN STRESS PERIOD   10
                    SECONDS     MINUTES      HOURS       DAYS        YEARS
                    -----------------------------------------------------------
   TIME STEP LENGTH 7.86240E+06 1.31040E+05  2184.0      91.000     0.24914    
 STRESS PERIOD TIME 7.86240E+06 1.31040E+05  2184.0      91.000     0.24914    
         TOTAL TIME 7.88832E+07 1.31472E+06  21912.      913.00      2.4997    
1
1
                            STRESS PERIOD NO.   11, LENGTH =   91.00000    
                            -----------------------------------------------

                              NUMBER OF TIME STEPS =     1

                               MULTIPLIER FOR DELT =     1.500

                            INITIAL TIME STEP SIZE =   91.00000    

 WELL NO.  LAYER   ROW   COL   STRESS RATE         
 --------------------------------------------------
      1      1     14      6       0.000    
      2      1      3      9       0.000    
      3      1     20     10       0.000    
      4      1     14     20       0.000    
      5      1     11     21     -0.1135E+05
      6      1     18     20      -9351.    
      7      1     16     28     -0.1048E+05
      8      1     10     28     -0.1044E+05

      8 WELLS

                 RECHARGE =   0.00000    

 REUSING STREAM SEGMENT DATA FROM LAST STRESS PERIOD
 
 SOLVING FOR HEAD 


     7 CALLS TO PCG ROUTINE FOR TIME STEP   1 IN STRESS PERIOD   11
    26 TOTAL ITERATIONS

 OUTPUT CONTROL FOR STRESS PERIOD   11   TIME STEP    1
    SAVE BUDGET
    SAVE HEAD FOR ALL LAYERS
    PRINT HEAD FOR ALL LAYERS
 UBDSV2 SAVING "STREAMFLOW OUT  " ON UNIT  50 AT TIME STEP  1, STRESS PERIOD  11



 STREAM LISTING     PERIOD     11   STEP        1

 LAYER ROW COL. STREAM  RCH.  FLOW INTO     FLOW TO   FLOW OUT OF   OVRLND.     DIRECT     STREAM       STREAM     STREAM     STREAM   STREAMBED  STREAMBED
                SEG.NO.  NO.  STRM. RCH.    AQUIFER    STRM. RCH.    RUNOFF     PRECIP       ET          HEAD       DEPTH      WIDTH   CONDCTNC.   GRADIENT

   1   13    1     1     1    1.0000E+05 -1.5536E+03   1.0155E+05  0.000E+00  0.000E+00  0.000E+00  4.84067E+01  1.453E-01  2.000E+01  2.000E+04 -7.768E-02
   1   13    2     1     2    1.0155E+05 -2.4845E+03   1.0404E+05  0.000E+00  0.000E+00  0.000E+00  4.79312E+01  1.471E-01  2.000E+01  2.000E+04 -1.242E-01
   1   14    3     1     3    1.0404E+05 -3.6260E+02   1.0440E+05  0.000E+00  0.000E+00  0.000E+00  4.74551E+01  1.483E-01  2.000E+01  2.000E+04 -1.813E-02
   1   15    4     1     4    1.0440E+05 -3.3246E+02   1.0473E+05  0.000E+00  0.000E+00  0.000E+00  4.69781E+01  1.486E-01  2.000E+01  2.000E+04 -1.662E-02
   1   16    5     1     5    1.0473E+05 -1.3481E+03   1.0608E+05  0.000E+00  0.000E+00  0.000E+00  4.65016E+01  1.493E-01  2.000E+01  2.000E+04 -6.741E-02
   1   16    6     1     6    1.0608E+05 -8.5161E+02   1.0693E+05  0.000E+00  0.000E+00  0.000E+00  4.60252E+01  1.502E-01  2.000E+01  2.000E+04 -4.258E-02
   1   16    7     1     7    1.0693E+05 -8.3156E+02   1.0776E+05  0.000E+00  0.000E+00  0.000E+00  4.55487E+01  1.509E-01  2.000E+01  2.000E+04 -4.158E-02
   1   16    8     1     8    1.0776E+05 -8.1808E+02   1.0858E+05  0.000E+00  0.000E+00  0.000E+00  4.50721E+01  1.516E-01  2.000E+01  2.000E+04 -4.090E-02
   1   16    9     1     9    1.0858E+05 -7.9496E+02   1.0938E+05  0.000E+00  0.000E+00  0.000E+00  4.45955E+01  1.523E-01  2.000E+01  2.000E+04 -3.975E-02
   1   16   10     1    10    1.0938E+05 -7.5893E+02   1.1014E+05  0.000E+00  0.000E+00  0.000E+00  4.41189E+01  1.530E-01  2.000E+01  2.000E+04 -3.795E-02
   1   16   11     1    11    1.1014E+05 -7.1675E+02   1.1085E+05  0.000E+00  0.000E+00  0.000E+00  4.36422E+01  1.536E-01  2.000E+01  2.000E+04 -3.584E-02
   1   16   12     1    12    1.1085E+05 -1.0752E+03   1.1193E+05  0.000E+00  0.000E+00  0.000E+00  4.31657E+01  1.543E-01  2.000E+01  2.000E+04 -5.376E-02
   1   15   13     1    13    1.1193E+05 -9.6288E+02   1.1289E+05  0.000E+00  0.000E+00  0.000E+00  4.26893E+01  1.552E-01  2.000E+01  2.000E+04 -4.814E-02
   1   14   14     1    14    1.1289E+05 -1.2041E+03   1.1410E+05  0.000E+00  0.000E+00  0.000E+00  4.22129E+01  1.561E-01  2.000E+01  2.000E+04 -6.021E-02
   1   13   15     1    15    1.1410E+05 -1.5210E+03   1.1562E+05  0.000E+00  0.000E+00  0.000E+00  4.17367E+01  1.572E-01  2.000E+01  2.000E+04 -7.605E-02
   1   12   16     1    16    1.1562E+05 -2.1935E+03   1.1781E+05  0.000E+00  0.000E+00  0.000E+00  4.12610E+01  1.587E-01  2.000E+01  2.000E+04 -1.097E-01
   1   12   17     1    17    1.1781E+05 -1.1536E+03   1.1896E+05  0.000E+00  0.000E+00  0.000E+00  4.07851E+01  1.601E-01  2.000E+01  2.000E+04 -5.768E-02
   1   12   18     1    18    1.1896E+05 -8.0095E+02   1.1976E+05  0.000E+00  0.000E+00  0.000E+00  4.03086E+01  1.609E-01  2.000E+01  2.000E+04 -4.005E-02
   1   12   19     1    19    1.1976E+05  1.5993E+02   1.1960E+05  0.000E+00  0.000E+00  0.000E+00  3.98316E+01  1.611E-01  2.000E+01  2.000E+04  7.996E-03
   1   13   20     1    20    1.1960E+05  9.2428E+02   1.1868E+05  0.000E+00  0.000E+00  0.000E+00  3.93539E+01  1.607E-01  2.000E+01  2.000E+04  4.621E-02
   1   14   21     1    21    1.1868E+05  7.4680E+02   1.1793E+05  0.000E+00  0.000E+00  0.000E+00  3.88759E+01  1.600E-01  2.000E+01  2.000E+04  3.734E-02
   1   14   22     1    22    1.1793E+05  5.5818E+03   1.1235E+05  0.000E+00  0.000E+00  0.000E+00  3.83961E+01  1.574E-01  2.000E+01  2.000E+04  2.791E-01
   1    9   30     2     1    5.0000E+04  8.0542E+02   4.9195E+04  0.000E+00  0.000E+00  0.000E+00  4.02403E+01  1.153E-01  2.000E+01  2.000E+04  4.027E-02
   1    9   29     2     2    4.9195E+04  1.1327E+03   4.8062E+04  0.000E+00  0.000E+00  0.000E+00  3.99889E+01  1.139E-01  2.000E+01  2.000E+04  5.664E-02
   1    9   28     2     3    4.8062E+04  2.8832E+03   4.5179E+04  0.000E+00  0.000E+00  0.000E+00  3.97361E+01  1.111E-01  2.000E+01  2.000E+04  1.442E-01
   1    9   27     2     4    4.5179E+04 -4.7525E+02   4.5654E+04  0.000E+00  0.000E+00  0.000E+00  3.94844E+01  1.094E-01  2.000E+01  2.000E+04 -2.376E-02
   1   10   26     2     5    4.5654E+04  8.8297E+02   4.4771E+04  0.000E+00  0.000E+00  0.000E+00  3.92341E+01  1.091E-01  2.000E+01  2.000E+04  4.415E-02
   1   11   25     2     6    4.4771E+04  3.5927E+02   4.4412E+04  0.000E+00  0.000E+00  0.000E+00  3.89832E+01  1.082E-01  2.000E+01  2.000E+04  1.796E-02
   1   12   24     2     7    4.4412E+04  3.5282E+02   4.4059E+04  0.000E+00  0.000E+00  0.000E+00  3.87327E+01  1.077E-01  2.000E+01  2.000E+04  1.764E-02
   1   13   23     2     8    4.4059E+04  1.3472E+02   4.3924E+04  0.000E+00  0.000E+00  0.000E+00  3.84823E+01  1.073E-01  2.000E+01  2.000E+04  6.736E-03
   1   14   22     2     9    4.3924E+04  2.2712E+03   4.1653E+04  0.000E+00  0.000E+00  0.000E+00  3.82305E+01  1.055E-01  2.000E+01  2.000E+04  1.136E-01
   1   14   22     3     1    1.5400E+05 -8.0689E+03   1.6207E+05  0.000E+00  0.000E+00  0.000E+00  3.77135E+01  1.580E-01  2.000E+01  2.000E+04 -4.034E-01
   1   15   23     3     2    1.6207E+05 -1.6824E+02   1.6224E+05  0.000E+00  0.000E+00  0.000E+00  3.68271E+01  1.604E-01  2.000E+01  2.000E+04 -8.412E-03
   1   15   24     3     3    1.6224E+05 -1.2311E+02   1.6236E+05  0.000E+00  0.000E+00  0.000E+00  3.59383E+01  1.605E-01  2.000E+01  2.000E+04 -6.155E-03
   1   15   25     3     4    1.6236E+05 -1.2334E+02   1.6249E+05  0.000E+00  0.000E+00  0.000E+00  3.50495E+01  1.606E-01  2.000E+01  2.000E+04 -6.167E-03
   1   15   26     3     5    1.6249E+05  2.9642E+01   1.6246E+05  0.000E+00  0.000E+00  0.000E+00  3.41606E+01  1.606E-01  2.000E+01  2.000E+04  1.482E-03
   1   16   27     3     6    1.6246E+05  9.2218E+02   1.6154E+05  0.000E+00  0.000E+00  0.000E+00  3.32714E+01  1.603E-01  2.000E+01  2.000E+04  4.611E-02
   1   17   28     3     7    1.6154E+05  4.8611E+03   1.5668E+05  0.000E+00  0.000E+00  0.000E+00  3.23808E+01  1.586E-01  2.000E+01  2.000E+04  2.431E-01
   1   18   29     3     8    1.5668E+05 -1.2444E+03   1.5792E+05  0.000E+00  0.000E+00  0.000E+00  3.14909E+01  1.575E-01  2.000E+01  2.000E+04 -6.222E-02
   1   18   30     3     9    1.5792E+05 -1.7280E+03   1.5965E+05  0.000E+00  0.000E+00  0.000E+00  3.06029E+01  1.584E-01  2.000E+01  2.000E+04 -8.640E-02



1
              HEAD IN LAYER   1 AT END OF TIME STEP   1 IN STRESS PERIOD   11
  ---------------------------------------------------------------------------

          1      2      3      4      5      6      7      8      9     10
         11     12     13     14     15     16     17     18     19     20
         21     22     23     24     25     26     27     28     29     30
 .........................................................................
   1  ****** ****** ****** ****** ****** ****** ****** ****** ****** ******
      ****** ****** ****** ****** ****** ****** ****** ****** ****** ******
      ****** ****** ****** ****** ****** ****** ****** ****** ****** ******
   2  ****** ****** ****** ****** ****** ****** ****** ****** ****** ******
      ****** ****** ****** ****** ****** ****** ****** ****** ****** ******
      ****** ****** ****** ****** ****** ****** ****** ****** ****** ******
   3  ****** ****** ****** ****** ****** ****** ****** ****** ****** ******
      ****** ****** ****** ****** ****** ****** ****** ****** ****** ******
      ****** ****** ****** ****** ****** ****** ****** ****** ****** ******
   4  ****** ****** ****** ****** ****** ****** ****** ****** ****** ******
      ****** ****** ****** ****** ****** ****** ****** ****** ****** ******
      ****** ****** ****** ****** ****** ****** ****** ****** ****** ******
   5  ****** ****** ****** ****** ****** ****** ****** ****** ****** ******
      ****** ****** ****** ****** ****** ****** ****** ****** ****** ******
      ****** ****** ****** ****** ****** ****** ****** ****** ****** ******
   6  ****** ****** ****** ****** ****** ****** ****** ****** ****** ******
      ****** ****** ****** ****** ****** ****** ****** ****** ****** ******
      ****** ****** ****** ****** ****** ****** ****** ****** ****** ******
   7  ****** ****** ****** ****** ****** ****** ****** ****** ****** ******
      ****** ****** ****** ****** ****** ****** ****** ****** ****** ******
      ****** ****** ****** ****** ****** ****** ****** ****** ****** ******
   8  ****** ****** ****** ****** ****** ****** ****** ****** ****** ******
      ****** ****** ****** ****** ****** ****** ****** ****** ****** ******
      ****** ****** ****** ****** ****** ****** ****** ****** ****** ******
   9  ****** ****** ****** ****** ****** ****** ****** ****** ****** ******
      ****** ****** ****** ****** ****** ****** ****** ****** ****** ******
      ****** ****** ****** ****** ****** ****** ****** ****** ****** ******
  10  ****** ****** ****** ****** ****** ****** ****** ****** ****** ******
      ****** ****** ****** ****** ****** ****** ****** ****** ****** ******
      ****** ****** ****** ****** ****** ****** ****** ****** ****** ******
  11  ****** ****** ****** ****** ****** ****** ****** ****** ****** ******
      ****** ****** ****** ****** ****** ****** ****** ****** ****** ******
      ****** ****** ****** ****** ****** ****** ****** ****** ****** ******
  12  ****** ****** ****** ****** ****** ****** ****** ****** ****** ******
      ****** ****** ****** ****** ****** ****** ****** ****** ****** ******
      ****** ****** ****** ****** ****** ****** ****** ****** ****** ******
  13  ****** ****** ****** ****** ****** ****** ****** ****** ****** ******
      ****** ****** ****** ****** ****** ****** ****** ****** ****** ******
      ****** ****** ****** ****** ****** ****** ****** ****** ****** ******
  14  ****** ****** ****** ****** ****** ****** ****** ****** ****** ******
      ****** ****** ****** ****** ****** ****** ****** ****** ****** ******
      ****** ****** ****** ****** ****** ****** ****** ****** ****** ******
  15  ****** ****** ****** ****** ****** ****** ****** ****** ****** ******
      ****** ****** ****** ****** ****** ****** ****** ****** ****** ******
      ****** ****** ****** ****** ****** ****** ****** ****** ****** ******
  16  ****** ****** ****** ****** ****** ****** ****** ****** ****** ******
      ****** ****** ****** ****** ****** ****** ****** ****** ****** ******
      ****** ****** ****** ****** ****** ****** ****** ****** ****** ******
  17  ****** ****** ****** ****** ****** ****** ****** ****** ****** ******
      ****** ****** ****** ****** ****** ****** ****** ****** ****** ******
      ****** ****** ****** ****** ****** ****** ****** ****** ****** ******
  18  ****** ****** ****** ****** ****** ****** ****** ****** ****** ******
      ****** ****** ****** ****** ****** ****** ****** ****** ****** ******
      ****** ****** ****** ****** ****** ****** ****** ****** ****** ******
  19  ****** ****** ****** ****** ****** ****** ****** ****** ****** ******
      ****** ****** ****** ****** ****** ****** ****** ****** ****** ******
      ****** ****** ****** ****** ****** ****** ****** ****** ****** ******
  20  ****** ****** ****** ****** ****** ****** ****** ****** ****** ******
      ****** ****** ****** ****** ****** ****** ****** ****** ****** ******
      ****** ****** ****** ****** ****** ****** ****** ****** ****** ******
  21  ****** ****** ****** ****** ****** ****** ****** ****** ****** ******
      ****** ****** ****** ****** ****** ****** ****** ****** ****** ******
      ****** ****** ****** ****** ****** ****** ****** ****** ****** ******
  22  ****** ****** ****** ****** ****** ****** ****** ****** ****** ******
      ****** ****** ****** ****** ****** ****** ****** ****** ****** ******
      ****** ****** ****** ****** ****** ****** ****** ****** ****** ******
  23  ****** ****** ****** ****** ****** ****** ****** ****** ****** ******
      ****** ****** ****** ****** ****** ****** ****** ****** ****** ******
      ****** ****** ****** ****** ****** ****** ****** ****** ****** ******
  24  ****** ****** ****** ****** ****** ****** ****** ****** ****** ******
      ****** ****** ****** ****** ****** ****** ****** ****** ****** ******
      ****** ****** ****** ****** ****** ****** ****** ****** ****** ******
  25  ****** ****** ****** ****** ****** ****** ****** ****** ****** ******
      ****** ****** ****** ****** ****** ****** ****** ****** ****** ******
      ****** ****** ****** ****** ****** ****** ****** ****** ****** ******

 HEAD WILL BE SAVED ON UNIT   51 AT END OF TIME STEP    1, STRESS PERIOD   11
1
  VOLUMETRIC BUDGET FOR ENTIRE MODEL AT END OF TIME STEP    1, STRESS PERIOD  11
  ------------------------------------------------------------------------------

     CUMULATIVE VOLUMES      L**3       RATES FOR THIS TIME STEP      L**3/T
     ------------------                 ------------------------

           IN:                                      IN:
           ---                                      ---
             STORAGE =    34966436.0828               STORAGE =       17871.9176
       CONSTANT HEAD =    27408296.5992         CONSTANT HEAD =       33394.9998
               WELLS =           0.0000                 WELLS =           0.0000
            RECHARGE =    23901600.0000              RECHARGE =           0.0000
      STREAM LEAKAGE =    16668046.2076        STREAM LEAKAGE =       22048.1799

            TOTAL IN =   102944378.8896              TOTAL IN =       73315.0973

          OUT:                                     OUT:
          ----                                     ----
             STORAGE =     2404586.3091               STORAGE =           0.0000
       CONSTANT HEAD =           0.0000         CONSTANT HEAD =           0.0000
               WELLS =    41785879.6954                 WELLS =       41619.4021
            RECHARGE =           0.0000              RECHARGE =           0.0000
      STREAM LEAKAGE =    58753914.8376        STREAM LEAKAGE =       31695.7000

           TOTAL OUT =   102944380.8420             TOTAL OUT =       73315.1021

            IN - OUT =          -1.9524              IN - OUT =      -4.7755E-03

 PERCENT DISCREPANCY =          -0.00     PERCENT DISCREPANCY =          -0.00






         TIME SUMMARY AT END OF TIME STEP    1 IN STRESS PERIOD   11
                    SECONDS     MINUTES      HOURS       DAYS        YEARS
                    -----------------------------------------------------------
   TIME STEP LENGTH 7.86240E+06 1.31040E+05  2184.0      91.000     0.24914    
 STRESS PERIOD TIME 7.86240E+06 1.31040E+05  2184.0      91.000     0.24914    
         TOTAL TIME 8.67456E+07 1.44576E+06  24096.      1004.0      2.7488    
1
1
                            STRESS PERIOD NO.   12, LENGTH =   91.00000    
                            -----------------------------------------------

                              NUMBER OF TIME STEPS =     1

                               MULTIPLIER FOR DELT =     1.500

                            INITIAL TIME STEP SIZE =   91.00000    

 WELL NO.  LAYER   ROW   COL   STRESS RATE         
 --------------------------------------------------
      1      1     14      6       0.000    
      2      1      3      9       0.000    
      3      1     20     10       0.000    
      4      1     14     20       0.000    
      5      1     11     21     -0.1135E+05
      6      1     18     20      -9351.    
      7      1     16     28     -0.1048E+05
      8      1     10     28     -0.1044E+05

      8 WELLS

                 RECHARGE =  1.000000E-03

 REUSING STREAM SEGMENT DATA FROM LAST STRESS PERIOD
 
 SOLVING FOR HEAD 


     7 CALLS TO PCG ROUTINE FOR TIME STEP   1 IN STRESS PERIOD   12
    24 TOTAL ITERATIONS

 OUTPUT CONTROL FOR STRESS PERIOD   12   TIME STEP    1
    SAVE BUDGET
    SAVE HEAD FOR ALL LAYERS
    PRINT HEAD FOR ALL LAYERS
 UBDSV2 SAVING "STREAMFLOW OUT  " ON UNIT  50 AT TIME STEP  1, STRESS PERIOD  12



 STREAM LISTING     PERIOD     12   STEP        1

 LAYER ROW COL. STREAM  RCH.  FLOW INTO     FLOW TO   FLOW OUT OF   OVRLND.     DIRECT     STREAM       STREAM     STREAM     STREAM   STREAMBED  STREAMBED
                SEG.NO.  NO.  STRM. RCH.    AQUIFER    STRM. RCH.    RUNOFF     PRECIP       ET          HEAD       DEPTH      WIDTH   CONDCTNC.   GRADIENT

   1   13    1     1     1    1.0000E+05 -1.6993E+03   1.0170E+05  0.000E+00  0.000E+00  0.000E+00  4.84068E+01  1.454E-01  2.000E+01  2.000E+04 -8.496E-02
   1   13    2     1     2    1.0170E+05 -2.6414E+03   1.0434E+05  0.000E+00  0.000E+00  0.000E+00  4.79313E+01  1.473E-01  2.000E+01  2.000E+04 -1.321E-01
   1   14    3     1     3    1.0434E+05 -4.4142E+02   1.0478E+05  0.000E+00  0.000E+00  0.000E+00  4.74554E+01  1.486E-01  2.000E+01  2.000E+04 -2.207E-02
   1   15    4     1     4    1.0478E+05 -4.1503E+02   1.0520E+05  0.000E+00  0.000E+00  0.000E+00  4.69785E+01  1.489E-01  2.000E+01  2.000E+04 -2.075E-02
   1   16    5     1     5    1.0520E+05 -1.5580E+03   1.0676E+05  0.000E+00  0.000E+00  0.000E+00  4.65021E+01  1.498E-01  2.000E+01  2.000E+04 -7.790E-02
   1   16    6     1     6    1.0676E+05 -9.8225E+02   1.0774E+05  0.000E+00  0.000E+00  0.000E+00  4.60259E+01  1.509E-01  2.000E+01  2.000E+04 -4.911E-02
   1   16    7     1     7    1.0774E+05 -9.5714E+02   1.0869E+05  0.000E+00  0.000E+00  0.000E+00  4.55494E+01  1.517E-01  2.000E+01  2.000E+04 -4.786E-02
   1   16    8     1     8    1.0869E+05 -9.4261E+02   1.0964E+05  0.000E+00  0.000E+00  0.000E+00  4.50729E+01  1.525E-01  2.000E+01  2.000E+04 -4.713E-02
   1   16    9     1     9    1.0964E+05 -9.1988E+02   1.1056E+05  0.000E+00  0.000E+00  0.000E+00  4.45964E+01  1.532E-01  2.000E+01  2.000E+04 -4.599E-02
   1   16   10     1    10    1.1056E+05 -8.8513E+02   1.1144E+05  0.000E+00  0.000E+00  0.000E+00  4.41199E+01  1.540E-01  2.000E+01  2.000E+04 -4.426E-02
   1   16   11     1    11    1.1144E+05 -8.4509E+02   1.1229E+05  0.000E+00  0.000E+00  0.000E+00  4.36434E+01  1.547E-01  2.000E+01  2.000E+04 -4.225E-02
   1   16   12     1    12    1.1229E+05 -1.2771E+03   1.1356E+05  0.000E+00  0.000E+00  0.000E+00  4.31670E+01  1.556E-01  2.000E+01  2.000E+04 -6.385E-02
   1   15   13     1    13    1.1356E+05 -1.1803E+03   1.1474E+05  0.000E+00  0.000E+00  0.000E+00  4.26907E+01  1.566E-01  2.000E+01  2.000E+04 -5.902E-02
   1   14   14     1    14    1.1474E+05 -1.4224E+03   1.1617E+05  0.000E+00  0.000E+00  0.000E+00  4.22145E+01  1.577E-01  2.000E+01  2.000E+04 -7.112E-02
   1   13   15     1    15    1.1617E+05 -1.7322E+03   1.1790E+05  0.000E+00  0.000E+00  0.000E+00  4.17385E+01  1.590E-01  2.000E+01  2.000E+04 -8.661E-02
   1   12   16     1    16    1.1790E+05 -2.3786E+03   1.2028E+05  0.000E+00  0.000E+00  0.000E+00  4.12629E+01  1.606E-01  2.000E+01  2.000E+04 -1.189E-01
   1   12   17     1    17    1.2028E+05 -1.3079E+03   1.2159E+05  0.000E+00  0.000E+00  0.000E+00  4.07871E+01  1.621E-01  2.000E+01  2.000E+04 -6.539E-02
   1   12   18     1    18    1.2159E+05 -9.5729E+02   1.2254E+05  0.000E+00  0.000E+00  0.000E+00  4.03108E+01  1.630E-01  2.000E+01  2.000E+04 -4.786E-02
   1   12   19     1    19    1.2254E+05 -3.3352E+01   1.2258E+05  0.000E+00  0.000E+00  0.000E+00  3.98339E+01  1.634E-01  2.000E+01  2.000E+04 -1.668E-03
   1   13   20     1    20    1.2258E+05  7.1358E+02   1.2186E+05  0.000E+00  0.000E+00  0.000E+00  3.93563E+01  1.632E-01  2.000E+01  2.000E+04  3.568E-02
   1   14   21     1    21    1.2186E+05  5.5263E+02   1.2131E+05  0.000E+00  0.000E+00  0.000E+00  3.88786E+01  1.627E-01  2.000E+01  2.000E+04  2.763E-02
   1   14   22     1    22    1.2131E+05  5.5272E+03   1.1578E+05  0.000E+00  0.000E+00  0.000E+00  3.83988E+01  1.602E-01  2.000E+01  2.000E+04  2.764E-01
   1    9   30     2     1    5.0000E+04  6.2884E+02   4.9371E+04  0.000E+00  0.000E+00  0.000E+00  4.02404E+01  1.154E-01  2.000E+01  2.000E+04  3.144E-02
   1    9   29     2     2    4.9371E+04  9.5815E+02   4.8413E+04  0.000E+00  0.000E+00  0.000E+00  3.99893E+01  1.143E-01  2.000E+01  2.000E+04  4.791E-02
   1    9   28     2     3    4.8413E+04  2.7122E+03   4.5701E+04  0.000E+00  0.000E+00  0.000E+00  3.97367E+01  1.117E-01  2.000E+01  2.000E+04  1.356E-01
   1    9   27     2     4    4.5701E+04 -6.8484E+02   4.6386E+04  0.000E+00  0.000E+00  0.000E+00  3.94853E+01  1.103E-01  2.000E+01  2.000E+04 -3.424E-02
   1   10   26     2     5    4.6386E+04  6.5279E+02   4.5733E+04  0.000E+00  0.000E+00  0.000E+00  3.92353E+01  1.103E-01  2.000E+01  2.000E+04  3.264E-02
   1   11   25     2     6    4.5733E+04  1.3303E+02   4.5600E+04  0.000E+00  0.000E+00  0.000E+00  3.89847E+01  1.097E-01  2.000E+01  2.000E+04  6.652E-03
   1   12   24     2     7    4.5600E+04  1.4633E+02   4.5454E+04  0.000E+00  0.000E+00  0.000E+00  3.87345E+01  1.095E-01  2.000E+01  2.000E+04  7.316E-03
   1   13   23     2     8    4.5454E+04  5.7061E+01   4.5396E+04  0.000E+00  0.000E+00  0.000E+00  3.84844E+01  1.094E-01  2.000E+01  2.000E+04  2.853E-03
   1   14   22     2     9    4.5396E+04  2.2053E+03   4.3191E+04  0.000E+00  0.000E+00  0.000E+00  3.82327E+01  1.077E-01  2.000E+01  2.000E+04  1.103E-01
   1   14   22     3     1    1.5897E+05 -8.1195E+03   1.6709E+05  0.000E+00  0.000E+00  0.000E+00  3.77165E+01  1.609E-01  2.000E+01  2.000E+04 -4.060E-01
   1   15   23     3     2    1.6709E+05 -2.4024E+02   1.6733E+05  0.000E+00  0.000E+00  0.000E+00  3.68301E+01  1.634E-01  2.000E+01  2.000E+04 -1.201E-02
   1   15   24     3     3    1.6733E+05 -1.8817E+02   1.6752E+05  0.000E+00  0.000E+00  0.000E+00  3.59413E+01  1.635E-01  2.000E+01  2.000E+04 -9.409E-03
   1   15   25     3     4    1.6752E+05 -1.8968E+02   1.6771E+05  0.000E+00  0.000E+00  0.000E+00  3.50525E+01  1.636E-01  2.000E+01  2.000E+04 -9.484E-03
   1   15   26     3     5    1.6771E+05 -4.7826E+01   1.6776E+05  0.000E+00  0.000E+00  0.000E+00  3.41637E+01  1.637E-01  2.000E+01  2.000E+04 -2.391E-03
   1   16   27     3     6    1.6776E+05  8.3542E+02   1.6692E+05  0.000E+00  0.000E+00  0.000E+00  3.32746E+01  1.635E-01  2.000E+01  2.000E+04  4.177E-02
   1   17   28     3     7    1.6692E+05  4.6405E+03   1.6228E+05  0.000E+00  0.000E+00  0.000E+00  3.23841E+01  1.619E-01  2.000E+01  2.000E+04  2.320E-01
   1   18   29     3     8    1.6228E+05 -1.4448E+03   1.6373E+05  0.000E+00  0.000E+00  0.000E+00  3.14943E+01  1.609E-01  2.000E+01  2.000E+04 -7.224E-02
   1   18   30     3     9    1.6373E+05 -1.8961E+03   1.6562E+05  0.000E+00  0.000E+00  0.000E+00  3.06064E+01  1.619E-01  2.000E+01  2.000E+04 -9.480E-02



1
              HEAD IN LAYER   1 AT END OF TIME STEP   1 IN STRESS PERIOD   12
  ---------------------------------------------------------------------------

          1      2      3      4      5      6      7      8      9     10
         11     12     13     14     15     16     17     18     19     20
         21     22     23     24     25     26     27     28     29     30
 .........................................................................
   1  ****** ****** ****** ****** ****** ****** ****** ****** ****** ******
      ****** ****** ****** ****** ****** ****** ****** ****** ****** ******
      ****** ****** ****** ****** ****** ****** ****** ****** ****** ******
   2  ****** ****** ****** ****** ****** ****** ****** ****** ****** ******
      ****** ****** ****** ****** ****** ****** ****** ****** ****** ******
      ****** ****** ****** ****** ****** ****** ****** ****** ****** ******
   3  ****** ****** ****** ****** ****** ****** ****** ****** ****** ******
      ****** ****** ****** ****** ****** ****** ****** ****** ****** ******
      ****** ****** ****** ****** ****** ****** ****** ****** ****** ******
   4  ****** ****** ****** ****** ****** ****** ****** ****** ****** ******
      ****** ****** ****** ****** ****** ****** ****** ****** ****** ******
      ****** ****** ****** ****** ****** ****** ****** ****** ****** ******
   5  ****** ****** ****** ****** ****** ****** ****** ****** ****** ******
      ****** ****** ****** ****** ****** ****** ****** ****** ****** ******
      ****** ****** ****** ****** ****** ****** ****** ****** ****** ******
   6  ****** ****** ****** ****** ****** ****** ****** ****** ****** ******
      ****** ****** ****** ****** ****** ****** ****** ****** ****** ******
      ****** ****** ****** ****** ****** ****** ****** ****** ****** ******
   7  ****** ****** ****** ****** ****** ****** ****** ****** ****** ******
      ****** ****** ****** ****** ****** ****** ****** ****** ****** ******
      ****** ****** ****** ****** ****** ****** ****** ****** ****** ******
   8  ****** ****** ****** ****** ****** ****** ****** ****** ****** ******
      ****** ****** ****** ****** ****** ****** ****** ****** ****** ******
      ****** ****** ****** ****** ****** ****** ****** ****** ****** ******
   9  ****** ****** ****** ****** ****** ****** ****** ****** ****** ******
      ****** ****** ****** ****** ****** ****** ****** ****** ****** ******
      ****** ****** ****** ****** ****** ****** ****** ****** ****** ******
  10  ****** ****** ****** ****** ****** ****** ****** ****** ****** ******
      ****** ****** ****** ****** ****** ****** ****** ****** ****** ******
      ****** ****** ****** ****** ****** ****** ****** ****** ****** ******
  11  ****** ****** ****** ****** ****** ****** ****** ****** ****** ******
      ****** ****** ****** ****** ****** ****** ****** ****** ****** ******
      ****** ****** ****** ****** ****** ****** ****** ****** ****** ******
  12  ****** ****** ****** ****** ****** ****** ****** ****** ****** ******
      ****** ****** ****** ****** ****** ****** ****** ****** ****** ******
      ****** ****** ****** ****** ****** ****** ****** ****** ****** ******
  13  ****** ****** ****** ****** ****** ****** ****** ****** ****** ******
      ****** ****** ****** ****** ****** ****** ****** ****** ****** ******
      ****** ****** ****** ****** ****** ****** ****** ****** ****** ******
  14  ****** ****** ****** ****** ****** ****** ****** ****** ****** ******
      ****** ****** ****** ****** ****** ****** ****** ****** ****** ******
      ****** ****** ****** ****** ****** ****** ****** ****** ****** ******
  15  ****** ****** ****** ****** ****** ****** ****** ****** ****** ******
      ****** ****** ****** ****** ****** ****** ****** ****** ****** ******
      ****** ****** ****** ****** ****** ****** ****** ****** ****** ******
  16  ****** ****** ****** ****** ****** ****** ****** ****** ****** ******
      ****** ****** ****** ****** ****** ****** ****** ****** ****** ******
      ****** ****** ****** ****** ****** ****** ****** ****** ****** ******
  17  ****** ****** ****** ****** ****** ****** ****** ****** ****** ******
      ****** ****** ****** ****** ****** ****** ****** ****** ****** ******
      ****** ****** ****** ****** ****** ****** ****** ****** ****** ******
  18  ****** ****** ****** ****** ****** ****** ****** ****** ****** ******
      ****** ****** ****** ****** ****** ****** ****** ****** ****** ******
      ****** ****** ****** ****** ****** ****** ****** ****** ****** ******
  19  ****** ****** ****** ****** ****** ****** ****** ****** ****** ******
      ****** ****** ****** ****** ****** ****** ****** ****** ****** ******
      ****** ****** ****** ****** ****** ****** ****** ****** ****** ******
  20  ****** ****** ****** ****** ****** ****** ****** ****** ****** ******
      ****** ****** ****** ****** ****** ****** ****** ****** ****** ******
      ****** ****** ****** ****** ****** ****** ****** ****** ****** ******
  21  ****** ****** ****** ****** ****** ****** ****** ****** ****** ******
      ****** ****** ****** ****** ****** ****** ****** ****** ****** ******
      ****** ****** ****** ****** ****** ****** ****** ****** ****** ******
  22  ****** ****** ****** ****** ****** ****** ****** ****** ****** ******
      ****** ****** ****** ****** ****** ****** ****** ****** ****** ******
      ****** ****** ****** ****** ****** ****** ****** ****** ****** ******
  23  ****** ****** ****** ****** ****** ****** ****** ****** ****** ******
      ****** ****** ****** ****** ****** ****** ****** ****** ****** ******
      ****** ****** ****** ****** ****** ****** ****** ****** ****** ******
  24  ****** ****** ****** ****** ****** ****** ****** ****** ****** ******
      ****** ****** ****** ****** ****** ****** ****** ****** ****** ******
      ****** ****** ****** ****** ****** ****** ****** ****** ****** ******
  25  ****** ****** ****** ****** ****** ****** ****** ****** ****** ******
      ****** ****** ****** ****** ****** ****** ****** ****** ****** ******
      ****** ****** ****** ****** ****** ****** ****** ****** ****** ******

 HEAD WILL BE SAVED ON UNIT   51 AT END OF TIME STEP    1, STRESS PERIOD   12
1
  VOLUMETRIC BUDGET FOR ENTIRE MODEL AT END OF TIME STEP    1, STRESS PERIOD  12
  ------------------------------------------------------------------------------

     CUMULATIVE VOLUMES      L**3       RATES FOR THIS TIME STEP      L**3/T
     ------------------                 ------------------------

           IN:                                      IN:
           ---                                      ---
             STORAGE =    34967010.3243               STORAGE =           6.3103
       CONSTANT HEAD =    30383407.2577         CONSTANT HEAD =       32693.5237
               WELLS =           0.0000                 WELLS =           0.0000
            RECHARGE =    26413200.0000              RECHARGE =       27600.0000
      STREAM LEAKAGE =    18466483.2406        STREAM LEAKAGE =       19763.0443

            TOTAL IN =   110230100.8226              TOTAL IN =       80062.8784

          OUT:                                     OUT:
          ----                                     ----
             STORAGE =     2682669.0219               STORAGE =        3055.8540
       CONSTANT HEAD =           0.0000         CONSTANT HEAD =           0.0000
               WELLS =    45573245.2853                 WELLS =       41619.4021
            RECHARGE =           0.0000              RECHARGE =           0.0000
      STREAM LEAKAGE =    61974188.3870        STREAM LEAKAGE =       35387.6214

           TOTAL OUT =   110230102.6941             TOTAL OUT =       80062.8775

            IN - OUT =          -1.8715              IN - OUT =       8.8896E-04

 PERCENT DISCREPANCY =          -0.00     PERCENT DISCREPANCY =           0.00






         TIME SUMMARY AT END OF TIME STEP    1 IN STRESS PERIOD   12
                    SECONDS     MINUTES      HOURS       DAYS        YEARS
                    -----------------------------------------------------------
   TIME STEP LENGTH 7.86240E+06 1.31040E+05  2184.0      91.000     0.24914    
 STRESS PERIOD TIME 7.86240E+06 1.31040E+05  2184.0      91.000     0.24914    
         TOTAL TIME 9.46080E+07 1.57680E+06  26280.      1095.0      2.9979    
1

 Run end date and time (yyyy/mm/dd hh:mm:ss): 2018/10/14 15:31:49
 Elapsed run time:  0.063 Seconds

