                                  MODFLOW-2005     
      U.S. GEOLOGICAL SURVEY MODULAR FINITE-DIFFERENCE GROUND-WATER FLOW MODEL
                            VERSION 1.11.00 8/8/2013

 LIST FILE: supply2.lst
                         UNIT   10

 OPENING ..\data\supply.dis
 FILE TYPE:DIS   UNIT   11   STATUS:OLD    
 FORMAT:FORMATTED              ACCESS:SEQUENTIAL          

 OPENING ..\data\supply.ba6
 FILE TYPE:BAS6   UNIT   12   STATUS:OLD    
 FORMAT:FORMATTED              ACCESS:SEQUENTIAL          

 OPENING ..\data\supply.bc6
 FILE TYPE:BCF6   UNIT   13   STATUS:OLD    
 FORMAT:FORMATTED              ACCESS:SEQUENTIAL          

 OPENING ..\data\supply.rch
 FILE TYPE:RCH   UNIT   15   STATUS:OLD    
 FORMAT:FORMATTED              ACCESS:SEQUENTIAL          

 OPENING ..\data\supply2.sfr
 FILE TYPE:SFR   UNIT   16   STATUS:OLD    
 FORMAT:FORMATTED              ACCESS:SEQUENTIAL          

 OPENING ..\data\supply.oc
 FILE TYPE:OC   UNIT   17   STATUS:OLD    
 FORMAT:FORMATTED              ACCESS:SEQUENTIAL          

 OPENING ..\data\supply.pcg
 FILE TYPE:PCG   UNIT   18   STATUS:OLD    
 FORMAT:FORMATTED              ACCESS:SEQUENTIAL          

 OPENING supply2.wel
 FILE TYPE:WEL   UNIT   19   STATUS:OLD    
 FORMAT:FORMATTED              ACCESS:SEQUENTIAL          

 OPENING supply2sf.cbc
 FILE TYPE:DATA(BINARY)   UNIT   50   STATUS:UNKNOWN
 FORMAT:BINARY                 ACCESS:SEQUENTIAL          

 OPENING supply2hd.bhd
 FILE TYPE:DATA(BINARY)   UNIT   51   STATUS:UNKNOWN
 FORMAT:BINARY                 ACCESS:SEQUENTIAL          

 BAS -- BASIC PACKAGE, VERSION 7, 5/2/2005 INPUT READ FROM UNIT   12
 
 MODFLOW was compiled using uniform precision
 Precision of REAL and DOUBLE PRECISION variables:          15

 DISCRETIZATION INPUT DATA READ FROM UNIT   11
    1 LAYERS        25 ROWS        30 COLUMNS
   12 STRESS PERIOD(S) IN SIMULATION
 MODEL TIME UNIT IS DAYS
 MODEL LENGTH UNIT IS UNDEFINED
  Confining bed flag for each layer:
   0

                     DELR =   200.000    

                     DELC =   200.000    

 TOP ELEVATION OF LAYER 1 =  100.0000    

   MODEL LAYER BOTTOM EL. =   0.00000     FOR LAYER   1


 STRESS PERIOD     LENGTH       TIME STEPS     MULTIPLIER FOR DELT    SS FLAG
 ----------------------------------------------------------------------------
        1         92.00000          1                    1.500         TR
        2         91.00000          1                    1.500         TR
        3         91.00000          1                    1.500         TR
        4         91.00000          1                    1.500         TR
        5         92.00000          1                    1.500         TR
        6         91.00000          1                    1.500         TR
        7         91.00000          1                    1.500         TR
        8         91.00000          1                    1.500         TR
        9         92.00000          1                    1.500         TR
       10         91.00000          1                    1.500         TR
       11         91.00000          1                    1.500         TR
       12         91.00000          1                    1.500         TR

 TRANSIENT SIMULATION



 
 #MODOFC transient water supply sample problem                                   
 #                                                                               
 THE FREE FORMAT OPTION HAS BEEN SELECTED



                     BOUNDARY ARRAY FOR LAYER   1
 READING ON UNIT   12 WITH FORMAT: (20I4)              

 AQUIFER HEAD WILL BE SET TO   0.0000     AT ALL NO-FLOW NODES (IBOUND=0).



                       INITIAL HEAD FOR LAYER   1
 READING ON UNIT   12 WITH FORMAT: (10F13.0)           

 OUTPUT CONTROL IS SPECIFIED ONLY AT TIME STEPS FOR WHICH OUTPUT IS DESIRED
 COMPACT CELL-BY-CELL BUDGET FILES WILL BE WRITTEN
 HEAD PRINT FORMAT CODE IS  18    DRAWDOWN PRINT FORMAT CODE IS   0
 HEADS WILL BE SAVED ON UNIT   51    DRAWDOWNS WILL BE SAVED ON UNIT    0

 BCF -- BLOCK-CENTERED FLOW PACKAGE, VERSION 7, 5/2/2005
         INPUT READ FROM UNIT 13
 TRANSIENT SIMULATION
 HEAD AT CELLS THAT CONVERT TO DRY=   0.0000    
 WETTING CAPABILITY IS NOT ACTIVE
      LAYER  LAYER-TYPE CODE     INTERBLOCK T
      --------------------------------------------
         1            0          0 -- HARMONIC    

 COLUMN TO ROW ANISOTROPY =  1.000000    

     PRIMARY STORAGE COEF =  5.000000E-02 FOR LAYER   1

     TRANSMIS. ALONG ROWS =   500.000     FOR LAYER   1

 WEL -- WELL PACKAGE, VERSION 7, 5/2/2005 INPUT READ FROM UNIT   19
 # Well package input file written by MMProc
 No named parameters
 MAXIMUM OF      6 ACTIVE WELLS AT ONE TIME


     0 Well parameters

 RCH -- RECHARGE PACKAGE, VERSION 7, 5/2/2005 INPUT READ FROM UNIT   15
 No named parameters
 OPTION 1 -- RECHARGE TO TOP LAYER


     0 Recharge parameters

 SFR7 -- STREAMFLOW ROUTING PACKAGE, VERSION 1.0.7, 2013-01-15
         INPUT READ FROM UNIT  16
 #  Supply2 test problem for GWM-VI
 #  The eighth entry in the first data line is ISTCB2 -
 #    Setting this to a negative number indicates that
 #    streamflows out of the reach will be saved to a
 #    binary file.  The absolute value of ISTCB2 is the
 #    unit to which unformatted flows will be written.
 #
 No named parameters
 Segment information will not be 
 read by reach
 No named parameters
 No specifed inflow files


 NUMBER OF STREAM REACHES IS   40

 NUMBER OF STREAM SEGMENTS IS    3

 NUMBER OF STREAM PARAMETERS IS    0

 NUMBER OF STREAM SEGMENTS DEFINED USING PARAMETERS IS              0

 MAXIMUM ERROR FOR STREAM LEAKAGE RATES IS  1.00E-04

 CONSTANT FOR MANNINGS EQUATION IS  1.2839E+05





   STREAM NETWORK DESCRIPTION: 

   LAYER    ROW    COL   SEGMENT   REACH     LENGTH
                          NUMBER   NUMBER    IN CELL        
   --------------------------------------------------
      1     13      1       1        1    2.0000E+02
      1     13      2       1        2    2.0000E+02
      1     14      3       1        3    2.0000E+02
      1     15      4       1        4    2.0000E+02
      1     16      5       1        5    2.0000E+02
      1     16      6       1        6    2.0000E+02
      1     16      7       1        7    2.0000E+02
      1     16      8       1        8    2.0000E+02
      1     16      9       1        9    2.0000E+02
      1     16     10       1       10    2.0000E+02
      1     16     11       1       11    2.0000E+02
      1     16     12       1       12    2.0000E+02
      1     15     13       1       13    2.0000E+02
      1     14     14       1       14    2.0000E+02
      1     13     15       1       15    2.0000E+02
      1     12     16       1       16    2.0000E+02
      1     12     17       1       17    2.0000E+02
      1     12     18       1       18    2.0000E+02
      1     12     19       1       19    2.0000E+02
      1     13     20       1       20    2.0000E+02
      1     14     21       1       21    2.0000E+02
      1     14     22       1       22    2.0000E+02
      1      9     30       2        1    2.0000E+02
      1      9     29       2        2    2.0000E+02
      1      9     28       2        3    2.0000E+02
      1      9     27       2        4    2.0000E+02
      1     10     26       2        5    2.0000E+02
      1     11     25       2        6    2.0000E+02
      1     12     24       2        7    2.0000E+02
      1     13     23       2        8    2.0000E+02
      1     14     22       2        9    2.0000E+02
      1     14     22       3        1    2.0000E+02
      1     15     23       3        2    2.0000E+02
      1     15     24       3        3    2.0000E+02
      1     15     25       3        4    2.0000E+02
      1     15     26       3        5    2.0000E+02
      1     16     27       3        6    2.0000E+02
      1     17     28       3        7    2.0000E+02
      1     18     29       3        8    2.0000E+02
      1     18     30       3        9    2.0000E+02




 PCG -- CONJUGATE-GRADIENT SOLUTION PACKAGE, VERSION 7, 5/2/2005
 MAXIMUM OF    500 CALLS OF SOLUTION ROUTINE
 MAXIMUM OF      5 INTERNAL ITERATIONS PER CALL TO SOLUTION ROUTINE
 MATRIX PRECONDITIONING TYPE :    1



                                    SOLUTION BY THE CONJUGATE-GRADIENT METHOD
                                   -------------------------------------------
                    MAXIMUM NUMBER OF CALLS TO PCG ROUTINE =      500
                        MAXIMUM ITERATIONS PER CALL TO PCG =        5
                               MATRIX PRECONDITIONING TYPE =        1
        RELAXATION FACTOR (ONLY USED WITH PRECOND. TYPE 1) =    0.10000E+01
 PARAMETER OF POLYNOMIAL PRECOND. = 2 (2) OR IS CALCULATED :        0
                         HEAD CHANGE CRITERION FOR CLOSURE =    0.10000E-05
                     RESIDUAL CHANGE CRITERION FOR CLOSURE =    0.10000E+01
            PCG HEAD AND RESIDUAL CHANGE PRINTOUT INTERVAL =        1
     PRINTING FROM SOLVER IS LIMITED(1) OR SUPPRESSED (>1) =        1
                            STEADY-STATE DAMPING PARAMETER =    0.10000E+01
                               TRANSIENT DAMPING PARAMETER =    0.10000E+01
1
                            STRESS PERIOD NO.    1, LENGTH =   92.00000    
                            -----------------------------------------------

                              NUMBER OF TIME STEPS =     1

                               MULTIPLIER FOR DELT =     1.500

                            INITIAL TIME STEP SIZE =   92.00000    

 WELL NO.  LAYER   ROW   COL   STRESS RATE         
 --------------------------------------------------
      1      1     18     11     -0.3279E+05
      2      1     23     22     -0.3365E+05
      3      1     23     15     -0.3252E+05

      3 WELLS

                 RECHARGE =  5.000000E-04



 CLASSIFICATION & COUNT OF STREAM SEGMENTS BASED ON SOURCE OF INFLOW:

                HEADWATER     DIVERSION     RECEIVES TRIBUTARY FLOW
                ---------     ---------     -----------------------
                     2              0               1



                    INPUT DATA FOR EACH STREAM SEGMENT
 ---------------------------------------------------------------------------------------------

 SEGMENT    SEG.     INFLOW   OVERLAND   STREAM    STREAM   ICALC  OUTFLOW  DIVERSION PRIORITY
    NO.    LENGTH     RATE     RUNOFF      ET       PPT.    METH.  TO SEG.  FROM SEG.    NO.

      1  4.400E+03 1.000E+05 0.000E+00 0.000E+00 0.000E+00    1        3        0        0
      2  1.800E+03 5.000E+04 0.000E+00 0.000E+00 0.000E+00    1        3        0        0
      3  1.800E+03 0.000E+00 0.000E+00 0.000E+00 0.000E+00    1        0        0        0


         STREAMBED PROPERTIES AND STREAM DIMENSIONS

 SEGMENT     BED HYD. COND.      BED THICKNESS     ELEV.-TOP OF BED     WIDTH OF STREAM     DEPTH OF STREAM    STREAM ROUGHNESS
    No.     UPPER     LOWER     UPPER     LOWER     UPPER     LOWER     UPPER     LOWER     UPPER     LOWER   CHANNEL      BANK

     1  5.000E+00 5.000E+00 1.000E+00 1.000E+00 4.850E+01 3.800E+01 2.000E+01 2.000E+01                     5.000E-02
     2  5.000E+00 5.000E+00 1.000E+00 1.000E+00 4.025E+01 3.800E+01 2.000E+01 2.000E+01                     5.000E-02
     3  5.000E+00 5.000E+00 1.000E+00 1.000E+00 3.800E+01 3.000E+01 2.000E+01 2.000E+01                     5.000E-02



 
 SOLVING FOR HEAD 


     9 CALLS TO PCG ROUTINE FOR TIME STEP   1 IN STRESS PERIOD    1
    36 TOTAL ITERATIONS

 OUTPUT CONTROL FOR STRESS PERIOD    1   TIME STEP    1
    SAVE BUDGET
    SAVE HEAD FOR ALL LAYERS
    PRINT HEAD FOR ALL LAYERS
 UBDSV2 SAVING "STREAMFLOW OUT  " ON UNIT  50 AT TIME STEP  1, STRESS PERIOD   1



 STREAM LISTING     PERIOD      1   STEP        1

 LAYER ROW COL. STREAM  RCH.  FLOW INTO     FLOW TO   FLOW OUT OF   OVRLND.     DIRECT     STREAM       STREAM     STREAM     STREAM   STREAMBED  STREAMBED
                SEG.NO.  NO.  STRM. RCH.    AQUIFER    STRM. RCH.    RUNOFF     PRECIP       ET          HEAD       DEPTH      WIDTH   CONDCTNC.   GRADIENT

   1   13    1     1     1    1.0000E+05 -5.7287E+03   1.0573E+05  0.000E+00  0.000E+00  0.000E+00  4.84085E+01  1.471E-01  2.000E+01  2.000E+04 -2.864E-01
   1   13    2     1     2    1.0573E+05 -8.5808E+03   1.1431E+05  0.000E+00  0.000E+00  0.000E+00  4.79373E+01  1.532E-01  2.000E+01  2.000E+04 -4.290E-01
   1   14    3     1     3    1.1431E+05 -7.8189E+03   1.2213E+05  0.000E+00  0.000E+00  0.000E+00  4.74668E+01  1.599E-01  2.000E+01  2.000E+04 -3.909E-01
   1   15    4     1     4    1.2213E+05 -7.5852E+03   1.2971E+05  0.000E+00  0.000E+00  0.000E+00  4.69957E+01  1.661E-01  2.000E+01  2.000E+04 -3.793E-01
   1   16    5     1     5    1.2971E+05 -7.1370E+03   1.3685E+05  0.000E+00  0.000E+00  0.000E+00  4.65241E+01  1.719E-01  2.000E+01  2.000E+04 -3.568E-01
   1   16    6     1     6    1.3685E+05 -5.5653E+03   1.4242E+05  0.000E+00  0.000E+00  0.000E+00  4.60517E+01  1.767E-01  2.000E+01  2.000E+04 -2.783E-01
   1   16    7     1     7    1.4242E+05 -5.4343E+03   1.4785E+05  0.000E+00  0.000E+00  0.000E+00  4.55786E+01  1.809E-01  2.000E+01  2.000E+04 -2.717E-01
   1   16    8     1     8    1.4785E+05 -5.0354E+03   1.5289E+05  0.000E+00  0.000E+00  0.000E+00  4.51052E+01  1.848E-01  2.000E+01  2.000E+04 -2.518E-01
   1   16    9     1     9    1.5289E+05 -4.1868E+03   1.5707E+05  0.000E+00  0.000E+00  0.000E+00  4.46313E+01  1.881E-01  2.000E+01  2.000E+04 -2.093E-01
   1   16   10     1    10    1.5707E+05 -2.6756E+03   1.5975E+05  0.000E+00  0.000E+00  0.000E+00  4.41565E+01  1.906E-01  2.000E+01  2.000E+04 -1.338E-01
   1   16   11     1    11    1.5975E+05 -7.5998E+02   1.6051E+05  0.000E+00  0.000E+00  0.000E+00  4.36805E+01  1.919E-01  2.000E+01  2.000E+04 -3.800E-02
   1   16   12     1    12    1.6051E+05 -3.1180E+03   1.6363E+05  0.000E+00  0.000E+00  0.000E+00  4.32046E+01  1.933E-01  2.000E+01  2.000E+04 -1.559E-01
   1   15   13     1    13    1.6363E+05 -6.6478E+03   1.7027E+05  0.000E+00  0.000E+00  0.000E+00  4.27308E+01  1.967E-01  2.000E+01  2.000E+04 -3.324E-01
   1   14   14     1    14    1.7027E+05 -7.6794E+03   1.7795E+05  0.000E+00  0.000E+00  0.000E+00  4.22586E+01  2.018E-01  2.000E+01  2.000E+04 -3.840E-01
   1   13   15     1    15    1.7795E+05 -8.2624E+03   1.8622E+05  0.000E+00  0.000E+00  0.000E+00  4.17868E+01  2.072E-01  2.000E+01  2.000E+04 -4.131E-01
   1   12   16     1    16    1.8622E+05 -9.3090E+03   1.9552E+05  0.000E+00  0.000E+00  0.000E+00  4.13155E+01  2.132E-01  2.000E+01  2.000E+04 -4.654E-01
   1   12   17     1    17    1.9552E+05 -6.4876E+03   2.0201E+05  0.000E+00  0.000E+00  0.000E+00  4.08434E+01  2.184E-01  2.000E+01  2.000E+04 -3.244E-01
   1   12   18     1    18    2.0201E+05 -6.3224E+03   2.0833E+05  0.000E+00  0.000E+00  0.000E+00  4.03704E+01  2.226E-01  2.000E+01  2.000E+04 -3.161E-01
   1   12   19     1    19    2.0833E+05 -8.0488E+03   2.1638E+05  0.000E+00  0.000E+00  0.000E+00  3.98977E+01  2.273E-01  2.000E+01  2.000E+04 -4.024E-01
   1   13   20     1    20    2.1638E+05 -6.4325E+03   2.2282E+05  0.000E+00  0.000E+00  0.000E+00  3.94251E+01  2.319E-01  2.000E+01  2.000E+04 -3.216E-01
   1   14   21     1    21    2.2282E+05 -5.1070E+03   2.2792E+05  0.000E+00  0.000E+00  0.000E+00  3.89514E+01  2.355E-01  2.000E+01  2.000E+04 -2.553E-01
   1   14   22     1    22    2.2792E+05  4.3225E+03   2.2360E+05  0.000E+00  0.000E+00  0.000E+00  3.84744E+01  2.358E-01  2.000E+01  2.000E+04  2.161E-01
   1    9   30     2     1    5.0000E+04 -5.5708E+03   5.5571E+04  0.000E+00  0.000E+00  0.000E+00  4.02447E+01  1.197E-01  2.000E+01  2.000E+04 -2.785E-01
   1    9   29     2     2    5.5571E+04 -5.8698E+03   6.1441E+04  0.000E+00  0.000E+00  0.000E+00  4.00023E+01  1.273E-01  2.000E+01  2.000E+04 -2.935E-01
   1    9   28     2     3    6.1441E+04 -6.1940E+03   6.7635E+04  0.000E+00  0.000E+00  0.000E+00  3.97600E+01  1.350E-01  2.000E+01  2.000E+04 -3.097E-01
   1    9   27     2     4    6.7635E+04 -9.5872E+03   7.7222E+04  0.000E+00  0.000E+00  0.000E+00  3.95197E+01  1.447E-01  2.000E+01  2.000E+04 -4.794E-01
   1   10   26     2     5    7.7222E+04 -7.7172E+03   8.4939E+04  0.000E+00  0.000E+00  0.000E+00  3.92799E+01  1.549E-01  2.000E+01  2.000E+04 -3.859E-01
   1   11   25     2     6    8.4939E+04 -6.5908E+03   9.1530E+04  0.000E+00  0.000E+00  0.000E+00  3.90379E+01  1.629E-01  2.000E+01  2.000E+04 -3.295E-01
   1   12   24     2     7    9.1530E+04 -5.3302E+03   9.6860E+04  0.000E+00  0.000E+00  0.000E+00  3.87944E+01  1.694E-01  2.000E+01  2.000E+04 -2.665E-01
   1   13   23     2     8    9.6860E+04 -3.7795E+03   1.0064E+05  0.000E+00  0.000E+00  0.000E+00  3.85493E+01  1.743E-01  2.000E+01  2.000E+04 -1.890E-01
   1   14   22     2     9    1.0064E+05  8.5096E+02   9.9789E+04  0.000E+00  0.000E+00  0.000E+00  3.83008E+01  1.758E-01  2.000E+01  2.000E+04  4.255E-02
   1   14   22     3     1    3.2339E+05 -9.1590E+03   3.3255E+05  0.000E+00  0.000E+00  0.000E+00  3.78003E+01  2.448E-01  2.000E+01  2.000E+04 -4.579E-01
   1   15   23     3     2    3.3255E+05 -5.3534E+03   3.3790E+05  0.000E+00  0.000E+00  0.000E+00  3.69147E+01  2.480E-01  2.000E+01  2.000E+04 -2.677E-01
   1   15   24     3     3    3.3790E+05 -4.0057E+03   3.4191E+05  0.000E+00  0.000E+00  0.000E+00  3.60279E+01  2.501E-01  2.000E+01  2.000E+04 -2.003E-01
   1   15   25     3     4    3.4191E+05 -4.0941E+03   3.4600E+05  0.000E+00  0.000E+00  0.000E+00  3.51408E+01  2.519E-01  2.000E+01  2.000E+04 -2.047E-01
   1   15   26     3     5    3.4600E+05 -5.5108E+03   3.5151E+05  0.000E+00  0.000E+00  0.000E+00  3.42540E+01  2.540E-01  2.000E+01  2.000E+04 -2.755E-01
   1   16   27     3     6    3.5151E+05 -6.9439E+03   3.5846E+05  0.000E+00  0.000E+00  0.000E+00  3.33678E+01  2.567E-01  2.000E+01  2.000E+04 -3.472E-01
   1   17   28     3     7    3.5846E+05 -7.6906E+03   3.6615E+05  0.000E+00  0.000E+00  0.000E+00  3.24821E+01  2.599E-01  2.000E+01  2.000E+04 -3.845E-01
   1   18   29     3     8    3.6615E+05 -8.7142E+03   3.7486E+05  0.000E+00  0.000E+00  0.000E+00  3.15967E+01  2.634E-01  2.000E+01  2.000E+04 -4.357E-01
   1   18   30     3     9    3.7486E+05 -7.3633E+03   3.8222E+05  0.000E+00  0.000E+00  0.000E+00  3.07112E+01  2.668E-01  2.000E+01  2.000E+04 -3.682E-01



1
              HEAD IN LAYER   1 AT END OF TIME STEP   1 IN STRESS PERIOD    1
  ---------------------------------------------------------------------------

          1      2      3      4      5      6      7      8      9     10
         11     12     13     14     15     16     17     18     19     20
         21     22     23     24     25     26     27     28     29     30
 .........................................................................
   1  ****** ****** ****** ****** ****** ****** ****** ****** ****** ******
      ****** ****** ****** ****** ****** ****** ****** ****** ****** ******
      ****** ****** ****** ****** ****** ****** ****** ****** ****** ******
   2  ****** ****** ****** ****** ****** ****** ****** ****** ****** ******
      ****** ****** ****** ****** ****** ****** ****** ****** ****** ******
      ****** ****** ****** ****** ****** ****** ****** ****** ****** ******
   3  ****** ****** ****** ****** ****** ****** ****** ****** ****** ******
      ****** ****** ****** ****** ****** ****** ****** ****** ****** ******
      ****** ****** ****** ****** ****** ****** ****** ****** ****** ******
   4  ****** ****** ****** ****** ****** ****** ****** ****** ****** ******
      ****** ****** ****** ****** ****** ****** ****** ****** ****** ******
      ****** ****** ****** ****** ****** ****** ****** ****** ****** ******
   5  ****** ****** ****** ****** ****** ****** ****** ****** ****** ******
      ****** ****** ****** ****** ****** ****** ****** ****** ****** ******
      ****** ****** ****** ****** ****** ****** ****** ****** ****** ******
   6  ****** ****** ****** ****** ****** ****** ****** ****** ****** ******
      ****** ****** ****** ****** ****** ****** ****** ****** ****** ******
      ****** ****** ****** ****** ****** ****** ****** ****** ****** ******
   7  ****** ****** ****** ****** ****** ****** ****** ****** ****** ******
      ****** ****** ****** ****** ****** ****** ****** ****** ****** ******
      ****** ****** ****** ****** ****** ****** ****** ****** ****** ******
   8  ****** ****** ****** ****** ****** ****** ****** ****** ****** ******
      ****** ****** ****** ****** ****** ****** ****** ****** ****** ******
      ****** ****** ****** ****** ****** ****** ****** ****** ****** ******
   9  ****** ****** ****** ****** ****** ****** ****** ****** ****** ******
      ****** ****** ****** ****** ****** ****** ****** ****** ****** ******
      ****** ****** ****** ****** ****** ****** ****** ****** ****** ******
  10  ****** ****** ****** ****** ****** ****** ****** ****** ****** ******
      ****** ****** ****** ****** ****** ****** ****** ****** ****** ******
      ****** ****** ****** ****** ****** ****** ****** ****** ****** ******
  11  ****** ****** ****** ****** ****** ****** ****** ****** ****** ******
      ****** ****** ****** ****** ****** ****** ****** ****** ****** ******
      ****** ****** ****** ****** ****** ****** ****** ****** ****** ******
  12  ****** ****** ****** ****** ****** ****** ****** ****** ****** ******
      ****** ****** ****** ****** ****** ****** ****** ****** ****** ******
      ****** ****** ****** ****** ****** ****** ****** ****** ****** ******
  13  ****** ****** ****** ****** ****** ****** ****** ****** ****** ******
      ****** ****** ****** ****** ****** ****** ****** ****** ****** ******
      ****** ****** ****** ****** ****** ****** ****** ****** ****** ******
  14  ****** ****** ****** ****** ****** ****** ****** ****** ****** ******
      ****** ****** ****** ****** ****** ****** ****** ****** ****** ******
      ****** ****** ****** ****** ****** ****** ****** ****** ****** ******
  15  ****** ****** ****** ****** ****** ****** ****** ****** ****** ******
      ****** ****** ****** ****** ****** ****** ****** ****** ****** ******
      ****** ****** ****** ****** ****** ****** ****** ****** ****** ******
  16  ****** ****** ****** ****** ****** ****** ****** ****** ****** ******
      ****** ****** ****** ****** ****** ****** ****** ****** ****** ******
      ****** ****** ****** ****** ****** ****** ****** ****** ****** ******
  17  ****** ****** ****** ****** ****** ****** ****** ****** ****** ******
      ****** ****** ****** ****** ****** ****** ****** ****** ****** ******
      ****** ****** ****** ****** ****** ****** ****** ****** ****** ******
  18  ****** ****** ****** ****** ****** ****** ****** ****** ****** ******
      ****** ****** ****** ****** ****** ****** ****** ****** ****** ******
      ****** ****** ****** ****** ****** ****** ****** ****** ****** ******
  19  ****** ****** ****** ****** ****** ****** ****** ****** ****** ******
      ****** ****** ****** ****** ****** ****** ****** ****** ****** ******
      ****** ****** ****** ****** ****** ****** ****** ****** ****** ******
  20  ****** ****** ****** ****** ****** ****** ****** ****** ****** ******
      ****** ****** ****** ****** ****** ****** ****** ****** ****** ******
      ****** ****** ****** ****** ****** ****** ****** ****** ****** ******
  21  ****** ****** ****** ****** ****** ****** ****** ****** ****** ******
      ****** ****** ****** ****** ****** ****** ****** ****** ****** ******
      ****** ****** ****** ****** ****** ****** ****** ****** ****** ******
  22  ****** ****** ****** ****** ****** ****** ****** ****** ****** ******
      ****** ****** ****** ****** ****** ****** ****** ****** ****** ******
      ****** ****** ****** ****** ****** ****** ****** ****** ****** ******
  23  ****** ****** ****** ****** ****** ****** ****** ****** ****** ******
      ****** ****** ****** ****** ****** ****** ****** ****** ****** ******
      ****** ****** ****** ****** ****** ****** ****** ****** ****** ******
  24  ****** ****** ****** ****** ****** ****** ****** ****** ****** ******
      ****** ****** ****** ****** ****** ****** ****** ****** ****** ******
      ****** ****** ****** ****** ****** ****** ****** ****** ****** ******
  25  ****** ****** ****** ****** ****** ****** ****** ****** ****** ******
      ****** ****** ****** ****** ****** ****** ****** ****** ****** ******
      ****** ****** ****** ****** ****** ****** ****** ****** ****** ******

 HEAD WILL BE SAVED ON UNIT   51 AT END OF TIME STEP    1, STRESS PERIOD    1
1
  VOLUMETRIC BUDGET FOR ENTIRE MODEL AT END OF TIME STEP    1, STRESS PERIOD   1
  ------------------------------------------------------------------------------

     CUMULATIVE VOLUMES      L**3       RATES FOR THIS TIME STEP      L**3/T
     ------------------                 ------------------------

           IN:                                      IN:
           ---                                      ---
             STORAGE =    17567225.8615               STORAGE =      190948.1072
       CONSTANT HEAD =    11632795.3683         CONSTANT HEAD =      126443.4279
               WELLS =           0.0000                 WELLS =           0.0000
            RECHARGE =     1269600.0000              RECHARGE =       13800.0000
      STREAM LEAKAGE =      475956.8489        STREAM LEAKAGE =        5173.4440

            TOTAL IN =    30945578.0787              TOTAL IN =      336364.9791

          OUT:                                     OUT:
          ----                                     ----
             STORAGE =           0.0000               STORAGE =           0.0000
       CONSTANT HEAD =           0.0000         CONSTANT HEAD =           0.0000
               WELLS =     9105008.3435                 WELLS =       98967.4820
            RECHARGE =           0.0000              RECHARGE =           0.0000
      STREAM LEAKAGE =    21840569.8938        STREAM LEAKAGE =      237397.4988

           TOTAL OUT =    30945578.2372             TOTAL OUT =      336364.9808

            IN - OUT =          -0.1586              IN - OUT =      -1.7237E-03

 PERCENT DISCREPANCY =          -0.00     PERCENT DISCREPANCY =          -0.00






         TIME SUMMARY AT END OF TIME STEP    1 IN STRESS PERIOD    1
                    SECONDS     MINUTES      HOURS       DAYS        YEARS
                    -----------------------------------------------------------
   TIME STEP LENGTH 7.94880E+06 1.32480E+05  2208.0      92.000     0.25188    
 STRESS PERIOD TIME 7.94880E+06 1.32480E+05  2208.0      92.000     0.25188    
         TOTAL TIME 7.94880E+06 1.32480E+05  2208.0      92.000     0.25188    
1
1
                            STRESS PERIOD NO.    2, LENGTH =   91.00000    
                            -----------------------------------------------

                              NUMBER OF TIME STEPS =     1

                               MULTIPLIER FOR DELT =     1.500

                            INITIAL TIME STEP SIZE =   91.00000    

 WELL NO.  LAYER   ROW   COL   STRESS RATE         
 --------------------------------------------------
      1      1     18     11     -0.3279E+05
      2      1     23     22     -0.3365E+05
      3      1     23     15     -0.3252E+05

      3 WELLS

                 RECHARGE =  2.000000E-03

 REUSING STREAM SEGMENT DATA FROM LAST STRESS PERIOD
 
 SOLVING FOR HEAD 


     7 CALLS TO PCG ROUTINE FOR TIME STEP   1 IN STRESS PERIOD    2
    27 TOTAL ITERATIONS

 OUTPUT CONTROL FOR STRESS PERIOD    2   TIME STEP    1
    SAVE BUDGET
    SAVE HEAD FOR ALL LAYERS
    PRINT HEAD FOR ALL LAYERS
 UBDSV2 SAVING "STREAMFLOW OUT  " ON UNIT  50 AT TIME STEP  1, STRESS PERIOD   2



 STREAM LISTING     PERIOD      2   STEP        1

 LAYER ROW COL. STREAM  RCH.  FLOW INTO     FLOW TO   FLOW OUT OF   OVRLND.     DIRECT     STREAM       STREAM     STREAM     STREAM   STREAMBED  STREAMBED
                SEG.NO.  NO.  STRM. RCH.    AQUIFER    STRM. RCH.    RUNOFF     PRECIP       ET          HEAD       DEPTH      WIDTH   CONDCTNC.   GRADIENT

   1   13    1     1     1    1.0000E+05 -3.7981E+03   1.0380E+05  0.000E+00  0.000E+00  0.000E+00  4.84077E+01  1.463E-01  2.000E+01  2.000E+04 -1.899E-01
   1   13    2     1     2    1.0380E+05 -6.1571E+03   1.0996E+05  0.000E+00  0.000E+00  0.000E+00  4.79346E+01  1.505E-01  2.000E+01  2.000E+04 -3.079E-01
   1   14    3     1     3    1.0996E+05 -5.0555E+03   1.1501E+05  0.000E+00  0.000E+00  0.000E+00  4.74620E+01  1.552E-01  2.000E+01  2.000E+04 -2.528E-01
   1   15    4     1     4    1.1501E+05 -4.8046E+03   1.1982E+05  0.000E+00  0.000E+00  0.000E+00  4.69888E+01  1.593E-01  2.000E+01  2.000E+04 -2.402E-01
   1   16    5     1     5    1.1982E+05 -4.6416E+03   1.2446E+05  0.000E+00  0.000E+00  0.000E+00  4.65154E+01  1.631E-01  2.000E+01  2.000E+04 -2.321E-01
   1   16    6     1     6    1.2446E+05 -3.5030E+03   1.2796E+05  0.000E+00  0.000E+00  0.000E+00  4.60413E+01  1.663E-01  2.000E+01  2.000E+04 -1.751E-01
   1   16    7     1     7    1.2796E+05 -3.2786E+03   1.3124E+05  0.000E+00  0.000E+00  0.000E+00  4.55667E+01  1.690E-01  2.000E+01  2.000E+04 -1.639E-01
   1   16    8     1     8    1.3124E+05 -2.7761E+03   1.3401E+05  0.000E+00  0.000E+00  0.000E+00  4.50918E+01  1.714E-01  2.000E+01  2.000E+04 -1.388E-01
   1   16    9     1     9    1.3401E+05 -1.8146E+03   1.3583E+05  0.000E+00  0.000E+00  0.000E+00  4.46163E+01  1.731E-01  2.000E+01  2.000E+04 -9.073E-02
   1   16   10     1    10    1.3583E+05 -1.8723E+02   1.3602E+05  0.000E+00  0.000E+00  0.000E+00  4.41398E+01  1.739E-01  2.000E+01  2.000E+04 -9.361E-03
   1   16   11     1    11    1.3602E+05  1.8244E+03   1.3419E+05  0.000E+00  0.000E+00  0.000E+00  4.36619E+01  1.733E-01  2.000E+01  2.000E+04  9.122E-02
   1   16   12     1    12    1.3419E+05  2.5266E+02   1.3394E+05  0.000E+00  0.000E+00  0.000E+00  4.31838E+01  1.725E-01  2.000E+01  2.000E+04  1.263E-02
   1   15   13     1    13    1.3394E+05 -3.2500E+03   1.3719E+05  0.000E+00  0.000E+00  0.000E+00  4.27077E+01  1.736E-01  2.000E+01  2.000E+04 -1.625E-01
   1   14   14     1    14    1.3719E+05 -4.3409E+03   1.4153E+05  0.000E+00  0.000E+00  0.000E+00  4.22333E+01  1.765E-01  2.000E+01  2.000E+04 -2.170E-01
   1   13   15     1    15    1.4153E+05 -5.0928E+03   1.4662E+05  0.000E+00  0.000E+00  0.000E+00  4.17596E+01  1.801E-01  2.000E+01  2.000E+04 -2.546E-01
   1   12   16     1    16    1.4662E+05 -6.6331E+03   1.5326E+05  0.000E+00  0.000E+00  0.000E+00  4.12867E+01  1.844E-01  2.000E+01  2.000E+04 -3.317E-01
   1   12   17     1    17    1.5326E+05 -4.2911E+03   1.5755E+05  0.000E+00  0.000E+00  0.000E+00  4.08135E+01  1.885E-01  2.000E+01  2.000E+04 -2.146E-01
   1   12   18     1    18    1.5755E+05 -4.1344E+03   1.6168E+05  0.000E+00  0.000E+00  0.000E+00  4.03392E+01  1.915E-01  2.000E+01  2.000E+04 -2.067E-01
   1   12   19     1    19    1.6168E+05 -5.4568E+03   1.6714E+05  0.000E+00  0.000E+00  0.000E+00  3.98654E+01  1.949E-01  2.000E+01  2.000E+04 -2.728E-01
   1   13   20     1    20    1.6714E+05 -3.5630E+03   1.7070E+05  0.000E+00  0.000E+00  0.000E+00  3.93913E+01  1.981E-01  2.000E+01  2.000E+04 -1.782E-01
   1   14   21     1    21    1.7070E+05 -2.4546E+03   1.7316E+05  0.000E+00  0.000E+00  0.000E+00  3.89161E+01  2.002E-01  2.000E+01  2.000E+04 -1.227E-01
   1   14   22     1    22    1.7316E+05  4.8769E+03   1.6828E+05  0.000E+00  0.000E+00  0.000E+00  3.84380E+01  1.994E-01  2.000E+01  2.000E+04  2.438E-01
   1    9   30     2     1    5.0000E+04 -3.4569E+03   5.3457E+04  0.000E+00  0.000E+00  0.000E+00  4.02433E+01  1.183E-01  2.000E+01  2.000E+04 -1.728E-01
   1    9   29     2     2    5.3457E+04 -3.7810E+03   5.7238E+04  0.000E+00  0.000E+00  0.000E+00  3.99981E+01  1.231E-01  2.000E+01  2.000E+04 -1.891E-01
   1    9   28     2     3    5.7238E+04 -4.1569E+03   6.1395E+04  0.000E+00  0.000E+00  0.000E+00  3.97534E+01  1.284E-01  2.000E+01  2.000E+04 -2.078E-01
   1    9   27     2     4    6.1395E+04 -7.1634E+03   6.8558E+04  0.000E+00  0.000E+00  0.000E+00  3.95106E+01  1.356E-01  2.000E+01  2.000E+04 -3.582E-01
   1   10   26     2     5    6.8558E+04 -4.8326E+03   7.3391E+04  0.000E+00  0.000E+00  0.000E+00  3.92680E+01  1.430E-01  2.000E+01  2.000E+04 -2.416E-01
   1   11   25     2     6    7.3391E+04 -3.7350E+03   7.7126E+04  0.000E+00  0.000E+00  0.000E+00  3.90231E+01  1.481E-01  2.000E+01  2.000E+04 -1.868E-01
   1   12   24     2     7    7.7126E+04 -2.7412E+03   7.9867E+04  0.000E+00  0.000E+00  0.000E+00  3.87769E+01  1.519E-01  2.000E+01  2.000E+04 -1.371E-01
   1   13   23     2     8    7.9867E+04 -1.6892E+03   8.1556E+04  0.000E+00  0.000E+00  0.000E+00  3.85294E+01  1.544E-01  2.000E+01  2.000E+04 -8.446E-02
   1   14   22     2     9    8.1556E+04  1.7050E+03   7.9851E+04  0.000E+00  0.000E+00  0.000E+00  3.82794E+01  1.544E-01  2.000E+01  2.000E+04  8.525E-02
   1   14   22     3     1    2.4813E+05 -8.5882E+03   2.5672E+05  0.000E+00  0.000E+00  0.000E+00  3.77648E+01  2.092E-01  2.000E+01  2.000E+04 -4.294E-01
   1   15   23     3     2    2.5672E+05 -2.8902E+03   2.5961E+05  0.000E+00  0.000E+00  0.000E+00  3.68787E+01  2.120E-01  2.000E+01  2.000E+04 -1.445E-01
   1   15   24     3     3    2.5961E+05 -2.1154E+03   2.6172E+05  0.000E+00  0.000E+00  0.000E+00  3.59911E+01  2.133E-01  2.000E+01  2.000E+04 -1.058E-01
   1   15   25     3     4    2.6172E+05 -2.1205E+03   2.6384E+05  0.000E+00  0.000E+00  0.000E+00  3.51032E+01  2.143E-01  2.000E+01  2.000E+04 -1.060E-01
   1   15   26     3     5    2.6384E+05 -2.8156E+03   2.6666E+05  0.000E+00  0.000E+00  0.000E+00  3.42155E+01  2.155E-01  2.000E+01  2.000E+04 -1.408E-01
   1   16   27     3     6    2.6666E+05 -3.7265E+03   2.7039E+05  0.000E+00  0.000E+00  0.000E+00  3.33282E+01  2.171E-01  2.000E+01  2.000E+04 -1.863E-01
   1   17   28     3     7    2.7039E+05 -4.5088E+03   2.7490E+05  0.000E+00  0.000E+00  0.000E+00  3.24413E+01  2.191E-01  2.000E+01  2.000E+04 -2.254E-01
   1   18   29     3     8    2.7490E+05 -6.0549E+03   2.8095E+05  0.000E+00  0.000E+00  0.000E+00  3.15550E+01  2.216E-01  2.000E+01  2.000E+04 -3.027E-01
   1   18   30     3     9    2.8095E+05 -5.1920E+03   2.8614E+05  0.000E+00  0.000E+00  0.000E+00  3.06688E+01  2.243E-01  2.000E+01  2.000E+04 -2.596E-01



1
              HEAD IN LAYER   1 AT END OF TIME STEP   1 IN STRESS PERIOD    2
  ---------------------------------------------------------------------------

          1      2      3      4      5      6      7      8      9     10
         11     12     13     14     15     16     17     18     19     20
         21     22     23     24     25     26     27     28     29     30
 .........................................................................
   1  ****** ****** ****** ****** ****** ****** ****** ****** ****** ******
      ****** ****** ****** ****** ****** ****** ****** ****** ****** ******
      ****** ****** ****** ****** ****** ****** ****** ****** ****** ******
   2  ****** ****** ****** ****** ****** ****** ****** ****** ****** ******
      ****** ****** ****** ****** ****** ****** ****** ****** ****** ******
      ****** ****** ****** ****** ****** ****** ****** ****** ****** ******
   3  ****** ****** ****** ****** ****** ****** ****** ****** ****** ******
      ****** ****** ****** ****** ****** ****** ****** ****** ****** ******
      ****** ****** ****** ****** ****** ****** ****** ****** ****** ******
   4  ****** ****** ****** ****** ****** ****** ****** ****** ****** ******
      ****** ****** ****** ****** ****** ****** ****** ****** ****** ******
      ****** ****** ****** ****** ****** ****** ****** ****** ****** ******
   5  ****** ****** ****** ****** ****** ****** ****** ****** ****** ******
      ****** ****** ****** ****** ****** ****** ****** ****** ****** ******
      ****** ****** ****** ****** ****** ****** ****** ****** ****** ******
   6  ****** ****** ****** ****** ****** ****** ****** ****** ****** ******
      ****** ****** ****** ****** ****** ****** ****** ****** ****** ******
      ****** ****** ****** ****** ****** ****** ****** ****** ****** ******
   7  ****** ****** ****** ****** ****** ****** ****** ****** ****** ******
      ****** ****** ****** ****** ****** ****** ****** ****** ****** ******
      ****** ****** ****** ****** ****** ****** ****** ****** ****** ******
   8  ****** ****** ****** ****** ****** ****** ****** ****** ****** ******
      ****** ****** ****** ****** ****** ****** ****** ****** ****** ******
      ****** ****** ****** ****** ****** ****** ****** ****** ****** ******
   9  ****** ****** ****** ****** ****** ****** ****** ****** ****** ******
      ****** ****** ****** ****** ****** ****** ****** ****** ****** ******
      ****** ****** ****** ****** ****** ****** ****** ****** ****** ******
  10  ****** ****** ****** ****** ****** ****** ****** ****** ****** ******
      ****** ****** ****** ****** ****** ****** ****** ****** ****** ******
      ****** ****** ****** ****** ****** ****** ****** ****** ****** ******
  11  ****** ****** ****** ****** ****** ****** ****** ****** ****** ******
      ****** ****** ****** ****** ****** ****** ****** ****** ****** ******
      ****** ****** ****** ****** ****** ****** ****** ****** ****** ******
  12  ****** ****** ****** ****** ****** ****** ****** ****** ****** ******
      ****** ****** ****** ****** ****** ****** ****** ****** ****** ******
      ****** ****** ****** ****** ****** ****** ****** ****** ****** ******
  13  ****** ****** ****** ****** ****** ****** ****** ****** ****** ******
      ****** ****** ****** ****** ****** ****** ****** ****** ****** ******
      ****** ****** ****** ****** ****** ****** ****** ****** ****** ******
  14  ****** ****** ****** ****** ****** ****** ****** ****** ****** ******
      ****** ****** ****** ****** ****** ****** ****** ****** ****** ******
      ****** ****** ****** ****** ****** ****** ****** ****** ****** ******
  15  ****** ****** ****** ****** ****** ****** ****** ****** ****** ******
      ****** ****** ****** ****** ****** ****** ****** ****** ****** ******
      ****** ****** ****** ****** ****** ****** ****** ****** ****** ******
  16  ****** ****** ****** ****** ****** ****** ****** ****** ****** ******
      ****** ****** ****** ****** ****** ****** ****** ****** ****** ******
      ****** ****** ****** ****** ****** ****** ****** ****** ****** ******
  17  ****** ****** ****** ****** ****** ****** ****** ****** ****** ******
      ****** ****** ****** ****** ****** ****** ****** ****** ****** ******
      ****** ****** ****** ****** ****** ****** ****** ****** ****** ******
  18  ****** ****** ****** ****** ****** ****** ****** ****** ****** ******
      ****** ****** ****** ****** ****** ****** ****** ****** ****** ******
      ****** ****** ****** ****** ****** ****** ****** ****** ****** ******
  19  ****** ****** ****** ****** ****** ****** ****** ****** ****** ******
      ****** ****** ****** ****** ****** ****** ****** ****** ****** ******
      ****** ****** ****** ****** ****** ****** ****** ****** ****** ******
  20  ****** ****** ****** ****** ****** ****** ****** ****** ****** ******
      ****** ****** ****** ****** ****** ****** ****** ****** ****** ******
      ****** ****** ****** ****** ****** ****** ****** ****** ****** ******
  21  ****** ****** ****** ****** ****** ****** ****** ****** ****** ******
      ****** ****** ****** ****** ****** ****** ****** ****** ****** ******
      ****** ****** ****** ****** ****** ****** ****** ****** ****** ******
  22  ****** ****** ****** ****** ****** ****** ****** ****** ****** ******
      ****** ****** ****** ****** ****** ****** ****** ****** ****** ******
      ****** ****** ****** ****** ****** ****** ****** ****** ****** ******
  23  ****** ****** ****** ****** ****** ****** ****** ****** ****** ******
      ****** ****** ****** ****** ****** ****** ****** ****** ****** ******
      ****** ****** ****** ****** ****** ****** ****** ****** ****** ******
  24  ****** ****** ****** ****** ****** ****** ****** ****** ****** ******
      ****** ****** ****** ****** ****** ****** ****** ****** ****** ******
      ****** ****** ****** ****** ****** ****** ****** ****** ****** ******
  25  ****** ****** ****** ****** ****** ****** ****** ****** ****** ******
      ****** ****** ****** ****** ****** ****** ****** ****** ****** ******
      ****** ****** ****** ****** ****** ****** ****** ****** ****** ******

 HEAD WILL BE SAVED ON UNIT   51 AT END OF TIME STEP    1, STRESS PERIOD    2
1
  VOLUMETRIC BUDGET FOR ENTIRE MODEL AT END OF TIME STEP    1, STRESS PERIOD   2
  ------------------------------------------------------------------------------

     CUMULATIVE VOLUMES      L**3       RATES FOR THIS TIME STEP      L**3/T
     ------------------                 ------------------------

           IN:                                      IN:
           ---                                      ---
             STORAGE =    20652541.8299               STORAGE =       33904.5711
       CONSTANT HEAD =    24919298.5312         CONSTANT HEAD =      146005.5293
               WELLS =           0.0000                 WELLS =           0.0000
            RECHARGE =     6292800.0000              RECHARGE =       55200.0000
      STREAM LEAKAGE =     1263925.2084        STREAM LEAKAGE =        8658.9930

            TOTAL IN =    53128565.5695              TOTAL IN =      243769.0933

          OUT:                                     OUT:
          ----                                     ----
             STORAGE =           0.0000               STORAGE =           0.0000
       CONSTANT HEAD =           0.0000         CONSTANT HEAD =           0.0000
               WELLS =    18111049.2050                 WELLS =       98967.4820
            RECHARGE =           0.0000              RECHARGE =           0.0000
      STREAM LEAKAGE =    35017517.0297        STREAM LEAKAGE =      144801.6169

           TOTAL OUT =    53128566.2346             TOTAL OUT =      243769.0989

            IN - OUT =          -0.6651              IN - OUT =      -5.5663E-03

 PERCENT DISCREPANCY =          -0.00     PERCENT DISCREPANCY =          -0.00






         TIME SUMMARY AT END OF TIME STEP    1 IN STRESS PERIOD    2
                    SECONDS     MINUTES      HOURS       DAYS        YEARS
                    -----------------------------------------------------------
   TIME STEP LENGTH 7.86240E+06 1.31040E+05  2184.0      91.000     0.24914    
 STRESS PERIOD TIME 7.86240E+06 1.31040E+05  2184.0      91.000     0.24914    
         TOTAL TIME 1.58112E+07 2.63520E+05  4392.0      183.00     0.50103    
1
1
                            STRESS PERIOD NO.    3, LENGTH =   91.00000    
                            -----------------------------------------------

                              NUMBER OF TIME STEPS =     1

                               MULTIPLIER FOR DELT =     1.500

                            INITIAL TIME STEP SIZE =   91.00000    

 WELL NO.  LAYER   ROW   COL   STRESS RATE         
 --------------------------------------------------
      1      1     18     11     -0.3279E+05
      2      1     23     22     -0.3365E+05
      3      1     23     15     -0.3252E+05

      3 WELLS

                 RECHARGE =   0.00000    

 REUSING STREAM SEGMENT DATA FROM LAST STRESS PERIOD
 
 SOLVING FOR HEAD 


     7 CALLS TO PCG ROUTINE FOR TIME STEP   1 IN STRESS PERIOD    3
    27 TOTAL ITERATIONS

 OUTPUT CONTROL FOR STRESS PERIOD    3   TIME STEP    1
    SAVE BUDGET
    SAVE HEAD FOR ALL LAYERS
    PRINT HEAD FOR ALL LAYERS
 UBDSV2 SAVING "STREAMFLOW OUT  " ON UNIT  50 AT TIME STEP  1, STRESS PERIOD   3



 STREAM LISTING     PERIOD      3   STEP        1

 LAYER ROW COL. STREAM  RCH.  FLOW INTO     FLOW TO   FLOW OUT OF   OVRLND.     DIRECT     STREAM       STREAM     STREAM     STREAM   STREAMBED  STREAMBED
                SEG.NO.  NO.  STRM. RCH.    AQUIFER    STRM. RCH.    RUNOFF     PRECIP       ET          HEAD       DEPTH      WIDTH   CONDCTNC.   GRADIENT

   1   13    1     1     1    1.0000E+05 -2.8775E+03   1.0288E+05  0.000E+00  0.000E+00  0.000E+00  4.84073E+01  1.459E-01  2.000E+01  2.000E+04 -1.439E-01
   1   13    2     1     2    1.0288E+05 -4.9027E+03   1.0778E+05  0.000E+00  0.000E+00  0.000E+00  4.79333E+01  1.492E-01  2.000E+01  2.000E+04 -2.451E-01
   1   14    3     1     3    1.0778E+05 -3.7955E+03   1.1158E+05  0.000E+00  0.000E+00  0.000E+00  4.74597E+01  1.529E-01  2.000E+01  2.000E+04 -1.898E-01
   1   15    4     1     4    1.1158E+05 -3.5539E+03   1.1513E+05  0.000E+00  0.000E+00  0.000E+00  4.69855E+01  1.559E-01  2.000E+01  2.000E+04 -1.777E-01
   1   16    5     1     5    1.1513E+05 -3.4741E+03   1.1860E+05  0.000E+00  0.000E+00  0.000E+00  4.65111E+01  1.588E-01  2.000E+01  2.000E+04 -1.737E-01
   1   16    6     1     6    1.1860E+05 -2.5801E+03   1.2118E+05  0.000E+00  0.000E+00  0.000E+00  4.60363E+01  1.613E-01  2.000E+01  2.000E+04 -1.290E-01
   1   16    7     1     7    1.2118E+05 -2.3249E+03   1.2351E+05  0.000E+00  0.000E+00  0.000E+00  4.55610E+01  1.633E-01  2.000E+01  2.000E+04 -1.162E-01
   1   16    8     1     8    1.2351E+05 -1.7962E+03   1.2530E+05  0.000E+00  0.000E+00  0.000E+00  4.50854E+01  1.649E-01  2.000E+01  2.000E+04 -8.981E-02
   1   16    9     1     9    1.2530E+05 -8.1713E+02   1.2612E+05  0.000E+00  0.000E+00  0.000E+00  4.46091E+01  1.659E-01  2.000E+01  2.000E+04 -4.086E-02
   1   16   10     1    10    1.2612E+05  8.1923E+02   1.2530E+05  0.000E+00  0.000E+00  0.000E+00  4.41318E+01  1.659E-01  2.000E+01  2.000E+04  4.096E-02
   1   16   11     1    11    1.2530E+05  2.8381E+03   1.2246E+05  0.000E+00  0.000E+00  0.000E+00  4.36531E+01  1.645E-01  2.000E+01  2.000E+04  1.419E-01
   1   16   12     1    12    1.2246E+05  1.6445E+03   1.2082E+05  0.000E+00  0.000E+00  0.000E+00  4.31741E+01  1.627E-01  2.000E+01  2.000E+04  8.223E-02
   1   15   13     1    13    1.2082E+05 -1.8039E+03   1.2262E+05  0.000E+00  0.000E+00  0.000E+00  4.26969E+01  1.628E-01  2.000E+01  2.000E+04 -9.019E-02
   1   14   14     1    14    1.2262E+05 -2.8957E+03   1.2552E+05  0.000E+00  0.000E+00  0.000E+00  4.22215E+01  1.646E-01  2.000E+01  2.000E+04 -1.448E-01
   1   13   15     1    15    1.2552E+05 -3.7096E+03   1.2923E+05  0.000E+00  0.000E+00  0.000E+00  4.17468E+01  1.673E-01  2.000E+01  2.000E+04 -1.855E-01
   1   12   16     1    16    1.2923E+05 -5.3514E+03   1.3458E+05  0.000E+00  0.000E+00  0.000E+00  4.12731E+01  1.708E-01  2.000E+01  2.000E+04 -2.676E-01
   1   12   17     1    17    1.3458E+05 -3.3466E+03   1.3793E+05  0.000E+00  0.000E+00  0.000E+00  4.07992E+01  1.742E-01  2.000E+01  2.000E+04 -1.673E-01
   1   12   18     1    18    1.3793E+05 -3.2110E+03   1.4114E+05  0.000E+00  0.000E+00  0.000E+00  4.03244E+01  1.767E-01  2.000E+01  2.000E+04 -1.606E-01
   1   12   19     1    19    1.4114E+05 -4.3520E+03   1.4549E+05  0.000E+00  0.000E+00  0.000E+00  3.98500E+01  1.795E-01  2.000E+01  2.000E+04 -2.176E-01
   1   13   20     1    20    1.4549E+05 -2.4555E+03   1.4795E+05  0.000E+00  0.000E+00  0.000E+00  3.93752E+01  1.821E-01  2.000E+01  2.000E+04 -1.228E-01
   1   14   21     1    21    1.4795E+05 -1.3623E+03   1.4931E+05  0.000E+00  0.000E+00  0.000E+00  3.88994E+01  1.835E-01  2.000E+01  2.000E+04 -6.811E-02
   1   14   22     1    22    1.4931E+05  5.0384E+03   1.4427E+05  0.000E+00  0.000E+00  0.000E+00  3.84207E+01  1.821E-01  2.000E+01  2.000E+04  2.519E-01
   1    9   30     2     1    5.0000E+04 -2.6898E+03   5.2690E+04  0.000E+00  0.000E+00  0.000E+00  4.02427E+01  1.177E-01  2.000E+01  2.000E+04 -1.345E-01
   1    9   29     2     2    5.2690E+04 -3.0240E+03   5.5714E+04  0.000E+00  0.000E+00  0.000E+00  3.99966E+01  1.216E-01  2.000E+01  2.000E+04 -1.512E-01
   1    9   28     2     3    5.5714E+04 -3.4110E+03   5.9125E+04  0.000E+00  0.000E+00  0.000E+00  3.97509E+01  1.259E-01  2.000E+01  2.000E+04 -1.705E-01
   1    9   27     2     4    5.9125E+04 -6.1559E+03   6.5281E+04  0.000E+00  0.000E+00  0.000E+00  3.95071E+01  1.321E-01  2.000E+01  2.000E+04 -3.078E-01
   1   10   26     2     5    6.5281E+04 -3.7666E+03   6.9047E+04  0.000E+00  0.000E+00  0.000E+00  3.92633E+01  1.383E-01  2.000E+01  2.000E+04 -1.883E-01
   1   11   25     2     6    6.9047E+04 -2.7186E+03   7.1766E+04  0.000E+00  0.000E+00  0.000E+00  3.90173E+01  1.423E-01  2.000E+01  2.000E+04 -1.359E-01
   1   12   24     2     7    7.1766E+04 -1.8683E+03   7.3634E+04  0.000E+00  0.000E+00  0.000E+00  3.87700E+01  1.450E-01  2.000E+01  2.000E+04 -9.342E-02
   1   13   23     2     8    7.3634E+04 -1.0422E+03   7.4676E+04  0.000E+00  0.000E+00  0.000E+00  3.85218E+01  1.468E-01  2.000E+01  2.000E+04 -5.211E-02
   1   14   22     2     9    7.4676E+04  2.0470E+03   7.2629E+04  0.000E+00  0.000E+00  0.000E+00  3.82712E+01  1.462E-01  2.000E+01  2.000E+04  1.023E-01
   1   14   22     3     1    2.1690E+05 -8.4011E+03   2.2530E+05  0.000E+00  0.000E+00  0.000E+00  3.77488E+01  1.932E-01  2.000E+01  2.000E+04 -4.201E-01
   1   15   23     3     2    2.2530E+05 -1.8705E+03   2.2717E+05  0.000E+00  0.000E+00  0.000E+00  3.68626E+01  1.959E-01  2.000E+01  2.000E+04 -9.352E-02
   1   15   24     3     3    2.2717E+05 -1.4453E+03   2.2862E+05  0.000E+00  0.000E+00  0.000E+00  3.59745E+01  1.968E-01  2.000E+01  2.000E+04 -7.226E-02
   1   15   25     3     4    2.2862E+05 -1.4695E+03   2.3009E+05  0.000E+00  0.000E+00  0.000E+00  3.50864E+01  1.975E-01  2.000E+01  2.000E+04 -7.348E-02
   1   15   26     3     5    2.3009E+05 -1.9644E+03   2.3205E+05  0.000E+00  0.000E+00  0.000E+00  3.41984E+01  1.984E-01  2.000E+01  2.000E+04 -9.822E-02
   1   16   27     3     6    2.3205E+05 -2.6195E+03   2.3467E+05  0.000E+00  0.000E+00  0.000E+00  3.33107E+01  1.996E-01  2.000E+01  2.000E+04 -1.310E-01
   1   17   28     3     7    2.3467E+05 -3.3877E+03   2.3806E+05  0.000E+00  0.000E+00  0.000E+00  3.24233E+01  2.011E-01  2.000E+01  2.000E+04 -1.694E-01
   1   18   29     3     8    2.3806E+05 -5.0257E+03   2.4308E+05  0.000E+00  0.000E+00  0.000E+00  3.15366E+01  2.033E-01  2.000E+01  2.000E+04 -2.513E-01
   1   18   30     3     9    2.4308E+05 -4.4440E+03   2.4753E+05  0.000E+00  0.000E+00  0.000E+00  3.06501E+01  2.056E-01  2.000E+01  2.000E+04 -2.222E-01



1
              HEAD IN LAYER   1 AT END OF TIME STEP   1 IN STRESS PERIOD    3
  ---------------------------------------------------------------------------

          1      2      3      4      5      6      7      8      9     10
         11     12     13     14     15     16     17     18     19     20
         21     22     23     24     25     26     27     28     29     30
 .........................................................................
   1  ****** ****** ****** ****** ****** ****** ****** ****** ****** ******
      ****** ****** ****** ****** ****** ****** ****** ****** ****** ******
      ****** ****** ****** ****** ****** ****** ****** ****** ****** ******
   2  ****** ****** ****** ****** ****** ****** ****** ****** ****** ******
      ****** ****** ****** ****** ****** ****** ****** ****** ****** ******
      ****** ****** ****** ****** ****** ****** ****** ****** ****** ******
   3  ****** ****** ****** ****** ****** ****** ****** ****** ****** ******
      ****** ****** ****** ****** ****** ****** ****** ****** ****** ******
      ****** ****** ****** ****** ****** ****** ****** ****** ****** ******
   4  ****** ****** ****** ****** ****** ****** ****** ****** ****** ******
      ****** ****** ****** ****** ****** ****** ****** ****** ****** ******
      ****** ****** ****** ****** ****** ****** ****** ****** ****** ******
   5  ****** ****** ****** ****** ****** ****** ****** ****** ****** ******
      ****** ****** ****** ****** ****** ****** ****** ****** ****** ******
      ****** ****** ****** ****** ****** ****** ****** ****** ****** ******
   6  ****** ****** ****** ****** ****** ****** ****** ****** ****** ******
      ****** ****** ****** ****** ****** ****** ****** ****** ****** ******
      ****** ****** ****** ****** ****** ****** ****** ****** ****** ******
   7  ****** ****** ****** ****** ****** ****** ****** ****** ****** ******
      ****** ****** ****** ****** ****** ****** ****** ****** ****** ******
      ****** ****** ****** ****** ****** ****** ****** ****** ****** ******
   8  ****** ****** ****** ****** ****** ****** ****** ****** ****** ******
      ****** ****** ****** ****** ****** ****** ****** ****** ****** ******
      ****** ****** ****** ****** ****** ****** ****** ****** ****** ******
   9  ****** ****** ****** ****** ****** ****** ****** ****** ****** ******
      ****** ****** ****** ****** ****** ****** ****** ****** ****** ******
      ****** ****** ****** ****** ****** ****** ****** ****** ****** ******
  10  ****** ****** ****** ****** ****** ****** ****** ****** ****** ******
      ****** ****** ****** ****** ****** ****** ****** ****** ****** ******
      ****** ****** ****** ****** ****** ****** ****** ****** ****** ******
  11  ****** ****** ****** ****** ****** ****** ****** ****** ****** ******
      ****** ****** ****** ****** ****** ****** ****** ****** ****** ******
      ****** ****** ****** ****** ****** ****** ****** ****** ****** ******
  12  ****** ****** ****** ****** ****** ****** ****** ****** ****** ******
      ****** ****** ****** ****** ****** ****** ****** ****** ****** ******
      ****** ****** ****** ****** ****** ****** ****** ****** ****** ******
  13  ****** ****** ****** ****** ****** ****** ****** ****** ****** ******
      ****** ****** ****** ****** ****** ****** ****** ****** ****** ******
      ****** ****** ****** ****** ****** ****** ****** ****** ****** ******
  14  ****** ****** ****** ****** ****** ****** ****** ****** ****** ******
      ****** ****** ****** ****** ****** ****** ****** ****** ****** ******
      ****** ****** ****** ****** ****** ****** ****** ****** ****** ******
  15  ****** ****** ****** ****** ****** ****** ****** ****** ****** ******
      ****** ****** ****** ****** ****** ****** ****** ****** ****** ******
      ****** ****** ****** ****** ****** ****** ****** ****** ****** ******
  16  ****** ****** ****** ****** ****** ****** ****** ****** ****** ******
      ****** ****** ****** ****** ****** ****** ****** ****** ****** ******
      ****** ****** ****** ****** ****** ****** ****** ****** ****** ******
  17  ****** ****** ****** ****** ****** ****** ****** ****** ****** ******
      ****** ****** ****** ****** ****** ****** ****** ****** ****** ******
      ****** ****** ****** ****** ****** ****** ****** ****** ****** ******
  18  ****** ****** ****** ****** ****** ****** ****** ****** ****** ******
      ****** ****** ****** ****** ****** ****** ****** ****** ****** ******
      ****** ****** ****** ****** ****** ****** ****** ****** ****** ******
  19  ****** ****** ****** ****** ****** ****** ****** ****** ****** ******
      ****** ****** ****** ****** ****** ****** ****** ****** ****** ******
      ****** ****** ****** ****** ****** ****** ****** ****** ****** ******
  20  ****** ****** ****** ****** ****** ****** ****** ****** ****** ******
      ****** ****** ****** ****** ****** ****** ****** ****** ****** ******
      ****** ****** ****** ****** ****** ****** ****** ****** ****** ******
  21  ****** ****** ****** ****** ****** ****** ****** ****** ****** ******
      ****** ****** ****** ****** ****** ****** ****** ****** ****** ******
      ****** ****** ****** ****** ****** ****** ****** ****** ****** ******
  22  ****** ****** ****** ****** ****** ****** ****** ****** ****** ******
      ****** ****** ****** ****** ****** ****** ****** ****** ****** ******
      ****** ****** ****** ****** ****** ****** ****** ****** ****** ******
  23  ****** ****** ****** ****** ****** ****** ****** ****** ****** ******
      ****** ****** ****** ****** ****** ****** ****** ****** ****** ******
      ****** ****** ****** ****** ****** ****** ****** ****** ****** ******
  24  ****** ****** ****** ****** ****** ****** ****** ****** ****** ******
      ****** ****** ****** ****** ****** ****** ****** ****** ****** ******
      ****** ****** ****** ****** ****** ****** ****** ****** ****** ******
  25  ****** ****** ****** ****** ****** ****** ****** ****** ****** ******
      ****** ****** ****** ****** ****** ****** ****** ****** ****** ******
      ****** ****** ****** ****** ****** ****** ****** ****** ****** ******

 HEAD WILL BE SAVED ON UNIT   51 AT END OF TIME STEP    1, STRESS PERIOD    3
1
  VOLUMETRIC BUDGET FOR ENTIRE MODEL AT END OF TIME STEP    1, STRESS PERIOD   3
  ------------------------------------------------------------------------------

     CUMULATIVE VOLUMES      L**3       RATES FOR THIS TIME STEP      L**3/T
     ------------------                 ------------------------

           IN:                                      IN:
           ---                                      ---
             STORAGE =    23054680.5616               STORAGE =       26397.1289
       CONSTANT HEAD =    40398133.5259         CONSTANT HEAD =      170097.0879
               WELLS =           0.0000                 WELLS =           0.0000
            RECHARGE =     6292800.0000              RECHARGE =           0.0000
      STREAM LEAKAGE =     2391161.3255        STREAM LEAKAGE =       12387.2101

            TOTAL IN =    72136775.4130              TOTAL IN =      208881.4269

          OUT:                                     OUT:
          ----                                     ----
             STORAGE =           0.0000               STORAGE =           0.0000
       CONSTANT HEAD =           0.0000         CONSTANT HEAD =           0.0000
               WELLS =    27117090.0664                 WELLS =       98967.4820
            RECHARGE =           0.0000              RECHARGE =           0.0000
      STREAM LEAKAGE =    45019686.2764        STREAM LEAKAGE =      109913.9478

           TOTAL OUT =    72136776.3429             TOTAL OUT =      208881.4298

            IN - OUT =          -0.9298              IN - OUT =      -2.9090E-03

 PERCENT DISCREPANCY =          -0.00     PERCENT DISCREPANCY =          -0.00






         TIME SUMMARY AT END OF TIME STEP    1 IN STRESS PERIOD    3
                    SECONDS     MINUTES      HOURS       DAYS        YEARS
                    -----------------------------------------------------------
   TIME STEP LENGTH 7.86240E+06 1.31040E+05  2184.0      91.000     0.24914    
 STRESS PERIOD TIME 7.86240E+06 1.31040E+05  2184.0      91.000     0.24914    
         TOTAL TIME 2.36736E+07 3.94560E+05  6576.0      274.00     0.75017    
1
1
                            STRESS PERIOD NO.    4, LENGTH =   91.00000    
                            -----------------------------------------------

                              NUMBER OF TIME STEPS =     1

                               MULTIPLIER FOR DELT =     1.500

                            INITIAL TIME STEP SIZE =   91.00000    

 WELL NO.  LAYER   ROW   COL   STRESS RATE         
 --------------------------------------------------
      1      1     18     11     -0.3279E+05
      2      1     23     22     -0.3365E+05
      3      1     23     15     -0.3252E+05

      3 WELLS

                 RECHARGE =  1.000000E-03

 REUSING STREAM SEGMENT DATA FROM LAST STRESS PERIOD
 
 SOLVING FOR HEAD 


     6 CALLS TO PCG ROUTINE FOR TIME STEP   1 IN STRESS PERIOD    4
    21 TOTAL ITERATIONS

 OUTPUT CONTROL FOR STRESS PERIOD    4   TIME STEP    1
    SAVE BUDGET
    SAVE HEAD FOR ALL LAYERS
    PRINT HEAD FOR ALL LAYERS
 UBDSV2 SAVING "STREAMFLOW OUT  " ON UNIT  50 AT TIME STEP  1, STRESS PERIOD   4



 STREAM LISTING     PERIOD      4   STEP        1

 LAYER ROW COL. STREAM  RCH.  FLOW INTO     FLOW TO   FLOW OUT OF   OVRLND.     DIRECT     STREAM       STREAM     STREAM     STREAM   STREAMBED  STREAMBED
                SEG.NO.  NO.  STRM. RCH.    AQUIFER    STRM. RCH.    RUNOFF     PRECIP       ET          HEAD       DEPTH      WIDTH   CONDCTNC.   GRADIENT

   1   13    1     1     1    1.0000E+05 -2.8976E+03   1.0290E+05  0.000E+00  0.000E+00  0.000E+00  4.84073E+01  1.459E-01  2.000E+01  2.000E+04 -1.449E-01
   1   13    2     1     2    1.0290E+05 -4.8942E+03   1.0779E+05  0.000E+00  0.000E+00  0.000E+00  4.79333E+01  1.492E-01  2.000E+01  2.000E+04 -2.447E-01
   1   14    3     1     3    1.0779E+05 -3.8372E+03   1.1163E+05  0.000E+00  0.000E+00  0.000E+00  4.74597E+01  1.529E-01  2.000E+01  2.000E+04 -1.919E-01
   1   15    4     1     4    1.1163E+05 -3.6086E+03   1.1524E+05  0.000E+00  0.000E+00  0.000E+00  4.69856E+01  1.560E-01  2.000E+01  2.000E+04 -1.804E-01
   1   16    5     1     5    1.1524E+05 -3.5272E+03   1.1876E+05  0.000E+00  0.000E+00  0.000E+00  4.65112E+01  1.589E-01  2.000E+01  2.000E+04 -1.764E-01
   1   16    6     1     6    1.1876E+05 -2.6192E+03   1.2138E+05  0.000E+00  0.000E+00  0.000E+00  4.60364E+01  1.614E-01  2.000E+01  2.000E+04 -1.310E-01
   1   16    7     1     7    1.2138E+05 -2.3584E+03   1.2374E+05  0.000E+00  0.000E+00  0.000E+00  4.55612E+01  1.634E-01  2.000E+01  2.000E+04 -1.179E-01
   1   16    8     1     8    1.2374E+05 -1.8249E+03   1.2557E+05  0.000E+00  0.000E+00  0.000E+00  4.50856E+01  1.651E-01  2.000E+01  2.000E+04 -9.125E-02
   1   16    9     1     9    1.2557E+05 -8.4180E+02   1.2641E+05  0.000E+00  0.000E+00  0.000E+00  4.46093E+01  1.662E-01  2.000E+01  2.000E+04 -4.209E-02
   1   16   10     1    10    1.2641E+05  7.9801E+02   1.2561E+05  0.000E+00  0.000E+00  0.000E+00  4.41321E+01  1.662E-01  2.000E+01  2.000E+04  3.990E-02
   1   16   11     1    11    1.2561E+05  2.8214E+03   1.2279E+05  0.000E+00  0.000E+00  0.000E+00  4.36534E+01  1.647E-01  2.000E+01  2.000E+04  1.411E-01
   1   16   12     1    12    1.2279E+05  1.6533E+03   1.2114E+05  0.000E+00  0.000E+00  0.000E+00  4.31743E+01  1.630E-01  2.000E+01  2.000E+04  8.266E-02
   1   15   13     1    13    1.2114E+05 -1.8071E+03   1.2294E+05  0.000E+00  0.000E+00  0.000E+00  4.26971E+01  1.630E-01  2.000E+01  2.000E+04 -9.036E-02
   1   14   14     1    14    1.2294E+05 -2.9005E+03   1.2584E+05  0.000E+00  0.000E+00  0.000E+00  4.22217E+01  1.649E-01  2.000E+01  2.000E+04 -1.450E-01
   1   13   15     1    15    1.2584E+05 -3.7196E+03   1.2956E+05  0.000E+00  0.000E+00  0.000E+00  4.17471E+01  1.675E-01  2.000E+01  2.000E+04 -1.860E-01
   1   12   16     1    16    1.2956E+05 -5.3492E+03   1.3491E+05  0.000E+00  0.000E+00  0.000E+00  4.12733E+01  1.711E-01  2.000E+01  2.000E+04 -2.675E-01
   1   12   17     1    17    1.3491E+05 -3.3705E+03   1.3828E+05  0.000E+00  0.000E+00  0.000E+00  4.07994E+01  1.744E-01  2.000E+01  2.000E+04 -1.685E-01
   1   12   18     1    18    1.3828E+05 -3.2431E+03   1.4153E+05  0.000E+00  0.000E+00  0.000E+00  4.03247E+01  1.769E-01  2.000E+01  2.000E+04 -1.622E-01
   1   12   19     1    19    1.4153E+05 -4.4030E+03   1.4593E+05  0.000E+00  0.000E+00  0.000E+00  3.98503E+01  1.798E-01  2.000E+01  2.000E+04 -2.201E-01
   1   13   20     1    20    1.4593E+05 -2.5205E+03   1.4845E+05  0.000E+00  0.000E+00  0.000E+00  3.93756E+01  1.824E-01  2.000E+01  2.000E+04 -1.260E-01
   1   14   21     1    21    1.4845E+05 -1.3909E+03   1.4984E+05  0.000E+00  0.000E+00  0.000E+00  3.88998E+01  1.839E-01  2.000E+01  2.000E+04 -6.954E-02
   1   14   22     1    22    1.4984E+05  5.0087E+03   1.4483E+05  0.000E+00  0.000E+00  0.000E+00  3.84212E+01  1.825E-01  2.000E+01  2.000E+04  2.504E-01
   1    9   30     2     1    5.0000E+04 -2.8020E+03   5.2802E+04  0.000E+00  0.000E+00  0.000E+00  4.02428E+01  1.178E-01  2.000E+01  2.000E+04 -1.401E-01
   1    9   29     2     2    5.2802E+04 -3.1346E+03   5.5937E+04  0.000E+00  0.000E+00  0.000E+00  3.99968E+01  1.218E-01  2.000E+01  2.000E+04 -1.567E-01
   1    9   28     2     3    5.5937E+04 -3.5174E+03   5.9454E+04  0.000E+00  0.000E+00  0.000E+00  3.97513E+01  1.263E-01  2.000E+01  2.000E+04 -1.759E-01
   1    9   27     2     4    5.9454E+04 -6.2664E+03   6.5720E+04  0.000E+00  0.000E+00  0.000E+00  3.95076E+01  1.326E-01  2.000E+01  2.000E+04 -3.133E-01
   1   10   26     2     5    6.5720E+04 -3.8954E+03   6.9616E+04  0.000E+00  0.000E+00  0.000E+00  3.92639E+01  1.389E-01  2.000E+01  2.000E+04 -1.948E-01
   1   11   25     2     6    6.9616E+04 -2.8483E+03   7.2464E+04  0.000E+00  0.000E+00  0.000E+00  3.90180E+01  1.430E-01  2.000E+01  2.000E+04 -1.424E-01
   1   12   24     2     7    7.2464E+04 -1.9950E+03   7.4459E+04  0.000E+00  0.000E+00  0.000E+00  3.87710E+01  1.460E-01  2.000E+01  2.000E+04 -9.975E-02
   1   13   23     2     8    7.4459E+04 -1.1557E+03   7.5615E+04  0.000E+00  0.000E+00  0.000E+00  3.85228E+01  1.478E-01  2.000E+01  2.000E+04 -5.778E-02
   1   14   22     2     9    7.5615E+04  2.0317E+03   7.3583E+04  0.000E+00  0.000E+00  0.000E+00  3.82723E+01  1.473E-01  2.000E+01  2.000E+04  1.016E-01
   1   14   22     3     1    2.1842E+05 -8.4229E+03   2.2684E+05  0.000E+00  0.000E+00  0.000E+00  3.77496E+01  1.940E-01  2.000E+01  2.000E+04 -4.211E-01
   1   15   23     3     2    2.2684E+05 -1.8976E+03   2.2874E+05  0.000E+00  0.000E+00  0.000E+00  3.68634E+01  1.967E-01  2.000E+01  2.000E+04 -9.488E-02
   1   15   24     3     3    2.2874E+05 -1.5048E+03   2.3024E+05  0.000E+00  0.000E+00  0.000E+00  3.59754E+01  1.976E-01  2.000E+01  2.000E+04 -7.524E-02
   1   15   25     3     4    2.3024E+05 -1.5476E+03   2.3179E+05  0.000E+00  0.000E+00  0.000E+00  3.50873E+01  1.984E-01  2.000E+01  2.000E+04 -7.738E-02
   1   15   26     3     5    2.3179E+05 -2.0824E+03   2.3387E+05  0.000E+00  0.000E+00  0.000E+00  3.41993E+01  1.993E-01  2.000E+01  2.000E+04 -1.041E-01
   1   16   27     3     6    2.3387E+05 -2.7357E+03   2.3661E+05  0.000E+00  0.000E+00  0.000E+00  3.33117E+01  2.005E-01  2.000E+01  2.000E+04 -1.368E-01
   1   17   28     3     7    2.3661E+05 -3.5022E+03   2.4011E+05  0.000E+00  0.000E+00  0.000E+00  3.24244E+01  2.021E-01  2.000E+01  2.000E+04 -1.751E-01
   1   18   29     3     8    2.4011E+05 -5.1225E+03   2.4523E+05  0.000E+00  0.000E+00  0.000E+00  3.15377E+01  2.043E-01  2.000E+01  2.000E+04 -2.561E-01
   1   18   30     3     9    2.4523E+05 -4.5407E+03   2.4977E+05  0.000E+00  0.000E+00  0.000E+00  3.06512E+01  2.068E-01  2.000E+01  2.000E+04 -2.270E-01



1
              HEAD IN LAYER   1 AT END OF TIME STEP   1 IN STRESS PERIOD    4
  ---------------------------------------------------------------------------

          1      2      3      4      5      6      7      8      9     10
         11     12     13     14     15     16     17     18     19     20
         21     22     23     24     25     26     27     28     29     30
 .........................................................................
   1  ****** ****** ****** ****** ****** ****** ****** ****** ****** ******
      ****** ****** ****** ****** ****** ****** ****** ****** ****** ******
      ****** ****** ****** ****** ****** ****** ****** ****** ****** ******
   2  ****** ****** ****** ****** ****** ****** ****** ****** ****** ******
      ****** ****** ****** ****** ****** ****** ****** ****** ****** ******
      ****** ****** ****** ****** ****** ****** ****** ****** ****** ******
   3  ****** ****** ****** ****** ****** ****** ****** ****** ****** ******
      ****** ****** ****** ****** ****** ****** ****** ****** ****** ******
      ****** ****** ****** ****** ****** ****** ****** ****** ****** ******
   4  ****** ****** ****** ****** ****** ****** ****** ****** ****** ******
      ****** ****** ****** ****** ****** ****** ****** ****** ****** ******
      ****** ****** ****** ****** ****** ****** ****** ****** ****** ******
   5  ****** ****** ****** ****** ****** ****** ****** ****** ****** ******
      ****** ****** ****** ****** ****** ****** ****** ****** ****** ******
      ****** ****** ****** ****** ****** ****** ****** ****** ****** ******
   6  ****** ****** ****** ****** ****** ****** ****** ****** ****** ******
      ****** ****** ****** ****** ****** ****** ****** ****** ****** ******
      ****** ****** ****** ****** ****** ****** ****** ****** ****** ******
   7  ****** ****** ****** ****** ****** ****** ****** ****** ****** ******
      ****** ****** ****** ****** ****** ****** ****** ****** ****** ******
      ****** ****** ****** ****** ****** ****** ****** ****** ****** ******
   8  ****** ****** ****** ****** ****** ****** ****** ****** ****** ******
      ****** ****** ****** ****** ****** ****** ****** ****** ****** ******
      ****** ****** ****** ****** ****** ****** ****** ****** ****** ******
   9  ****** ****** ****** ****** ****** ****** ****** ****** ****** ******
      ****** ****** ****** ****** ****** ****** ****** ****** ****** ******
      ****** ****** ****** ****** ****** ****** ****** ****** ****** ******
  10  ****** ****** ****** ****** ****** ****** ****** ****** ****** ******
      ****** ****** ****** ****** ****** ****** ****** ****** ****** ******
      ****** ****** ****** ****** ****** ****** ****** ****** ****** ******
  11  ****** ****** ****** ****** ****** ****** ****** ****** ****** ******
      ****** ****** ****** ****** ****** ****** ****** ****** ****** ******
      ****** ****** ****** ****** ****** ****** ****** ****** ****** ******
  12  ****** ****** ****** ****** ****** ****** ****** ****** ****** ******
      ****** ****** ****** ****** ****** ****** ****** ****** ****** ******
      ****** ****** ****** ****** ****** ****** ****** ****** ****** ******
  13  ****** ****** ****** ****** ****** ****** ****** ****** ****** ******
      ****** ****** ****** ****** ****** ****** ****** ****** ****** ******
      ****** ****** ****** ****** ****** ****** ****** ****** ****** ******
  14  ****** ****** ****** ****** ****** ****** ****** ****** ****** ******
      ****** ****** ****** ****** ****** ****** ****** ****** ****** ******
      ****** ****** ****** ****** ****** ****** ****** ****** ****** ******
  15  ****** ****** ****** ****** ****** ****** ****** ****** ****** ******
      ****** ****** ****** ****** ****** ****** ****** ****** ****** ******
      ****** ****** ****** ****** ****** ****** ****** ****** ****** ******
  16  ****** ****** ****** ****** ****** ****** ****** ****** ****** ******
      ****** ****** ****** ****** ****** ****** ****** ****** ****** ******
      ****** ****** ****** ****** ****** ****** ****** ****** ****** ******
  17  ****** ****** ****** ****** ****** ****** ****** ****** ****** ******
      ****** ****** ****** ****** ****** ****** ****** ****** ****** ******
      ****** ****** ****** ****** ****** ****** ****** ****** ****** ******
  18  ****** ****** ****** ****** ****** ****** ****** ****** ****** ******
      ****** ****** ****** ****** ****** ****** ****** ****** ****** ******
      ****** ****** ****** ****** ****** ****** ****** ****** ****** ******
  19  ****** ****** ****** ****** ****** ****** ****** ****** ****** ******
      ****** ****** ****** ****** ****** ****** ****** ****** ****** ******
      ****** ****** ****** ****** ****** ****** ****** ****** ****** ******
  20  ****** ****** ****** ****** ****** ****** ****** ****** ****** ******
      ****** ****** ****** ****** ****** ****** ****** ****** ****** ******
      ****** ****** ****** ****** ****** ****** ****** ****** ****** ******
  21  ****** ****** ****** ****** ****** ****** ****** ****** ****** ******
      ****** ****** ****** ****** ****** ****** ****** ****** ****** ******
      ****** ****** ****** ****** ****** ****** ****** ****** ****** ******
  22  ****** ****** ****** ****** ****** ****** ****** ****** ****** ******
      ****** ****** ****** ****** ****** ****** ****** ****** ****** ******
      ****** ****** ****** ****** ****** ****** ****** ****** ****** ******
  23  ****** ****** ****** ****** ****** ****** ****** ****** ****** ******
      ****** ****** ****** ****** ****** ****** ****** ****** ****** ******
      ****** ****** ****** ****** ****** ****** ****** ****** ****** ******
  24  ****** ****** ****** ****** ****** ****** ****** ****** ****** ******
      ****** ****** ****** ****** ****** ****** ****** ****** ****** ******
      ****** ****** ****** ****** ****** ****** ****** ****** ****** ******
  25  ****** ****** ****** ****** ****** ****** ****** ****** ****** ******
      ****** ****** ****** ****** ****** ****** ****** ****** ****** ******
      ****** ****** ****** ****** ****** ****** ****** ****** ****** ******

 HEAD WILL BE SAVED ON UNIT   51 AT END OF TIME STEP    1, STRESS PERIOD    4
1
  VOLUMETRIC BUDGET FOR ENTIRE MODEL AT END OF TIME STEP    1, STRESS PERIOD   4
  ------------------------------------------------------------------------------

     CUMULATIVE VOLUMES      L**3       RATES FOR THIS TIME STEP      L**3/T
     ------------------                 ------------------------

           IN:                                      IN:
           ---                                      ---
             STORAGE =    23199248.5920               STORAGE =        1588.6597
       CONSTANT HEAD =    55848583.4750         CONSTANT HEAD =      169785.1643
               WELLS =           0.0000                 WELLS =           0.0000
            RECHARGE =     8804400.0000              RECHARGE =       27600.0000
      STREAM LEAKAGE =     3511655.9520        STREAM LEAKAGE =       12313.1278

            TOTAL IN =    91363888.0190              TOTAL IN =      211286.9517

          OUT:                                     OUT:
          ----                                     ----
             STORAGE =       21359.7805               STORAGE =         234.7229
       CONSTANT HEAD =           0.0000         CONSTANT HEAD =           0.0000
               WELLS =    36123130.9279                 WELLS =       98967.4820
            RECHARGE =           0.0000              RECHARGE =           0.0000
      STREAM LEAKAGE =    55219398.0881        STREAM LEAKAGE =      112084.7452

           TOTAL OUT =    91363888.7965             TOTAL OUT =      211286.9500

            IN - OUT =          -0.7775              IN - OUT =       1.6745E-03

 PERCENT DISCREPANCY =          -0.00     PERCENT DISCREPANCY =           0.00






         TIME SUMMARY AT END OF TIME STEP    1 IN STRESS PERIOD    4
                    SECONDS     MINUTES      HOURS       DAYS        YEARS
                    -----------------------------------------------------------
   TIME STEP LENGTH 7.86240E+06 1.31040E+05  2184.0      91.000     0.24914    
 STRESS PERIOD TIME 7.86240E+06 1.31040E+05  2184.0      91.000     0.24914    
         TOTAL TIME 3.15360E+07 5.25600E+05  8760.0      365.00     0.99932    
1
1
                            STRESS PERIOD NO.    5, LENGTH =   92.00000    
                            -----------------------------------------------

                              NUMBER OF TIME STEPS =     1

                               MULTIPLIER FOR DELT =     1.500

                            INITIAL TIME STEP SIZE =   92.00000    

 WELL NO.  LAYER   ROW   COL   STRESS RATE         
 --------------------------------------------------
      1      1     18     11     -0.3279E+05
      2      1     23     22     -0.3365E+05
      3      1     23     15     -0.3252E+05

      3 WELLS

                 RECHARGE =  5.000000E-04

 REUSING STREAM SEGMENT DATA FROM LAST STRESS PERIOD
 
 SOLVING FOR HEAD 


     6 CALLS TO PCG ROUTINE FOR TIME STEP   1 IN STRESS PERIOD    5
    23 TOTAL ITERATIONS

 OUTPUT CONTROL FOR STRESS PERIOD    5   TIME STEP    1
    SAVE BUDGET
    SAVE HEAD FOR ALL LAYERS
    PRINT HEAD FOR ALL LAYERS
 UBDSV2 SAVING "STREAMFLOW OUT  " ON UNIT  50 AT TIME STEP  1, STRESS PERIOD   5



 STREAM LISTING     PERIOD      5   STEP        1

 LAYER ROW COL. STREAM  RCH.  FLOW INTO     FLOW TO   FLOW OUT OF   OVRLND.     DIRECT     STREAM       STREAM     STREAM     STREAM   STREAMBED  STREAMBED
                SEG.NO.  NO.  STRM. RCH.    AQUIFER    STRM. RCH.    RUNOFF     PRECIP       ET          HEAD       DEPTH      WIDTH   CONDCTNC.   GRADIENT

   1   13    1     1     1    1.0000E+05 -2.7228E+03   1.0272E+05  0.000E+00  0.000E+00  0.000E+00  4.84072E+01  1.458E-01  2.000E+01  2.000E+04 -1.361E-01
   1   13    2     1     2    1.0272E+05 -4.6527E+03   1.0738E+05  0.000E+00  0.000E+00  0.000E+00  4.79331E+01  1.490E-01  2.000E+01  2.000E+04 -2.326E-01
   1   14    3     1     3    1.0738E+05 -3.6107E+03   1.1099E+05  0.000E+00  0.000E+00  0.000E+00  4.74593E+01  1.525E-01  2.000E+01  2.000E+04 -1.805E-01
   1   15    4     1     4    1.1099E+05 -3.3918E+03   1.1438E+05  0.000E+00  0.000E+00  0.000E+00  4.69849E+01  1.554E-01  2.000E+01  2.000E+04 -1.696E-01
   1   16    5     1     5    1.1438E+05 -3.3348E+03   1.1771E+05  0.000E+00  0.000E+00  0.000E+00  4.65104E+01  1.582E-01  2.000E+01  2.000E+04 -1.667E-01
   1   16    6     1     6    1.1771E+05 -2.4619E+03   1.2017E+05  0.000E+00  0.000E+00  0.000E+00  4.60355E+01  1.605E-01  2.000E+01  2.000E+04 -1.231E-01
   1   16    7     1     7    1.2017E+05 -2.1964E+03   1.2237E+05  0.000E+00  0.000E+00  0.000E+00  4.55601E+01  1.624E-01  2.000E+01  2.000E+04 -1.098E-01
   1   16    8     1     8    1.2237E+05 -1.6600E+03   1.2403E+05  0.000E+00  0.000E+00  0.000E+00  4.50844E+01  1.639E-01  2.000E+01  2.000E+04 -8.300E-02
   1   16    9     1     9    1.2403E+05 -6.7596E+02   1.2471E+05  0.000E+00  0.000E+00  0.000E+00  4.46081E+01  1.649E-01  2.000E+01  2.000E+04 -3.380E-02
   1   16   10     1    10    1.2471E+05  9.6297E+02   1.2374E+05  0.000E+00  0.000E+00  0.000E+00  4.41307E+01  1.648E-01  2.000E+01  2.000E+04  4.815E-02
   1   16   11     1    11    1.2374E+05  2.9847E+03   1.2076E+05  0.000E+00  0.000E+00  0.000E+00  4.36518E+01  1.632E-01  2.000E+01  2.000E+04  1.492E-01
   1   16   12     1    12    1.2076E+05  1.8662E+03   1.1889E+05  0.000E+00  0.000E+00  0.000E+00  4.31726E+01  1.612E-01  2.000E+01  2.000E+04  9.331E-02
   1   15   13     1    13    1.1889E+05 -1.5729E+03   1.2047E+05  0.000E+00  0.000E+00  0.000E+00  4.26952E+01  1.611E-01  2.000E+01  2.000E+04 -7.865E-02
   1   14   14     1    14    1.2047E+05 -2.6607E+03   1.2313E+05  0.000E+00  0.000E+00  0.000E+00  4.22196E+01  1.628E-01  2.000E+01  2.000E+04 -1.330E-01
   1   13   15     1    15    1.2313E+05 -3.4837E+03   1.2661E+05  0.000E+00  0.000E+00  0.000E+00  4.17448E+01  1.653E-01  2.000E+01  2.000E+04 -1.742E-01
   1   12   16     1    16    1.2661E+05 -5.1205E+03   1.3173E+05  0.000E+00  0.000E+00  0.000E+00  4.12709E+01  1.687E-01  2.000E+01  2.000E+04 -2.560E-01
   1   12   17     1    17    1.3173E+05 -3.2083E+03   1.3494E+05  0.000E+00  0.000E+00  0.000E+00  4.07969E+01  1.719E-01  2.000E+01  2.000E+04 -1.604E-01
   1   12   18     1    18    1.3494E+05 -3.0870E+03   1.3803E+05  0.000E+00  0.000E+00  0.000E+00  4.03221E+01  1.743E-01  2.000E+01  2.000E+04 -1.543E-01
   1   12   19     1    19    1.3803E+05 -4.2180E+03   1.4224E+05  0.000E+00  0.000E+00  0.000E+00  3.98476E+01  1.771E-01  2.000E+01  2.000E+04 -2.109E-01
   1   13   20     1    20    1.4224E+05 -2.3426E+03   1.4459E+05  0.000E+00  0.000E+00  0.000E+00  3.93728E+01  1.796E-01  2.000E+01  2.000E+04 -1.171E-01
   1   14   21     1    21    1.4459E+05 -1.2212E+03   1.4581E+05  0.000E+00  0.000E+00  0.000E+00  3.88968E+01  1.809E-01  2.000E+01  2.000E+04 -6.106E-02
   1   14   22     1    22    1.4581E+05  5.0338E+03   1.4077E+05  0.000E+00  0.000E+00  0.000E+00  3.84181E+01  1.795E-01  2.000E+01  2.000E+04  2.517E-01
   1    9   30     2     1    5.0000E+04 -2.6865E+03   5.2687E+04  0.000E+00  0.000E+00  0.000E+00  4.02427E+01  1.177E-01  2.000E+01  2.000E+04 -1.343E-01
   1    9   29     2     2    5.2687E+04 -3.0195E+03   5.5706E+04  0.000E+00  0.000E+00  0.000E+00  3.99966E+01  1.216E-01  2.000E+01  2.000E+04 -1.510E-01
   1    9   28     2     3    5.5706E+04 -3.4015E+03   5.9108E+04  0.000E+00  0.000E+00  0.000E+00  3.97509E+01  1.259E-01  2.000E+01  2.000E+04 -1.701E-01
   1    9   27     2     4    5.9108E+04 -6.1053E+03   6.5213E+04  0.000E+00  0.000E+00  0.000E+00  3.95070E+01  1.320E-01  2.000E+01  2.000E+04 -3.053E-01
   1   10   26     2     5    6.5213E+04 -3.7294E+03   6.8942E+04  0.000E+00  0.000E+00  0.000E+00  3.92632E+01  1.382E-01  2.000E+01  2.000E+04 -1.865E-01
   1   11   25     2     6    6.8942E+04 -2.6886E+03   7.1631E+04  0.000E+00  0.000E+00  0.000E+00  3.90171E+01  1.421E-01  2.000E+01  2.000E+04 -1.344E-01
   1   12   24     2     7    7.1631E+04 -1.8530E+03   7.3484E+04  0.000E+00  0.000E+00  0.000E+00  3.87699E+01  1.449E-01  2.000E+01  2.000E+04 -9.265E-02
   1   13   23     2     8    7.3484E+04 -1.0443E+03   7.4528E+04  0.000E+00  0.000E+00  0.000E+00  3.85216E+01  1.466E-01  2.000E+01  2.000E+04 -5.221E-02
   1   14   22     2     9    7.4528E+04  2.0907E+03   7.2437E+04  0.000E+00  0.000E+00  0.000E+00  3.82710E+01  1.460E-01  2.000E+01  2.000E+04  1.045E-01
   1   14   22     3     1    2.1321E+05 -8.3922E+03   2.2160E+05  0.000E+00  0.000E+00  0.000E+00  3.77468E+01  1.913E-01  2.000E+01  2.000E+04 -4.196E-01
   1   15   23     3     2    2.2160E+05 -1.7396E+03   2.2334E+05  0.000E+00  0.000E+00  0.000E+00  3.68606E+01  1.939E-01  2.000E+01  2.000E+04 -8.698E-02
   1   15   24     3     3    2.2334E+05 -1.3980E+03   2.2474E+05  0.000E+00  0.000E+00  0.000E+00  3.59725E+01  1.948E-01  2.000E+01  2.000E+04 -6.990E-02
   1   15   25     3     4    2.2474E+05 -1.4453E+03   2.2619E+05  0.000E+00  0.000E+00  0.000E+00  3.50844E+01  1.955E-01  2.000E+01  2.000E+04 -7.227E-02
   1   15   26     3     5    2.2619E+05 -1.9591E+03   2.2815E+05  0.000E+00  0.000E+00  0.000E+00  3.41964E+01  1.964E-01  2.000E+01  2.000E+04 -9.795E-02
   1   16   27     3     6    2.2815E+05 -2.5753E+03   2.3072E+05  0.000E+00  0.000E+00  0.000E+00  3.33087E+01  1.976E-01  2.000E+01  2.000E+04 -1.288E-01
   1   17   28     3     7    2.3072E+05 -3.3380E+03   2.3406E+05  0.000E+00  0.000E+00  0.000E+00  3.24213E+01  1.991E-01  2.000E+01  2.000E+04 -1.669E-01
   1   18   29     3     8    2.3406E+05 -4.9666E+03   2.3903E+05  0.000E+00  0.000E+00  0.000E+00  3.15345E+01  2.012E-01  2.000E+01  2.000E+04 -2.483E-01
   1   18   30     3     9    2.3903E+05 -4.4276E+03   2.4345E+05  0.000E+00  0.000E+00  0.000E+00  3.06480E+01  2.036E-01  2.000E+01  2.000E+04 -2.214E-01



1
              HEAD IN LAYER   1 AT END OF TIME STEP   1 IN STRESS PERIOD    5
  ---------------------------------------------------------------------------

          1      2      3      4      5      6      7      8      9     10
         11     12     13     14     15     16     17     18     19     20
         21     22     23     24     25     26     27     28     29     30
 .........................................................................
   1  ****** ****** ****** ****** ****** ****** ****** ****** ****** ******
      ****** ****** ****** ****** ****** ****** ****** ****** ****** ******
      ****** ****** ****** ****** ****** ****** ****** ****** ****** ******
   2  ****** ****** ****** ****** ****** ****** ****** ****** ****** ******
      ****** ****** ****** ****** ****** ****** ****** ****** ****** ******
      ****** ****** ****** ****** ****** ****** ****** ****** ****** ******
   3  ****** ****** ****** ****** ****** ****** ****** ****** ****** ******
      ****** ****** ****** ****** ****** ****** ****** ****** ****** ******
      ****** ****** ****** ****** ****** ****** ****** ****** ****** ******
   4  ****** ****** ****** ****** ****** ****** ****** ****** ****** ******
      ****** ****** ****** ****** ****** ****** ****** ****** ****** ******
      ****** ****** ****** ****** ****** ****** ****** ****** ****** ******
   5  ****** ****** ****** ****** ****** ****** ****** ****** ****** ******
      ****** ****** ****** ****** ****** ****** ****** ****** ****** ******
      ****** ****** ****** ****** ****** ****** ****** ****** ****** ******
   6  ****** ****** ****** ****** ****** ****** ****** ****** ****** ******
      ****** ****** ****** ****** ****** ****** ****** ****** ****** ******
      ****** ****** ****** ****** ****** ****** ****** ****** ****** ******
   7  ****** ****** ****** ****** ****** ****** ****** ****** ****** ******
      ****** ****** ****** ****** ****** ****** ****** ****** ****** ******
      ****** ****** ****** ****** ****** ****** ****** ****** ****** ******
   8  ****** ****** ****** ****** ****** ****** ****** ****** ****** ******
      ****** ****** ****** ****** ****** ****** ****** ****** ****** ******
      ****** ****** ****** ****** ****** ****** ****** ****** ****** ******
   9  ****** ****** ****** ****** ****** ****** ****** ****** ****** ******
      ****** ****** ****** ****** ****** ****** ****** ****** ****** ******
      ****** ****** ****** ****** ****** ****** ****** ****** ****** ******
  10  ****** ****** ****** ****** ****** ****** ****** ****** ****** ******
      ****** ****** ****** ****** ****** ****** ****** ****** ****** ******
      ****** ****** ****** ****** ****** ****** ****** ****** ****** ******
  11  ****** ****** ****** ****** ****** ****** ****** ****** ****** ******
      ****** ****** ****** ****** ****** ****** ****** ****** ****** ******
      ****** ****** ****** ****** ****** ****** ****** ****** ****** ******
  12  ****** ****** ****** ****** ****** ****** ****** ****** ****** ******
      ****** ****** ****** ****** ****** ****** ****** ****** ****** ******
      ****** ****** ****** ****** ****** ****** ****** ****** ****** ******
  13  ****** ****** ****** ****** ****** ****** ****** ****** ****** ******
      ****** ****** ****** ****** ****** ****** ****** ****** ****** ******
      ****** ****** ****** ****** ****** ****** ****** ****** ****** ******
  14  ****** ****** ****** ****** ****** ****** ****** ****** ****** ******
      ****** ****** ****** ****** ****** ****** ****** ****** ****** ******
      ****** ****** ****** ****** ****** ****** ****** ****** ****** ******
  15  ****** ****** ****** ****** ****** ****** ****** ****** ****** ******
      ****** ****** ****** ****** ****** ****** ****** ****** ****** ******
      ****** ****** ****** ****** ****** ****** ****** ****** ****** ******
  16  ****** ****** ****** ****** ****** ****** ****** ****** ****** ******
      ****** ****** ****** ****** ****** ****** ****** ****** ****** ******
      ****** ****** ****** ****** ****** ****** ****** ****** ****** ******
  17  ****** ****** ****** ****** ****** ****** ****** ****** ****** ******
      ****** ****** ****** ****** ****** ****** ****** ****** ****** ******
      ****** ****** ****** ****** ****** ****** ****** ****** ****** ******
  18  ****** ****** ****** ****** ****** ****** ****** ****** ****** ******
      ****** ****** ****** ****** ****** ****** ****** ****** ****** ******
      ****** ****** ****** ****** ****** ****** ****** ****** ****** ******
  19  ****** ****** ****** ****** ****** ****** ****** ****** ****** ******
      ****** ****** ****** ****** ****** ****** ****** ****** ****** ******
      ****** ****** ****** ****** ****** ****** ****** ****** ****** ******
  20  ****** ****** ****** ****** ****** ****** ****** ****** ****** ******
      ****** ****** ****** ****** ****** ****** ****** ****** ****** ******
      ****** ****** ****** ****** ****** ****** ****** ****** ****** ******
  21  ****** ****** ****** ****** ****** ****** ****** ****** ****** ******
      ****** ****** ****** ****** ****** ****** ****** ****** ****** ******
      ****** ****** ****** ****** ****** ****** ****** ****** ****** ******
  22  ****** ****** ****** ****** ****** ****** ****** ****** ****** ******
      ****** ****** ****** ****** ****** ****** ****** ****** ****** ******
      ****** ****** ****** ****** ****** ****** ****** ****** ****** ******
  23  ****** ****** ****** ****** ****** ****** ****** ****** ****** ******
      ****** ****** ****** ****** ****** ****** ****** ****** ****** ******
      ****** ****** ****** ****** ****** ****** ****** ****** ****** ******
  24  ****** ****** ****** ****** ****** ****** ****** ****** ****** ******
      ****** ****** ****** ****** ****** ****** ****** ****** ****** ******
      ****** ****** ****** ****** ****** ****** ****** ****** ****** ******
  25  ****** ****** ****** ****** ****** ****** ****** ****** ****** ******
      ****** ****** ****** ****** ****** ****** ****** ****** ****** ******
      ****** ****** ****** ****** ****** ****** ****** ****** ****** ******

 HEAD WILL BE SAVED ON UNIT   51 AT END OF TIME STEP    1, STRESS PERIOD    5
1
  VOLUMETRIC BUDGET FOR ENTIRE MODEL AT END OF TIME STEP    1, STRESS PERIOD   5
  ------------------------------------------------------------------------------

     CUMULATIVE VOLUMES      L**3       RATES FOR THIS TIME STEP      L**3/T
     ------------------                 ------------------------

           IN:                                      IN:
           ---                                      ---
             STORAGE =    23611462.5363               STORAGE =        4480.5864
       CONSTANT HEAD =    71869491.8935         CONSTANT HEAD =      174140.3089
               WELLS =           0.0000                 WELLS =           0.0000
            RECHARGE =    10074000.0000              RECHARGE =       13800.0000
      STREAM LEAKAGE =     4701979.0958        STREAM LEAKAGE =       12938.2950

            TOTAL IN =   110256933.5256              TOTAL IN =      205359.1903

          OUT:                                     OUT:
          ----                                     ----
             STORAGE =       21359.7805               STORAGE =           0.0000
       CONSTANT HEAD =           0.0000         CONSTANT HEAD =           0.0000
               WELLS =    45228139.2714                 WELLS =       98967.4820
            RECHARGE =           0.0000              RECHARGE =           0.0000
      STREAM LEAKAGE =    65007435.3310        STREAM LEAKAGE =      106391.7092

           TOTAL OUT =   110256934.3829             TOTAL OUT =      205359.1912

            IN - OUT =          -0.8573              IN - OUT =      -8.6797E-04

 PERCENT DISCREPANCY =          -0.00     PERCENT DISCREPANCY =          -0.00






         TIME SUMMARY AT END OF TIME STEP    1 IN STRESS PERIOD    5
                    SECONDS     MINUTES      HOURS       DAYS        YEARS
                    -----------------------------------------------------------
   TIME STEP LENGTH 7.94880E+06 1.32480E+05  2208.0      92.000     0.25188    
 STRESS PERIOD TIME 7.94880E+06 1.32480E+05  2208.0      92.000     0.25188    
         TOTAL TIME 3.94848E+07 6.58080E+05  10968.      457.00      1.2512    
1
1
                            STRESS PERIOD NO.    6, LENGTH =   91.00000    
                            -----------------------------------------------

                              NUMBER OF TIME STEPS =     1

                               MULTIPLIER FOR DELT =     1.500

                            INITIAL TIME STEP SIZE =   91.00000    

 WELL NO.  LAYER   ROW   COL   STRESS RATE         
 --------------------------------------------------
      1      1     18     11     -0.3279E+05
      2      1     23     22     -0.3365E+05
      3      1     23     15     -0.3252E+05

      3 WELLS

                 RECHARGE =  2.000000E-03

 REUSING STREAM SEGMENT DATA FROM LAST STRESS PERIOD
 
 SOLVING FOR HEAD 


     7 CALLS TO PCG ROUTINE FOR TIME STEP   1 IN STRESS PERIOD    6
    26 TOTAL ITERATIONS

 OUTPUT CONTROL FOR STRESS PERIOD    6   TIME STEP    1
    SAVE BUDGET
    SAVE HEAD FOR ALL LAYERS
    PRINT HEAD FOR ALL LAYERS
 UBDSV2 SAVING "STREAMFLOW OUT  " ON UNIT  50 AT TIME STEP  1, STRESS PERIOD   6



 STREAM LISTING     PERIOD      6   STEP        1

 LAYER ROW COL. STREAM  RCH.  FLOW INTO     FLOW TO   FLOW OUT OF   OVRLND.     DIRECT     STREAM       STREAM     STREAM     STREAM   STREAMBED  STREAMBED
                SEG.NO.  NO.  STRM. RCH.    AQUIFER    STRM. RCH.    RUNOFF     PRECIP       ET          HEAD       DEPTH      WIDTH   CONDCTNC.   GRADIENT

   1   13    1     1     1    1.0000E+05 -3.1220E+03   1.0312E+05  0.000E+00  0.000E+00  0.000E+00  4.84074E+01  1.460E-01  2.000E+01  2.000E+04 -1.561E-01
   1   13    2     1     2    1.0312E+05 -5.1780E+03   1.0830E+05  0.000E+00  0.000E+00  0.000E+00  4.79336E+01  1.496E-01  2.000E+01  2.000E+04 -2.589E-01
   1   14    3     1     3    1.0830E+05 -4.1493E+03   1.1245E+05  0.000E+00  0.000E+00  0.000E+00  4.74603E+01  1.535E-01  2.000E+01  2.000E+04 -2.075E-01
   1   15    4     1     4    1.1245E+05 -3.9273E+03   1.1638E+05  0.000E+00  0.000E+00  0.000E+00  4.69864E+01  1.568E-01  2.000E+01  2.000E+04 -1.964E-01
   1   16    5     1     5    1.1638E+05 -3.8313E+03   1.2021E+05  0.000E+00  0.000E+00  0.000E+00  4.65123E+01  1.600E-01  2.000E+01  2.000E+04 -1.916E-01
   1   16    6     1     6    1.2021E+05 -2.8525E+03   1.2306E+05  0.000E+00  0.000E+00  0.000E+00  4.60377E+01  1.627E-01  2.000E+01  2.000E+04 -1.426E-01
   1   16    7     1     7    1.2306E+05 -2.5925E+03   1.2565E+05  0.000E+00  0.000E+00  0.000E+00  4.55626E+01  1.649E-01  2.000E+01  2.000E+04 -1.296E-01
   1   16    8     1     8    1.2565E+05 -2.0593E+03   1.2771E+05  0.000E+00  0.000E+00  0.000E+00  4.50872E+01  1.667E-01  2.000E+01  2.000E+04 -1.030E-01
   1   16    9     1     9    1.2771E+05 -1.0749E+03   1.2879E+05  0.000E+00  0.000E+00  0.000E+00  4.46111E+01  1.679E-01  2.000E+01  2.000E+04 -5.375E-02
   1   16   10     1    10    1.2879E+05  5.6773E+02   1.2822E+05  0.000E+00  0.000E+00  0.000E+00  4.41340E+01  1.681E-01  2.000E+01  2.000E+04  2.839E-02
   1   16   11     1    11    1.2822E+05  2.5949E+03   1.2562E+05  0.000E+00  0.000E+00  0.000E+00  4.36555E+01  1.669E-01  2.000E+01  2.000E+04  1.297E-01
   1   16   12     1    12    1.2562E+05  1.3656E+03   1.2426E+05  0.000E+00  0.000E+00  0.000E+00  4.31767E+01  1.653E-01  2.000E+01  2.000E+04  6.828E-02
   1   15   13     1    13    1.2426E+05 -2.1168E+03   1.2638E+05  0.000E+00  0.000E+00  0.000E+00  4.26997E+01  1.656E-01  2.000E+01  2.000E+04 -1.058E-01
   1   14   14     1    14    1.2638E+05 -3.2145E+03   1.2959E+05  0.000E+00  0.000E+00  0.000E+00  4.22245E+01  1.677E-01  2.000E+01  2.000E+04 -1.607E-01
   1   13   15     1    15    1.2959E+05 -4.0285E+03   1.3362E+05  0.000E+00  0.000E+00  0.000E+00  4.17501E+01  1.706E-01  2.000E+01  2.000E+04 -2.014E-01
   1   12   16     1    16    1.3362E+05 -5.6417E+03   1.3926E+05  0.000E+00  0.000E+00  0.000E+00  4.12766E+01  1.743E-01  2.000E+01  2.000E+04 -2.821E-01
   1   12   17     1    17    1.3926E+05 -3.5978E+03   1.4286E+05  0.000E+00  0.000E+00  0.000E+00  4.08028E+01  1.778E-01  2.000E+01  2.000E+04 -1.799E-01
   1   12   18     1    18    1.4286E+05 -3.4705E+03   1.4633E+05  0.000E+00  0.000E+00  0.000E+00  4.03282E+01  1.805E-01  2.000E+01  2.000E+04 -1.735E-01
   1   12   19     1    19    1.4633E+05 -4.6866E+03   1.5102E+05  0.000E+00  0.000E+00  0.000E+00  3.98540E+01  1.835E-01  2.000E+01  2.000E+04 -2.343E-01
   1   13   20     1    20    1.5102E+05 -2.7995E+03   1.5381E+05  0.000E+00  0.000E+00  0.000E+00  3.93795E+01  1.863E-01  2.000E+01  2.000E+04 -1.400E-01
   1   14   21     1    21    1.5381E+05 -1.6401E+03   1.5545E+05  0.000E+00  0.000E+00  0.000E+00  3.89038E+01  1.879E-01  2.000E+01  2.000E+04 -8.201E-02
   1   14   22     1    22    1.5545E+05  4.9573E+03   1.5050E+05  0.000E+00  0.000E+00  0.000E+00  3.84253E+01  1.867E-01  2.000E+01  2.000E+04  2.479E-01
   1    9   30     2     1    5.0000E+04 -3.0437E+03   5.3044E+04  0.000E+00  0.000E+00  0.000E+00  4.02430E+01  1.180E-01  2.000E+01  2.000E+04 -1.522E-01
   1    9   29     2     2    5.3044E+04 -3.3737E+03   5.6417E+04  0.000E+00  0.000E+00  0.000E+00  3.99973E+01  1.223E-01  2.000E+01  2.000E+04 -1.687E-01
   1    9   28     2     3    5.6417E+04 -3.7536E+03   6.0171E+04  0.000E+00  0.000E+00  0.000E+00  3.97520E+01  1.270E-01  2.000E+01  2.000E+04 -1.877E-01
   1    9   27     2     4    6.0171E+04 -6.5749E+03   6.6746E+04  0.000E+00  0.000E+00  0.000E+00  3.95087E+01  1.337E-01  2.000E+01  2.000E+04 -3.287E-01
   1   10   26     2     5    6.6746E+04 -4.2154E+03   7.0961E+04  0.000E+00  0.000E+00  0.000E+00  3.92654E+01  1.404E-01  2.000E+01  2.000E+04 -2.108E-01
   1   11   25     2     6    7.0961E+04 -3.1536E+03   7.4115E+04  0.000E+00  0.000E+00  0.000E+00  3.90198E+01  1.448E-01  2.000E+01  2.000E+04 -1.577E-01
   1   12   24     2     7    7.4115E+04 -2.2641E+03   7.6379E+04  0.000E+00  0.000E+00  0.000E+00  3.87731E+01  1.481E-01  2.000E+01  2.000E+04 -1.132E-01
   1   13   23     2     8    7.6379E+04 -1.3650E+03   7.7744E+04  0.000E+00  0.000E+00  0.000E+00  3.85252E+01  1.502E-01  2.000E+01  2.000E+04 -6.825E-02
   1   14   22     2     9    7.7744E+04  1.9482E+03   7.5796E+04  0.000E+00  0.000E+00  0.000E+00  3.82749E+01  1.499E-01  2.000E+01  2.000E+04  9.741E-02
   1   14   22     3     1    2.2629E+05 -8.4754E+03   2.3477E+05  0.000E+00  0.000E+00  0.000E+00  3.77537E+01  1.981E-01  2.000E+01  2.000E+04 -4.238E-01
   1   15   23     3     2    2.3477E+05 -2.1309E+03   2.3690E+05  0.000E+00  0.000E+00  0.000E+00  3.68675E+01  2.008E-01  2.000E+01  2.000E+04 -1.065E-01
   1   15   24     3     3    2.3690E+05 -1.6825E+03   2.3858E+05  0.000E+00  0.000E+00  0.000E+00  3.59796E+01  2.018E-01  2.000E+01  2.000E+04 -8.412E-02
   1   15   25     3     4    2.3858E+05 -1.7313E+03   2.4031E+05  0.000E+00  0.000E+00  0.000E+00  3.50916E+01  2.027E-01  2.000E+01  2.000E+04 -8.657E-02
   1   15   26     3     5    2.4031E+05 -2.3290E+03   2.4264E+05  0.000E+00  0.000E+00  0.000E+00  3.42037E+01  2.037E-01  2.000E+01  2.000E+04 -1.165E-01
   1   16   27     3     6    2.4264E+05 -3.0386E+03   2.4568E+05  0.000E+00  0.000E+00  0.000E+00  3.33162E+01  2.051E-01  2.000E+01  2.000E+04 -1.519E-01
   1   17   28     3     7    2.4568E+05 -3.8109E+03   2.4949E+05  0.000E+00  0.000E+00  0.000E+00  3.24290E+01  2.068E-01  2.000E+01  2.000E+04 -1.905E-01
   1   18   29     3     8    2.4949E+05 -5.4099E+03   2.5490E+05  0.000E+00  0.000E+00  0.000E+00  3.15424E+01  2.091E-01  2.000E+01  2.000E+04 -2.705E-01
   1   18   30     3     9    2.5490E+05 -4.7628E+03   2.5966E+05  0.000E+00  0.000E+00  0.000E+00  3.06561E+01  2.116E-01  2.000E+01  2.000E+04 -2.381E-01



1
              HEAD IN LAYER   1 AT END OF TIME STEP   1 IN STRESS PERIOD    6
  ---------------------------------------------------------------------------

          1      2      3      4      5      6      7      8      9     10
         11     12     13     14     15     16     17     18     19     20
         21     22     23     24     25     26     27     28     29     30
 .........................................................................
   1  ****** ****** ****** ****** ****** ****** ****** ****** ****** ******
      ****** ****** ****** ****** ****** ****** ****** ****** ****** ******
      ****** ****** ****** ****** ****** ****** ****** ****** ****** ******
   2  ****** ****** ****** ****** ****** ****** ****** ****** ****** ******
      ****** ****** ****** ****** ****** ****** ****** ****** ****** ******
      ****** ****** ****** ****** ****** ****** ****** ****** ****** ******
   3  ****** ****** ****** ****** ****** ****** ****** ****** ****** ******
      ****** ****** ****** ****** ****** ****** ****** ****** ****** ******
      ****** ****** ****** ****** ****** ****** ****** ****** ****** ******
   4  ****** ****** ****** ****** ****** ****** ****** ****** ****** ******
      ****** ****** ****** ****** ****** ****** ****** ****** ****** ******
      ****** ****** ****** ****** ****** ****** ****** ****** ****** ******
   5  ****** ****** ****** ****** ****** ****** ****** ****** ****** ******
      ****** ****** ****** ****** ****** ****** ****** ****** ****** ******
      ****** ****** ****** ****** ****** ****** ****** ****** ****** ******
   6  ****** ****** ****** ****** ****** ****** ****** ****** ****** ******
      ****** ****** ****** ****** ****** ****** ****** ****** ****** ******
      ****** ****** ****** ****** ****** ****** ****** ****** ****** ******
   7  ****** ****** ****** ****** ****** ****** ****** ****** ****** ******
      ****** ****** ****** ****** ****** ****** ****** ****** ****** ******
      ****** ****** ****** ****** ****** ****** ****** ****** ****** ******
   8  ****** ****** ****** ****** ****** ****** ****** ****** ****** ******
      ****** ****** ****** ****** ****** ****** ****** ****** ****** ******
      ****** ****** ****** ****** ****** ****** ****** ****** ****** ******
   9  ****** ****** ****** ****** ****** ****** ****** ****** ****** ******
      ****** ****** ****** ****** ****** ****** ****** ****** ****** ******
      ****** ****** ****** ****** ****** ****** ****** ****** ****** ******
  10  ****** ****** ****** ****** ****** ****** ****** ****** ****** ******
      ****** ****** ****** ****** ****** ****** ****** ****** ****** ******
      ****** ****** ****** ****** ****** ****** ****** ****** ****** ******
  11  ****** ****** ****** ****** ****** ****** ****** ****** ****** ******
      ****** ****** ****** ****** ****** ****** ****** ****** ****** ******
      ****** ****** ****** ****** ****** ****** ****** ****** ****** ******
  12  ****** ****** ****** ****** ****** ****** ****** ****** ****** ******
      ****** ****** ****** ****** ****** ****** ****** ****** ****** ******
      ****** ****** ****** ****** ****** ****** ****** ****** ****** ******
  13  ****** ****** ****** ****** ****** ****** ****** ****** ****** ******
      ****** ****** ****** ****** ****** ****** ****** ****** ****** ******
      ****** ****** ****** ****** ****** ****** ****** ****** ****** ******
  14  ****** ****** ****** ****** ****** ****** ****** ****** ****** ******
      ****** ****** ****** ****** ****** ****** ****** ****** ****** ******
      ****** ****** ****** ****** ****** ****** ****** ****** ****** ******
  15  ****** ****** ****** ****** ****** ****** ****** ****** ****** ******
      ****** ****** ****** ****** ****** ****** ****** ****** ****** ******
      ****** ****** ****** ****** ****** ****** ****** ****** ****** ******
  16  ****** ****** ****** ****** ****** ****** ****** ****** ****** ******
      ****** ****** ****** ****** ****** ****** ****** ****** ****** ******
      ****** ****** ****** ****** ****** ****** ****** ****** ****** ******
  17  ****** ****** ****** ****** ****** ****** ****** ****** ****** ******
      ****** ****** ****** ****** ****** ****** ****** ****** ****** ******
      ****** ****** ****** ****** ****** ****** ****** ****** ****** ******
  18  ****** ****** ****** ****** ****** ****** ****** ****** ****** ******
      ****** ****** ****** ****** ****** ****** ****** ****** ****** ******
      ****** ****** ****** ****** ****** ****** ****** ****** ****** ******
  19  ****** ****** ****** ****** ****** ****** ****** ****** ****** ******
      ****** ****** ****** ****** ****** ****** ****** ****** ****** ******
      ****** ****** ****** ****** ****** ****** ****** ****** ****** ******
  20  ****** ****** ****** ****** ****** ****** ****** ****** ****** ******
      ****** ****** ****** ****** ****** ****** ****** ****** ****** ******
      ****** ****** ****** ****** ****** ****** ****** ****** ****** ******
  21  ****** ****** ****** ****** ****** ****** ****** ****** ****** ******
      ****** ****** ****** ****** ****** ****** ****** ****** ****** ******
      ****** ****** ****** ****** ****** ****** ****** ****** ****** ******
  22  ****** ****** ****** ****** ****** ****** ****** ****** ****** ******
      ****** ****** ****** ****** ****** ****** ****** ****** ****** ******
      ****** ****** ****** ****** ****** ****** ****** ****** ****** ******
  23  ****** ****** ****** ****** ****** ****** ****** ****** ****** ******
      ****** ****** ****** ****** ****** ****** ****** ****** ****** ******
      ****** ****** ****** ****** ****** ****** ****** ****** ****** ******
  24  ****** ****** ****** ****** ****** ****** ****** ****** ****** ******
      ****** ****** ****** ****** ****** ****** ****** ****** ****** ******
      ****** ****** ****** ****** ****** ****** ****** ****** ****** ******
  25  ****** ****** ****** ****** ****** ****** ****** ****** ****** ******
      ****** ****** ****** ****** ****** ****** ****** ****** ****** ******
      ****** ****** ****** ****** ****** ****** ****** ****** ****** ******

 HEAD WILL BE SAVED ON UNIT   51 AT END OF TIME STEP    1, STRESS PERIOD    6
1
  VOLUMETRIC BUDGET FOR ENTIRE MODEL AT END OF TIME STEP    1, STRESS PERIOD   6
  ------------------------------------------------------------------------------

     CUMULATIVE VOLUMES      L**3       RATES FOR THIS TIME STEP      L**3/T
     ------------------                 ------------------------

           IN:                                      IN:
           ---                                      ---
             STORAGE =    23611462.5363               STORAGE =           0.0000
       CONSTANT HEAD =    86749577.4023         CONSTANT HEAD =      163517.4232
               WELLS =           0.0000                 WELLS =           0.0000
            RECHARGE =    15097200.0000              RECHARGE =       55200.0000
      STREAM LEAKAGE =     5742455.8253        STREAM LEAKAGE =       11433.8102

            TOTAL IN =   131200695.7639              TOTAL IN =      230151.2334

          OUT:                                     OUT:
          ----                                     ----
             STORAGE =      939136.2282               STORAGE =       10085.4555
       CONSTANT HEAD =           0.0000         CONSTANT HEAD =           0.0000
               WELLS =    54234180.1329                 WELLS =       98967.4820
            RECHARGE =           0.0000              RECHARGE =           0.0000
      STREAM LEAKAGE =    76027380.0938        STREAM LEAKAGE =      121098.2941

           TOTAL OUT =   131200696.4549             TOTAL OUT =      230151.2316

            IN - OUT =          -0.6910              IN - OUT =       1.8272E-03

 PERCENT DISCREPANCY =          -0.00     PERCENT DISCREPANCY =           0.00






         TIME SUMMARY AT END OF TIME STEP    1 IN STRESS PERIOD    6
                    SECONDS     MINUTES      HOURS       DAYS        YEARS
                    -----------------------------------------------------------
   TIME STEP LENGTH 7.86240E+06 1.31040E+05  2184.0      91.000     0.24914    
 STRESS PERIOD TIME 7.86240E+06 1.31040E+05  2184.0      91.000     0.24914    
         TOTAL TIME 4.73472E+07 7.89120E+05  13152.      548.00      1.5003    
1
1
                            STRESS PERIOD NO.    7, LENGTH =   91.00000    
                            -----------------------------------------------

                              NUMBER OF TIME STEPS =     1

                               MULTIPLIER FOR DELT =     1.500

                            INITIAL TIME STEP SIZE =   91.00000    

 WELL NO.  LAYER   ROW   COL   STRESS RATE         
 --------------------------------------------------
      1      1     18     11     -0.1485E+05
      2      1     23     22     -0.3063E+05
      3      1     23     15     -0.2952E+05

      3 WELLS

                 RECHARGE =   0.00000    

 REUSING STREAM SEGMENT DATA FROM LAST STRESS PERIOD
 
 SOLVING FOR HEAD 


     6 CALLS TO PCG ROUTINE FOR TIME STEP   1 IN STRESS PERIOD    7
    23 TOTAL ITERATIONS

 OUTPUT CONTROL FOR STRESS PERIOD    7   TIME STEP    1
    SAVE BUDGET
    SAVE HEAD FOR ALL LAYERS
    PRINT HEAD FOR ALL LAYERS
 UBDSV2 SAVING "STREAMFLOW OUT  " ON UNIT  50 AT TIME STEP  1, STRESS PERIOD   7



 STREAM LISTING     PERIOD      7   STEP        1

 LAYER ROW COL. STREAM  RCH.  FLOW INTO     FLOW TO   FLOW OUT OF   OVRLND.     DIRECT     STREAM       STREAM     STREAM     STREAM   STREAMBED  STREAMBED
                SEG.NO.  NO.  STRM. RCH.    AQUIFER    STRM. RCH.    RUNOFF     PRECIP       ET          HEAD       DEPTH      WIDTH   CONDCTNC.   GRADIENT

   1   13    1     1     1    1.0000E+05 -2.6416E+03   1.0264E+05  0.000E+00  0.000E+00  0.000E+00  4.84072E+01  1.458E-01  2.000E+01  2.000E+04 -1.321E-01
   1   13    2     1     2    1.0264E+05 -4.5414E+03   1.0718E+05  0.000E+00  0.000E+00  0.000E+00  4.79330E+01  1.489E-01  2.000E+01  2.000E+04 -2.271E-01
   1   14    3     1     3    1.0718E+05 -3.5142E+03   1.1070E+05  0.000E+00  0.000E+00  0.000E+00  4.74591E+01  1.523E-01  2.000E+01  2.000E+04 -1.757E-01
   1   15    4     1     4    1.1070E+05 -3.3283E+03   1.1403E+05  0.000E+00  0.000E+00  0.000E+00  4.69847E+01  1.551E-01  2.000E+01  2.000E+04 -1.664E-01
   1   16    5     1     5    1.1403E+05 -3.4014E+03   1.1743E+05  0.000E+00  0.000E+00  0.000E+00  4.65102E+01  1.579E-01  2.000E+01  2.000E+04 -1.701E-01
   1   16    6     1     6    1.1743E+05 -2.5891E+03   1.2002E+05  0.000E+00  0.000E+00  0.000E+00  4.60353E+01  1.603E-01  2.000E+01  2.000E+04 -1.295E-01
   1   16    7     1     7    1.2002E+05 -2.4593E+03   1.2248E+05  0.000E+00  0.000E+00  0.000E+00  4.55601E+01  1.624E-01  2.000E+01  2.000E+04 -1.230E-01
   1   16    8     1     8    1.2248E+05 -2.1722E+03   1.2465E+05  0.000E+00  0.000E+00  0.000E+00  4.50847E+01  1.642E-01  2.000E+01  2.000E+04 -1.086E-01
   1   16    9     1     9    1.2465E+05 -1.6404E+03   1.2629E+05  0.000E+00  0.000E+00  0.000E+00  4.46089E+01  1.657E-01  2.000E+01  2.000E+04 -8.202E-02
   1   16   10     1    10    1.2629E+05 -7.7380E+02   1.2706E+05  0.000E+00  0.000E+00  0.000E+00  4.41326E+01  1.667E-01  2.000E+01  2.000E+04 -3.869E-02
   1   16   11     1    11    1.2706E+05  2.8354E+02   1.2678E+05  0.000E+00  0.000E+00  0.000E+00  4.36555E+01  1.669E-01  2.000E+01  2.000E+04  1.418E-02
   1   16   12     1    12    1.2678E+05 -3.4490E+02   1.2712E+05  0.000E+00  0.000E+00  0.000E+00  4.31783E+01  1.669E-01  2.000E+01  2.000E+04 -1.725E-02
   1   15   13     1    13    1.2712E+05 -2.0961E+03   1.2922E+05  0.000E+00  0.000E+00  0.000E+00  4.27020E+01  1.679E-01  2.000E+01  2.000E+04 -1.048E-01
   1   14   14     1    14    1.2922E+05 -2.8044E+03   1.3202E+05  0.000E+00  0.000E+00  0.000E+00  4.22266E+01  1.698E-01  2.000E+01  2.000E+04 -1.402E-01
   1   13   15     1    15    1.3202E+05 -3.4849E+03   1.3551E+05  0.000E+00  0.000E+00  0.000E+00  4.17518E+01  1.722E-01  2.000E+01  2.000E+04 -1.742E-01
   1   12   16     1    16    1.3551E+05 -5.0456E+03   1.4055E+05  0.000E+00  0.000E+00  0.000E+00  4.12778E+01  1.755E-01  2.000E+01  2.000E+04 -2.523E-01
   1   12   17     1    17    1.4055E+05 -3.1666E+03   1.4372E+05  0.000E+00  0.000E+00  0.000E+00  4.08036E+01  1.786E-01  2.000E+01  2.000E+04 -1.583E-01
   1   12   18     1    18    1.4372E+05 -3.0409E+03   1.4676E+05  0.000E+00  0.000E+00  0.000E+00  4.03287E+01  1.810E-01  2.000E+01  2.000E+04 -1.520E-01
   1   12   19     1    19    1.4676E+05 -4.1394E+03   1.5090E+05  0.000E+00  0.000E+00  0.000E+00  3.98541E+01  1.836E-01  2.000E+01  2.000E+04 -2.070E-01
   1   13   20     1    20    1.5090E+05 -2.3000E+03   1.5320E+05  0.000E+00  0.000E+00  0.000E+00  3.93792E+01  1.860E-01  2.000E+01  2.000E+04 -1.150E-01
   1   14   21     1    21    1.5320E+05 -1.2163E+03   1.5442E+05  0.000E+00  0.000E+00  0.000E+00  3.89032E+01  1.873E-01  2.000E+01  2.000E+04 -6.082E-02
   1   14   22     1    22    1.5442E+05  5.1093E+03   1.4931E+05  0.000E+00  0.000E+00  0.000E+00  3.84245E+01  1.859E-01  2.000E+01  2.000E+04  2.555E-01
   1    9   30     2     1    5.0000E+04 -2.6013E+03   5.2601E+04  0.000E+00  0.000E+00  0.000E+00  4.02427E+01  1.177E-01  2.000E+01  2.000E+04 -1.301E-01
   1    9   29     2     2    5.2601E+04 -2.9349E+03   5.5536E+04  0.000E+00  0.000E+00  0.000E+00  3.99964E+01  1.214E-01  2.000E+01  2.000E+04 -1.467E-01
   1    9   28     2     3    5.5536E+04 -3.3181E+03   5.8854E+04  0.000E+00  0.000E+00  0.000E+00  3.97506E+01  1.256E-01  2.000E+01  2.000E+04 -1.659E-01
   1    9   27     2     4    5.8854E+04 -6.0001E+03   6.4854E+04  0.000E+00  0.000E+00  0.000E+00  3.95066E+01  1.316E-01  2.000E+01  2.000E+04 -3.000E-01
   1   10   26     2     5    6.4854E+04 -3.6153E+03   6.8470E+04  0.000E+00  0.000E+00  0.000E+00  3.92627E+01  1.377E-01  2.000E+01  2.000E+04 -1.808E-01
   1   11   25     2     6    6.8470E+04 -2.5773E+03   7.1047E+04  0.000E+00  0.000E+00  0.000E+00  3.90165E+01  1.415E-01  2.000E+01  2.000E+04 -1.289E-01
   1   12   24     2     7    7.1047E+04 -1.7524E+03   7.2799E+04  0.000E+00  0.000E+00  0.000E+00  3.87691E+01  1.441E-01  2.000E+01  2.000E+04 -8.762E-02
   1   13   23     2     8    7.2799E+04 -9.6581E+02   7.3765E+04  0.000E+00  0.000E+00  0.000E+00  3.85207E+01  1.457E-01  2.000E+01  2.000E+04 -4.829E-02
   1   14   22     2     9    7.3765E+04  2.0215E+03   7.1744E+04  0.000E+00  0.000E+00  0.000E+00  3.82701E+01  1.451E-01  2.000E+01  2.000E+04  1.011E-01
   1   14   22     3     1    2.2105E+05 -8.3620E+03   2.2941E+05  0.000E+00  0.000E+00  0.000E+00  3.77509E+01  1.954E-01  2.000E+01  2.000E+04 -4.181E-01
   1   15   23     3     2    2.2941E+05 -1.7349E+03   2.3115E+05  0.000E+00  0.000E+00  0.000E+00  3.68647E+01  1.980E-01  2.000E+01  2.000E+04 -8.674E-02
   1   15   24     3     3    2.3115E+05 -1.3669E+03   2.3252E+05  0.000E+00  0.000E+00  0.000E+00  3.59766E+01  1.988E-01  2.000E+01  2.000E+04 -6.835E-02
   1   15   25     3     4    2.3252E+05 -1.3996E+03   2.3392E+05  0.000E+00  0.000E+00  0.000E+00  3.50884E+01  1.995E-01  2.000E+01  2.000E+04 -6.998E-02
   1   15   26     3     5    2.3392E+05 -1.8802E+03   2.3580E+05  0.000E+00  0.000E+00  0.000E+00  3.42003E+01  2.003E-01  2.000E+01  2.000E+04 -9.401E-02
   1   16   27     3     6    2.3580E+05 -2.4960E+03   2.3829E+05  0.000E+00  0.000E+00  0.000E+00  3.33126E+01  2.015E-01  2.000E+01  2.000E+04 -1.248E-01
   1   17   28     3     7    2.3829E+05 -3.2599E+03   2.4155E+05  0.000E+00  0.000E+00  0.000E+00  3.24251E+01  2.029E-01  2.000E+01  2.000E+04 -1.630E-01
   1   18   29     3     8    2.4155E+05 -4.9000E+03   2.4645E+05  0.000E+00  0.000E+00  0.000E+00  3.15383E+01  2.050E-01  2.000E+01  2.000E+04 -2.450E-01
   1   18   30     3     9    2.4645E+05 -4.3609E+03   2.5081E+05  0.000E+00  0.000E+00  0.000E+00  3.06518E+01  2.073E-01  2.000E+01  2.000E+04 -2.180E-01



1
              HEAD IN LAYER   1 AT END OF TIME STEP   1 IN STRESS PERIOD    7
  ---------------------------------------------------------------------------

          1      2      3      4      5      6      7      8      9     10
         11     12     13     14     15     16     17     18     19     20
         21     22     23     24     25     26     27     28     29     30
 .........................................................................
   1  ****** ****** ****** ****** ****** ****** ****** ****** ****** ******
      ****** ****** ****** ****** ****** ****** ****** ****** ****** ******
      ****** ****** ****** ****** ****** ****** ****** ****** ****** ******
   2  ****** ****** ****** ****** ****** ****** ****** ****** ****** ******
      ****** ****** ****** ****** ****** ****** ****** ****** ****** ******
      ****** ****** ****** ****** ****** ****** ****** ****** ****** ******
   3  ****** ****** ****** ****** ****** ****** ****** ****** ****** ******
      ****** ****** ****** ****** ****** ****** ****** ****** ****** ******
      ****** ****** ****** ****** ****** ****** ****** ****** ****** ******
   4  ****** ****** ****** ****** ****** ****** ****** ****** ****** ******
      ****** ****** ****** ****** ****** ****** ****** ****** ****** ******
      ****** ****** ****** ****** ****** ****** ****** ****** ****** ******
   5  ****** ****** ****** ****** ****** ****** ****** ****** ****** ******
      ****** ****** ****** ****** ****** ****** ****** ****** ****** ******
      ****** ****** ****** ****** ****** ****** ****** ****** ****** ******
   6  ****** ****** ****** ****** ****** ****** ****** ****** ****** ******
      ****** ****** ****** ****** ****** ****** ****** ****** ****** ******
      ****** ****** ****** ****** ****** ****** ****** ****** ****** ******
   7  ****** ****** ****** ****** ****** ****** ****** ****** ****** ******
      ****** ****** ****** ****** ****** ****** ****** ****** ****** ******
      ****** ****** ****** ****** ****** ****** ****** ****** ****** ******
   8  ****** ****** ****** ****** ****** ****** ****** ****** ****** ******
      ****** ****** ****** ****** ****** ****** ****** ****** ****** ******
      ****** ****** ****** ****** ****** ****** ****** ****** ****** ******
   9  ****** ****** ****** ****** ****** ****** ****** ****** ****** ******
      ****** ****** ****** ****** ****** ****** ****** ****** ****** ******
      ****** ****** ****** ****** ****** ****** ****** ****** ****** ******
  10  ****** ****** ****** ****** ****** ****** ****** ****** ****** ******
      ****** ****** ****** ****** ****** ****** ****** ****** ****** ******
      ****** ****** ****** ****** ****** ****** ****** ****** ****** ******
  11  ****** ****** ****** ****** ****** ****** ****** ****** ****** ******
      ****** ****** ****** ****** ****** ****** ****** ****** ****** ******
      ****** ****** ****** ****** ****** ****** ****** ****** ****** ******
  12  ****** ****** ****** ****** ****** ****** ****** ****** ****** ******
      ****** ****** ****** ****** ****** ****** ****** ****** ****** ******
      ****** ****** ****** ****** ****** ****** ****** ****** ****** ******
  13  ****** ****** ****** ****** ****** ****** ****** ****** ****** ******
      ****** ****** ****** ****** ****** ****** ****** ****** ****** ******
      ****** ****** ****** ****** ****** ****** ****** ****** ****** ******
  14  ****** ****** ****** ****** ****** ****** ****** ****** ****** ******
      ****** ****** ****** ****** ****** ****** ****** ****** ****** ******
      ****** ****** ****** ****** ****** ****** ****** ****** ****** ******
  15  ****** ****** ****** ****** ****** ****** ****** ****** ****** ******
      ****** ****** ****** ****** ****** ****** ****** ****** ****** ******
      ****** ****** ****** ****** ****** ****** ****** ****** ****** ******
  16  ****** ****** ****** ****** ****** ****** ****** ****** ****** ******
      ****** ****** ****** ****** ****** ****** ****** ****** ****** ******
      ****** ****** ****** ****** ****** ****** ****** ****** ****** ******
  17  ****** ****** ****** ****** ****** ****** ****** ****** ****** ******
      ****** ****** ****** ****** ****** ****** ****** ****** ****** ******
      ****** ****** ****** ****** ****** ****** ****** ****** ****** ******
  18  ****** ****** ****** ****** ****** ****** ****** ****** ****** ******
      ****** ****** ****** ****** ****** ****** ****** ****** ****** ******
      ****** ****** ****** ****** ****** ****** ****** ****** ****** ******
  19  ****** ****** ****** ****** ****** ****** ****** ****** ****** ******
      ****** ****** ****** ****** ****** ****** ****** ****** ****** ******
      ****** ****** ****** ****** ****** ****** ****** ****** ****** ******
  20  ****** ****** ****** ****** ****** ****** ****** ****** ****** ******
      ****** ****** ****** ****** ****** ****** ****** ****** ****** ******
      ****** ****** ****** ****** ****** ****** ****** ****** ****** ******
  21  ****** ****** ****** ****** ****** ****** ****** ****** ****** ******
      ****** ****** ****** ****** ****** ****** ****** ****** ****** ******
      ****** ****** ****** ****** ****** ****** ****** ****** ****** ******
  22  ****** ****** ****** ****** ****** ****** ****** ****** ****** ******
      ****** ****** ****** ****** ****** ****** ****** ****** ****** ******
      ****** ****** ****** ****** ****** ****** ****** ****** ****** ******
  23  ****** ****** ****** ****** ****** ****** ****** ****** ****** ******
      ****** ****** ****** ****** ****** ****** ****** ****** ****** ******
      ****** ****** ****** ****** ****** ****** ****** ****** ****** ******
  24  ****** ****** ****** ****** ****** ****** ****** ****** ****** ******
      ****** ****** ****** ****** ****** ****** ****** ****** ****** ******
      ****** ****** ****** ****** ****** ****** ****** ****** ****** ******
  25  ****** ****** ****** ****** ****** ****** ****** ****** ****** ******
      ****** ****** ****** ****** ****** ****** ****** ****** ****** ******
      ****** ****** ****** ****** ****** ****** ****** ****** ****** ******

 HEAD WILL BE SAVED ON UNIT   51 AT END OF TIME STEP    1, STRESS PERIOD    7
1
  VOLUMETRIC BUDGET FOR ENTIRE MODEL AT END OF TIME STEP    1, STRESS PERIOD   7
  ------------------------------------------------------------------------------

     CUMULATIVE VOLUMES      L**3       RATES FOR THIS TIME STEP      L**3/T
     ------------------                 ------------------------

           IN:                                      IN:
           ---                                      ---
             STORAGE =    24426313.3625               STORAGE =        8954.4047
       CONSTANT HEAD =   102215232.6901         CONSTANT HEAD =      169952.2559
               WELLS =           0.0000                 WELLS =           0.0000
            RECHARGE =    15097200.0000              RECHARGE =           0.0000
      STREAM LEAKAGE =     6417164.2483        STREAM LEAKAGE =        7414.3783

            TOTAL IN =   148155910.3010              TOTAL IN =      186321.0389

          OUT:                                     OUT:
          ----                                     ----
             STORAGE =     1219959.3759               STORAGE =        3085.9687
       CONSTANT HEAD =           0.0000         CONSTANT HEAD =           0.0000
               WELLS =    61059971.5205                 WELLS =       75008.6966
            RECHARGE =           0.0000              RECHARGE =           0.0000
      STREAM LEAKAGE =    85875980.2013        STREAM LEAKAGE =      108226.3748

           TOTAL OUT =   148155911.0977             TOTAL OUT =      186321.0400

            IN - OUT =          -0.7968              IN - OUT =      -1.1618E-03

 PERCENT DISCREPANCY =          -0.00     PERCENT DISCREPANCY =          -0.00






         TIME SUMMARY AT END OF TIME STEP    1 IN STRESS PERIOD    7
                    SECONDS     MINUTES      HOURS       DAYS        YEARS
                    -----------------------------------------------------------
   TIME STEP LENGTH 7.86240E+06 1.31040E+05  2184.0      91.000     0.24914    
 STRESS PERIOD TIME 7.86240E+06 1.31040E+05  2184.0      91.000     0.24914    
         TOTAL TIME 5.52096E+07 9.20160E+05  15336.      639.00      1.7495    
1
1
                            STRESS PERIOD NO.    8, LENGTH =   91.00000    
                            -----------------------------------------------

                              NUMBER OF TIME STEPS =     1

                               MULTIPLIER FOR DELT =     1.500

                            INITIAL TIME STEP SIZE =   91.00000    

 WELL NO.  LAYER   ROW   COL   STRESS RATE         
 --------------------------------------------------
      1      1     18     11     -0.1485E+05
      2      1     23     22     -0.3063E+05
      3      1     23     15     -0.2952E+05

      3 WELLS

                 RECHARGE =  1.000000E-03

 REUSING STREAM SEGMENT DATA FROM LAST STRESS PERIOD
 
 SOLVING FOR HEAD 


     6 CALLS TO PCG ROUTINE FOR TIME STEP   1 IN STRESS PERIOD    8
    23 TOTAL ITERATIONS

 OUTPUT CONTROL FOR STRESS PERIOD    8   TIME STEP    1
    SAVE BUDGET
    SAVE HEAD FOR ALL LAYERS
    PRINT HEAD FOR ALL LAYERS
 UBDSV2 SAVING "STREAMFLOW OUT  " ON UNIT  50 AT TIME STEP  1, STRESS PERIOD   8



 STREAM LISTING     PERIOD      8   STEP        1

 LAYER ROW COL. STREAM  RCH.  FLOW INTO     FLOW TO   FLOW OUT OF   OVRLND.     DIRECT     STREAM       STREAM     STREAM     STREAM   STREAMBED  STREAMBED
                SEG.NO.  NO.  STRM. RCH.    AQUIFER    STRM. RCH.    RUNOFF     PRECIP       ET          HEAD       DEPTH      WIDTH   CONDCTNC.   GRADIENT

   1   13    1     1     1    1.0000E+05 -2.8219E+03   1.0282E+05  0.000E+00  0.000E+00  0.000E+00  4.84072E+01  1.459E-01  2.000E+01  2.000E+04 -1.411E-01
   1   13    2     1     2    1.0282E+05 -4.7622E+03   1.0758E+05  0.000E+00  0.000E+00  0.000E+00  4.79332E+01  1.491E-01  2.000E+01  2.000E+04 -2.381E-01
   1   14    3     1     3    1.0758E+05 -3.7711E+03   1.1136E+05  0.000E+00  0.000E+00  0.000E+00  4.74595E+01  1.527E-01  2.000E+01  2.000E+04 -1.886E-01
   1   15    4     1     4    1.1136E+05 -3.6045E+03   1.1496E+05  0.000E+00  0.000E+00  0.000E+00  4.69853E+01  1.558E-01  2.000E+01  2.000E+04 -1.802E-01
   1   16    5     1     5    1.1496E+05 -3.7076E+03   1.1867E+05  0.000E+00  0.000E+00  0.000E+00  4.65111E+01  1.588E-01  2.000E+01  2.000E+04 -1.854E-01
   1   16    6     1     6    1.1867E+05 -2.8451E+03   1.2151E+05  0.000E+00  0.000E+00  0.000E+00  4.60364E+01  1.614E-01  2.000E+01  2.000E+04 -1.423E-01
   1   16    7     1     7    1.2151E+05 -2.7423E+03   1.2425E+05  0.000E+00  0.000E+00  0.000E+00  4.55614E+01  1.637E-01  2.000E+01  2.000E+04 -1.371E-01
   1   16    8     1     8    1.2425E+05 -2.4924E+03   1.2675E+05  0.000E+00  0.000E+00  0.000E+00  4.50862E+01  1.658E-01  2.000E+01  2.000E+04 -1.246E-01
   1   16    9     1     9    1.2675E+05 -2.0076E+03   1.2875E+05  0.000E+00  0.000E+00  0.000E+00  4.46107E+01  1.675E-01  2.000E+01  2.000E+04 -1.004E-01
   1   16   10     1    10    1.2875E+05 -1.1940E+03   1.2995E+05  0.000E+00  0.000E+00  0.000E+00  4.41347E+01  1.688E-01  2.000E+01  2.000E+04 -5.970E-02
   1   16   11     1    11    1.2995E+05 -1.7996E+02   1.3013E+05  0.000E+00  0.000E+00  0.000E+00  4.36580E+01  1.693E-01  2.000E+01  2.000E+04 -8.998E-03
   1   16   12     1    12    1.3013E+05 -9.4684E+02   1.3108E+05  0.000E+00  0.000E+00  0.000E+00  4.31811E+01  1.698E-01  2.000E+01  2.000E+04 -4.734E-02
   1   15   13     1    13    1.3108E+05 -2.5207E+03   1.3360E+05  0.000E+00  0.000E+00  0.000E+00  4.27052E+01  1.711E-01  2.000E+01  2.000E+04 -1.260E-01
   1   14   14     1    14    1.3360E+05 -3.1569E+03   1.3675E+05  0.000E+00  0.000E+00  0.000E+00  4.22301E+01  1.733E-01  2.000E+01  2.000E+04 -1.578E-01
   1   13   15     1    15    1.3675E+05 -3.7871E+03   1.4054E+05  0.000E+00  0.000E+00  0.000E+00  4.17555E+01  1.760E-01  2.000E+01  2.000E+04 -1.894E-01
   1   12   16     1    16    1.4054E+05 -5.2859E+03   1.4583E+05  0.000E+00  0.000E+00  0.000E+00  4.12817E+01  1.794E-01  2.000E+01  2.000E+04 -2.643E-01
   1   12   17     1    17    1.4583E+05 -3.3678E+03   1.4919E+05  0.000E+00  0.000E+00  0.000E+00  4.08076E+01  1.826E-01  2.000E+01  2.000E+04 -1.684E-01
   1   12   18     1    18    1.4919E+05 -3.2399E+03   1.5243E+05  0.000E+00  0.000E+00  0.000E+00  4.03328E+01  1.851E-01  2.000E+01  2.000E+04 -1.620E-01
   1   12   19     1    19    1.5243E+05 -4.3685E+03   1.5680E+05  0.000E+00  0.000E+00  0.000E+00  3.98583E+01  1.879E-01  2.000E+01  2.000E+04 -2.184E-01
   1   13   20     1    20    1.5680E+05 -2.5636E+03   1.5937E+05  0.000E+00  0.000E+00  0.000E+00  3.93836E+01  1.904E-01  2.000E+01  2.000E+04 -1.282E-01
   1   14   21     1    21    1.5937E+05 -1.4775E+03   1.6084E+05  0.000E+00  0.000E+00  0.000E+00  3.89078E+01  1.919E-01  2.000E+01  2.000E+04 -7.387E-02
   1   14   22     1    22    1.6084E+05  5.0704E+03   1.5577E+05  0.000E+00  0.000E+00  0.000E+00  3.84292E+01  1.906E-01  2.000E+01  2.000E+04  2.535E-01
   1    9   30     2     1    5.0000E+04 -2.7805E+03   5.2780E+04  0.000E+00  0.000E+00  0.000E+00  4.02428E+01  1.178E-01  2.000E+01  2.000E+04 -1.390E-01
   1    9   29     2     2    5.2780E+04 -3.1123E+03   5.5893E+04  0.000E+00  0.000E+00  0.000E+00  3.99968E+01  1.218E-01  2.000E+01  2.000E+04 -1.556E-01
   1    9   28     2     3    5.5893E+04 -3.4928E+03   5.9386E+04  0.000E+00  0.000E+00  0.000E+00  3.97512E+01  1.262E-01  2.000E+01  2.000E+04 -1.746E-01
   1    9   27     2     4    5.9386E+04 -6.2198E+03   6.5605E+04  0.000E+00  0.000E+00  0.000E+00  3.95075E+01  1.325E-01  2.000E+01  2.000E+04 -3.110E-01
   1   10   26     2     5    6.5605E+04 -3.8522E+03   6.9458E+04  0.000E+00  0.000E+00  0.000E+00  3.92638E+01  1.388E-01  2.000E+01  2.000E+04 -1.926E-01
   1   11   25     2     6    6.9458E+04 -2.8080E+03   7.2266E+04  0.000E+00  0.000E+00  0.000E+00  3.90178E+01  1.428E-01  2.000E+01  2.000E+04 -1.404E-01
   1   12   24     2     7    7.2266E+04 -1.9623E+03   7.4228E+04  0.000E+00  0.000E+00  0.000E+00  3.87707E+01  1.457E-01  2.000E+01  2.000E+04 -9.811E-02
   1   13   23     2     8    7.4228E+04 -1.1378E+03   7.5366E+04  0.000E+00  0.000E+00  0.000E+00  3.85225E+01  1.475E-01  2.000E+01  2.000E+04 -5.689E-02
   1   14   22     2     9    7.5366E+04  1.9279E+03   7.3438E+04  0.000E+00  0.000E+00  0.000E+00  3.82721E+01  1.471E-01  2.000E+01  2.000E+04  9.639E-02
   1   14   22     3     1    2.2921E+05 -8.4102E+03   2.3762E+05  0.000E+00  0.000E+00  0.000E+00  3.77552E+01  1.996E-01  2.000E+01  2.000E+04 -4.205E-01
   1   15   23     3     2    2.3762E+05 -1.9775E+03   2.3960E+05  0.000E+00  0.000E+00  0.000E+00  3.68689E+01  2.023E-01  2.000E+01  2.000E+04 -9.887E-02
   1   15   24     3     3    2.3960E+05 -1.5381E+03   2.4114E+05  0.000E+00  0.000E+00  0.000E+00  3.59809E+01  2.032E-01  2.000E+01  2.000E+04 -7.691E-02
   1   15   25     3     4    2.4114E+05 -1.5674E+03   2.4270E+05  0.000E+00  0.000E+00  0.000E+00  3.50928E+01  2.039E-01  2.000E+01  2.000E+04 -7.837E-02
   1   15   26     3     5    2.4270E+05 -2.0865E+03   2.4479E+05  0.000E+00  0.000E+00  0.000E+00  3.42049E+01  2.049E-01  2.000E+01  2.000E+04 -1.043E-01
   1   16   27     3     6    2.4479E+05 -2.7535E+03   2.4754E+05  0.000E+00  0.000E+00  0.000E+00  3.33172E+01  2.061E-01  2.000E+01  2.000E+04 -1.377E-01
   1   17   28     3     7    2.4754E+05 -3.5211E+03   2.5107E+05  0.000E+00  0.000E+00  0.000E+00  3.24299E+01  2.077E-01  2.000E+01  2.000E+04 -1.761E-01
   1   18   29     3     8    2.5107E+05 -5.1418E+03   2.5621E+05  0.000E+00  0.000E+00  0.000E+00  3.15431E+01  2.098E-01  2.000E+01  2.000E+04 -2.571E-01
   1   18   30     3     9    2.5621E+05 -4.5430E+03   2.6075E+05  0.000E+00  0.000E+00  0.000E+00  3.06566E+01  2.122E-01  2.000E+01  2.000E+04 -2.272E-01



1
              HEAD IN LAYER   1 AT END OF TIME STEP   1 IN STRESS PERIOD    8
  ---------------------------------------------------------------------------

          1      2      3      4      5      6      7      8      9     10
         11     12     13     14     15     16     17     18     19     20
         21     22     23     24     25     26     27     28     29     30
 .........................................................................
   1  ****** ****** ****** ****** ****** ****** ****** ****** ****** ******
      ****** ****** ****** ****** ****** ****** ****** ****** ****** ******
      ****** ****** ****** ****** ****** ****** ****** ****** ****** ******
   2  ****** ****** ****** ****** ****** ****** ****** ****** ****** ******
      ****** ****** ****** ****** ****** ****** ****** ****** ****** ******
      ****** ****** ****** ****** ****** ****** ****** ****** ****** ******
   3  ****** ****** ****** ****** ****** ****** ****** ****** ****** ******
      ****** ****** ****** ****** ****** ****** ****** ****** ****** ******
      ****** ****** ****** ****** ****** ****** ****** ****** ****** ******
   4  ****** ****** ****** ****** ****** ****** ****** ****** ****** ******
      ****** ****** ****** ****** ****** ****** ****** ****** ****** ******
      ****** ****** ****** ****** ****** ****** ****** ****** ****** ******
   5  ****** ****** ****** ****** ****** ****** ****** ****** ****** ******
      ****** ****** ****** ****** ****** ****** ****** ****** ****** ******
      ****** ****** ****** ****** ****** ****** ****** ****** ****** ******
   6  ****** ****** ****** ****** ****** ****** ****** ****** ****** ******
      ****** ****** ****** ****** ****** ****** ****** ****** ****** ******
      ****** ****** ****** ****** ****** ****** ****** ****** ****** ******
   7  ****** ****** ****** ****** ****** ****** ****** ****** ****** ******
      ****** ****** ****** ****** ****** ****** ****** ****** ****** ******
      ****** ****** ****** ****** ****** ****** ****** ****** ****** ******
   8  ****** ****** ****** ****** ****** ****** ****** ****** ****** ******
      ****** ****** ****** ****** ****** ****** ****** ****** ****** ******
      ****** ****** ****** ****** ****** ****** ****** ****** ****** ******
   9  ****** ****** ****** ****** ****** ****** ****** ****** ****** ******
      ****** ****** ****** ****** ****** ****** ****** ****** ****** ******
      ****** ****** ****** ****** ****** ****** ****** ****** ****** ******
  10  ****** ****** ****** ****** ****** ****** ****** ****** ****** ******
      ****** ****** ****** ****** ****** ****** ****** ****** ****** ******
      ****** ****** ****** ****** ****** ****** ****** ****** ****** ******
  11  ****** ****** ****** ****** ****** ****** ****** ****** ****** ******
      ****** ****** ****** ****** ****** ****** ****** ****** ****** ******
      ****** ****** ****** ****** ****** ****** ****** ****** ****** ******
  12  ****** ****** ****** ****** ****** ****** ****** ****** ****** ******
      ****** ****** ****** ****** ****** ****** ****** ****** ****** ******
      ****** ****** ****** ****** ****** ****** ****** ****** ****** ******
  13  ****** ****** ****** ****** ****** ****** ****** ****** ****** ******
      ****** ****** ****** ****** ****** ****** ****** ****** ****** ******
      ****** ****** ****** ****** ****** ****** ****** ****** ****** ******
  14  ****** ****** ****** ****** ****** ****** ****** ****** ****** ******
      ****** ****** ****** ****** ****** ****** ****** ****** ****** ******
      ****** ****** ****** ****** ****** ****** ****** ****** ****** ******
  15  ****** ****** ****** ****** ****** ****** ****** ****** ****** ******
      ****** ****** ****** ****** ****** ****** ****** ****** ****** ******
      ****** ****** ****** ****** ****** ****** ****** ****** ****** ******
  16  ****** ****** ****** ****** ****** ****** ****** ****** ****** ******
      ****** ****** ****** ****** ****** ****** ****** ****** ****** ******
      ****** ****** ****** ****** ****** ****** ****** ****** ****** ******
  17  ****** ****** ****** ****** ****** ****** ****** ****** ****** ******
      ****** ****** ****** ****** ****** ****** ****** ****** ****** ******
      ****** ****** ****** ****** ****** ****** ****** ****** ****** ******
  18  ****** ****** ****** ****** ****** ****** ****** ****** ****** ******
      ****** ****** ****** ****** ****** ****** ****** ****** ****** ******
      ****** ****** ****** ****** ****** ****** ****** ****** ****** ******
  19  ****** ****** ****** ****** ****** ****** ****** ****** ****** ******
      ****** ****** ****** ****** ****** ****** ****** ****** ****** ******
      ****** ****** ****** ****** ****** ****** ****** ****** ****** ******
  20  ****** ****** ****** ****** ****** ****** ****** ****** ****** ******
      ****** ****** ****** ****** ****** ****** ****** ****** ****** ******
      ****** ****** ****** ****** ****** ****** ****** ****** ****** ******
  21  ****** ****** ****** ****** ****** ****** ****** ****** ****** ******
      ****** ****** ****** ****** ****** ****** ****** ****** ****** ******
      ****** ****** ****** ****** ****** ****** ****** ****** ****** ******
  22  ****** ****** ****** ****** ****** ****** ****** ****** ****** ******
      ****** ****** ****** ****** ****** ****** ****** ****** ****** ******
      ****** ****** ****** ****** ****** ****** ****** ****** ****** ******
  23  ****** ****** ****** ****** ****** ****** ****** ****** ****** ******
      ****** ****** ****** ****** ****** ****** ****** ****** ****** ******
      ****** ****** ****** ****** ****** ****** ****** ****** ****** ******
  24  ****** ****** ****** ****** ****** ****** ****** ****** ****** ******
      ****** ****** ****** ****** ****** ****** ****** ****** ****** ******
      ****** ****** ****** ****** ****** ****** ****** ****** ****** ******
  25  ****** ****** ****** ****** ****** ****** ****** ****** ****** ******
      ****** ****** ****** ****** ****** ****** ****** ****** ****** ******
      ****** ****** ****** ****** ****** ****** ****** ****** ****** ******

 HEAD WILL BE SAVED ON UNIT   51 AT END OF TIME STEP    1, STRESS PERIOD    8
1
  VOLUMETRIC BUDGET FOR ENTIRE MODEL AT END OF TIME STEP    1, STRESS PERIOD   8
  ------------------------------------------------------------------------------

     CUMULATIVE VOLUMES      L**3       RATES FOR THIS TIME STEP      L**3/T
     ------------------                 ------------------------

           IN:                                      IN:
           ---                                      ---
             STORAGE =    24426313.3625               STORAGE =           0.0000
       CONSTANT HEAD =   117107128.5451         CONSTANT HEAD =      163647.2072
               WELLS =           0.0000                 WELLS =           0.0000
            RECHARGE =    17608800.0000              RECHARGE =       27600.0000
      STREAM LEAKAGE =     7054003.0364        STREAM LEAKAGE =        6998.2284

            TOTAL IN =   166196244.9440              TOTAL IN =      198245.4356

          OUT:                                     OUT:
          ----                                     ----
             STORAGE =     1719407.4369               STORAGE =        5488.4402
       CONSTANT HEAD =           0.0000         CONSTANT HEAD =           0.0000
               WELLS =    67885762.9080                 WELLS =       75008.6966
            RECHARGE =           0.0000              RECHARGE =           0.0000
      STREAM LEAKAGE =    96591075.2913        STREAM LEAKAGE =      117748.2977

           TOTAL OUT =   166196245.6363             TOTAL OUT =      198245.4345

            IN - OUT =          -0.6922              IN - OUT =       1.1488E-03

 PERCENT DISCREPANCY =          -0.00     PERCENT DISCREPANCY =           0.00






         TIME SUMMARY AT END OF TIME STEP    1 IN STRESS PERIOD    8
                    SECONDS     MINUTES      HOURS       DAYS        YEARS
                    -----------------------------------------------------------
   TIME STEP LENGTH 7.86240E+06 1.31040E+05  2184.0      91.000     0.24914    
 STRESS PERIOD TIME 7.86240E+06 1.31040E+05  2184.0      91.000     0.24914    
         TOTAL TIME 6.30720E+07 1.05120E+06  17520.      730.00      1.9986    
1
1
                            STRESS PERIOD NO.    9, LENGTH =   92.00000    
                            -----------------------------------------------

                              NUMBER OF TIME STEPS =     1

                               MULTIPLIER FOR DELT =     1.500

                            INITIAL TIME STEP SIZE =   92.00000    

 WELL NO.  LAYER   ROW   COL   STRESS RATE         
 --------------------------------------------------
      1      1     18     11     -0.1485E+05
      2      1     23     22     -0.3063E+05
      3      1     23     15     -0.2952E+05

      3 WELLS

                 RECHARGE =  5.000000E-04

 REUSING STREAM SEGMENT DATA FROM LAST STRESS PERIOD
 
 SOLVING FOR HEAD 


     6 CALLS TO PCG ROUTINE FOR TIME STEP   1 IN STRESS PERIOD    9
    22 TOTAL ITERATIONS

 OUTPUT CONTROL FOR STRESS PERIOD    9   TIME STEP    1
    SAVE BUDGET
    SAVE HEAD FOR ALL LAYERS
    PRINT HEAD FOR ALL LAYERS
 UBDSV2 SAVING "STREAMFLOW OUT  " ON UNIT  50 AT TIME STEP  1, STRESS PERIOD   9



 STREAM LISTING     PERIOD      9   STEP        1

 LAYER ROW COL. STREAM  RCH.  FLOW INTO     FLOW TO   FLOW OUT OF   OVRLND.     DIRECT     STREAM       STREAM     STREAM     STREAM   STREAMBED  STREAMBED
                SEG.NO.  NO.  STRM. RCH.    AQUIFER    STRM. RCH.    RUNOFF     PRECIP       ET          HEAD       DEPTH      WIDTH   CONDCTNC.   GRADIENT

   1   13    1     1     1    1.0000E+05 -2.7119E+03   1.0271E+05  0.000E+00  0.000E+00  0.000E+00  4.84072E+01  1.458E-01  2.000E+01  2.000E+04 -1.356E-01
   1   13    2     1     2    1.0271E+05 -4.6148E+03   1.0733E+05  0.000E+00  0.000E+00  0.000E+00  4.79331E+01  1.490E-01  2.000E+01  2.000E+04 -2.307E-01
   1   14    3     1     3    1.0733E+05 -3.6275E+03   1.1095E+05  0.000E+00  0.000E+00  0.000E+00  4.74593E+01  1.524E-01  2.000E+01  2.000E+04 -1.814E-01
   1   15    4     1     4    1.1095E+05 -3.4693E+03   1.1442E+05  0.000E+00  0.000E+00  0.000E+00  4.69849E+01  1.554E-01  2.000E+01  2.000E+04 -1.735E-01
   1   16    5     1     5    1.1442E+05 -3.6015E+03   1.1802E+05  0.000E+00  0.000E+00  0.000E+00  4.65106E+01  1.583E-01  2.000E+01  2.000E+04 -1.801E-01
   1   16    6     1     6    1.1802E+05 -2.7595E+03   1.2078E+05  0.000E+00  0.000E+00  0.000E+00  4.60359E+01  1.609E-01  2.000E+01  2.000E+04 -1.380E-01
   1   16    7     1     7    1.2078E+05 -2.6584E+03   1.2344E+05  0.000E+00  0.000E+00  0.000E+00  4.55608E+01  1.631E-01  2.000E+01  2.000E+04 -1.329E-01
   1   16    8     1     8    1.2344E+05 -2.4123E+03   1.2586E+05  0.000E+00  0.000E+00  0.000E+00  4.50856E+01  1.651E-01  2.000E+01  2.000E+04 -1.206E-01
   1   16    9     1     9    1.2586E+05 -1.9331E+03   1.2779E+05  0.000E+00  0.000E+00  0.000E+00  4.46100E+01  1.668E-01  2.000E+01  2.000E+04 -9.665E-02
   1   16   10     1    10    1.2779E+05 -1.1261E+03   1.2891E+05  0.000E+00  0.000E+00  0.000E+00  4.41339E+01  1.680E-01  2.000E+01  2.000E+04 -5.631E-02
   1   16   11     1    11    1.2891E+05 -1.1943E+02   1.2903E+05  0.000E+00  0.000E+00  0.000E+00  4.36571E+01  1.685E-01  2.000E+01  2.000E+04 -5.972E-03
   1   16   12     1    12    1.2903E+05 -8.8818E+02   1.2992E+05  0.000E+00  0.000E+00  0.000E+00  4.31803E+01  1.689E-01  2.000E+01  2.000E+04 -4.441E-02
   1   15   13     1    13    1.2992E+05 -2.4167E+03   1.3234E+05  0.000E+00  0.000E+00  0.000E+00  4.27043E+01  1.702E-01  2.000E+01  2.000E+04 -1.208E-01
   1   14   14     1    14    1.3234E+05 -3.0351E+03   1.3537E+05  0.000E+00  0.000E+00  0.000E+00  4.22291E+01  1.723E-01  2.000E+01  2.000E+04 -1.518E-01
   1   13   15     1    15    1.3537E+05 -3.6557E+03   1.3903E+05  0.000E+00  0.000E+00  0.000E+00  4.17544E+01  1.749E-01  2.000E+01  2.000E+04 -1.828E-01
   1   12   16     1    16    1.3903E+05 -5.1481E+03   1.4418E+05  0.000E+00  0.000E+00  0.000E+00  4.12805E+01  1.782E-01  2.000E+01  2.000E+04 -2.574E-01
   1   12   17     1    17    1.4418E+05 -3.2693E+03   1.4745E+05  0.000E+00  0.000E+00  0.000E+00  4.08064E+01  1.814E-01  2.000E+01  2.000E+04 -1.635E-01
   1   12   18     1    18    1.4745E+05 -3.1430E+03   1.5059E+05  0.000E+00  0.000E+00  0.000E+00  4.03315E+01  1.838E-01  2.000E+01  2.000E+04 -1.572E-01
   1   12   19     1    19    1.5059E+05 -4.2456E+03   1.5484E+05  0.000E+00  0.000E+00  0.000E+00  3.98569E+01  1.865E-01  2.000E+01  2.000E+04 -2.123E-01
   1   13   20     1    20    1.5484E+05 -2.4536E+03   1.5729E+05  0.000E+00  0.000E+00  0.000E+00  3.93821E+01  1.889E-01  2.000E+01  2.000E+04 -1.227E-01
   1   14   21     1    21    1.5729E+05 -1.3881E+03   1.5868E+05  0.000E+00  0.000E+00  0.000E+00  3.89062E+01  1.903E-01  2.000E+01  2.000E+04 -6.940E-02
   1   14   22     1    22    1.5868E+05  5.0927E+03   1.5358E+05  0.000E+00  0.000E+00  0.000E+00  3.84276E+01  1.890E-01  2.000E+01  2.000E+04  2.546E-01
   1    9   30     2     1    5.0000E+04 -2.6810E+03   5.2681E+04  0.000E+00  0.000E+00  0.000E+00  4.02427E+01  1.177E-01  2.000E+01  2.000E+04 -1.341E-01
   1    9   29     2     2    5.2681E+04 -3.0136E+03   5.5695E+04  0.000E+00  0.000E+00  0.000E+00  3.99966E+01  1.216E-01  2.000E+01  2.000E+04 -1.507E-01
   1    9   28     2     3    5.5695E+04 -3.3946E+03   5.9089E+04  0.000E+00  0.000E+00  0.000E+00  3.97509E+01  1.259E-01  2.000E+01  2.000E+04 -1.697E-01
   1    9   27     2     4    5.9089E+04 -6.0906E+03   6.5180E+04  0.000E+00  0.000E+00  0.000E+00  3.95070E+01  1.320E-01  2.000E+01  2.000E+04 -3.045E-01
   1   10   26     2     5    6.5180E+04 -3.7165E+03   6.8896E+04  0.000E+00  0.000E+00  0.000E+00  3.92632E+01  1.382E-01  2.000E+01  2.000E+04 -1.858E-01
   1   11   25     2     6    6.8896E+04 -2.6769E+03   7.1573E+04  0.000E+00  0.000E+00  0.000E+00  3.90171E+01  1.421E-01  2.000E+01  2.000E+04 -1.338E-01
   1   12   24     2     7    7.1573E+04 -1.8447E+03   7.3418E+04  0.000E+00  0.000E+00  0.000E+00  3.87698E+01  1.448E-01  2.000E+01  2.000E+04 -9.223E-02
   1   13   23     2     8    7.3418E+04 -1.0443E+03   7.4462E+04  0.000E+00  0.000E+00  0.000E+00  3.85215E+01  1.465E-01  2.000E+01  2.000E+04 -5.221E-02
   1   14   22     2     9    7.4462E+04  1.9599E+03   7.2502E+04  0.000E+00  0.000E+00  0.000E+00  3.82710E+01  1.460E-01  2.000E+01  2.000E+04  9.799E-02
   1   14   22     3     1    2.2609E+05 -8.3887E+03   2.3448E+05  0.000E+00  0.000E+00  0.000E+00  3.77536E+01  1.980E-01  2.000E+01  2.000E+04 -4.194E-01
   1   15   23     3     2    2.3448E+05 -1.8935E+03   2.3637E+05  0.000E+00  0.000E+00  0.000E+00  3.68673E+01  2.006E-01  2.000E+01  2.000E+04 -9.468E-02
   1   15   24     3     3    2.3637E+05 -1.4683E+03   2.3784E+05  0.000E+00  0.000E+00  0.000E+00  3.59793E+01  2.015E-01  2.000E+01  2.000E+04 -7.341E-02
   1   15   25     3     4    2.3784E+05 -1.4933E+03   2.3933E+05  0.000E+00  0.000E+00  0.000E+00  3.50911E+01  2.022E-01  2.000E+01  2.000E+04 -7.466E-02
   1   15   26     3     5    2.3933E+05 -1.9862E+03   2.4132E+05  0.000E+00  0.000E+00  0.000E+00  3.42031E+01  2.031E-01  2.000E+01  2.000E+04 -9.931E-02
   1   16   27     3     6    2.4132E+05 -2.6337E+03   2.4395E+05  0.000E+00  0.000E+00  0.000E+00  3.33154E+01  2.043E-01  2.000E+01  2.000E+04 -1.317E-01
   1   17   28     3     7    2.4395E+05 -3.3996E+03   2.4735E+05  0.000E+00  0.000E+00  0.000E+00  3.24280E+01  2.058E-01  2.000E+01  2.000E+04 -1.700E-01
   1   18   29     3     8    2.4735E+05 -5.0303E+03   2.5238E+05  0.000E+00  0.000E+00  0.000E+00  3.15413E+01  2.079E-01  2.000E+01  2.000E+04 -2.515E-01
   1   18   30     3     9    2.5238E+05 -4.4541E+03   2.5683E+05  0.000E+00  0.000E+00  0.000E+00  3.06547E+01  2.103E-01  2.000E+01  2.000E+04 -2.227E-01



1
              HEAD IN LAYER   1 AT END OF TIME STEP   1 IN STRESS PERIOD    9
  ---------------------------------------------------------------------------

          1      2      3      4      5      6      7      8      9     10
         11     12     13     14     15     16     17     18     19     20
         21     22     23     24     25     26     27     28     29     30
 .........................................................................
   1  ****** ****** ****** ****** ****** ****** ****** ****** ****** ******
      ****** ****** ****** ****** ****** ****** ****** ****** ****** ******
      ****** ****** ****** ****** ****** ****** ****** ****** ****** ******
   2  ****** ****** ****** ****** ****** ****** ****** ****** ****** ******
      ****** ****** ****** ****** ****** ****** ****** ****** ****** ******
      ****** ****** ****** ****** ****** ****** ****** ****** ****** ******
   3  ****** ****** ****** ****** ****** ****** ****** ****** ****** ******
      ****** ****** ****** ****** ****** ****** ****** ****** ****** ******
      ****** ****** ****** ****** ****** ****** ****** ****** ****** ******
   4  ****** ****** ****** ****** ****** ****** ****** ****** ****** ******
      ****** ****** ****** ****** ****** ****** ****** ****** ****** ******
      ****** ****** ****** ****** ****** ****** ****** ****** ****** ******
   5  ****** ****** ****** ****** ****** ****** ****** ****** ****** ******
      ****** ****** ****** ****** ****** ****** ****** ****** ****** ******
      ****** ****** ****** ****** ****** ****** ****** ****** ****** ******
   6  ****** ****** ****** ****** ****** ****** ****** ****** ****** ******
      ****** ****** ****** ****** ****** ****** ****** ****** ****** ******
      ****** ****** ****** ****** ****** ****** ****** ****** ****** ******
   7  ****** ****** ****** ****** ****** ****** ****** ****** ****** ******
      ****** ****** ****** ****** ****** ****** ****** ****** ****** ******
      ****** ****** ****** ****** ****** ****** ****** ****** ****** ******
   8  ****** ****** ****** ****** ****** ****** ****** ****** ****** ******
      ****** ****** ****** ****** ****** ****** ****** ****** ****** ******
      ****** ****** ****** ****** ****** ****** ****** ****** ****** ******
   9  ****** ****** ****** ****** ****** ****** ****** ****** ****** ******
      ****** ****** ****** ****** ****** ****** ****** ****** ****** ******
      ****** ****** ****** ****** ****** ****** ****** ****** ****** ******
  10  ****** ****** ****** ****** ****** ****** ****** ****** ****** ******
      ****** ****** ****** ****** ****** ****** ****** ****** ****** ******
      ****** ****** ****** ****** ****** ****** ****** ****** ****** ******
  11  ****** ****** ****** ****** ****** ****** ****** ****** ****** ******
      ****** ****** ****** ****** ****** ****** ****** ****** ****** ******
      ****** ****** ****** ****** ****** ****** ****** ****** ****** ******
  12  ****** ****** ****** ****** ****** ****** ****** ****** ****** ******
      ****** ****** ****** ****** ****** ****** ****** ****** ****** ******
      ****** ****** ****** ****** ****** ****** ****** ****** ****** ******
  13  ****** ****** ****** ****** ****** ****** ****** ****** ****** ******
      ****** ****** ****** ****** ****** ****** ****** ****** ****** ******
      ****** ****** ****** ****** ****** ****** ****** ****** ****** ******
  14  ****** ****** ****** ****** ****** ****** ****** ****** ****** ******
      ****** ****** ****** ****** ****** ****** ****** ****** ****** ******
      ****** ****** ****** ****** ****** ****** ****** ****** ****** ******
  15  ****** ****** ****** ****** ****** ****** ****** ****** ****** ******
      ****** ****** ****** ****** ****** ****** ****** ****** ****** ******
      ****** ****** ****** ****** ****** ****** ****** ****** ****** ******
  16  ****** ****** ****** ****** ****** ****** ****** ****** ****** ******
      ****** ****** ****** ****** ****** ****** ****** ****** ****** ******
      ****** ****** ****** ****** ****** ****** ****** ****** ****** ******
  17  ****** ****** ****** ****** ****** ****** ****** ****** ****** ******
      ****** ****** ****** ****** ****** ****** ****** ****** ****** ******
      ****** ****** ****** ****** ****** ****** ****** ****** ****** ******
  18  ****** ****** ****** ****** ****** ****** ****** ****** ****** ******
      ****** ****** ****** ****** ****** ****** ****** ****** ****** ******
      ****** ****** ****** ****** ****** ****** ****** ****** ****** ******
  19  ****** ****** ****** ****** ****** ****** ****** ****** ****** ******
      ****** ****** ****** ****** ****** ****** ****** ****** ****** ******
      ****** ****** ****** ****** ****** ****** ****** ****** ****** ******
  20  ****** ****** ****** ****** ****** ****** ****** ****** ****** ******
      ****** ****** ****** ****** ****** ****** ****** ****** ****** ******
      ****** ****** ****** ****** ****** ****** ****** ****** ****** ******
  21  ****** ****** ****** ****** ****** ****** ****** ****** ****** ******
      ****** ****** ****** ****** ****** ****** ****** ****** ****** ******
      ****** ****** ****** ****** ****** ****** ****** ****** ****** ******
  22  ****** ****** ****** ****** ****** ****** ****** ****** ****** ******
      ****** ****** ****** ****** ****** ****** ****** ****** ****** ******
      ****** ****** ****** ****** ****** ****** ****** ****** ****** ******
  23  ****** ****** ****** ****** ****** ****** ****** ****** ****** ******
      ****** ****** ****** ****** ****** ****** ****** ****** ****** ******
      ****** ****** ****** ****** ****** ****** ****** ****** ****** ******
  24  ****** ****** ****** ****** ****** ****** ****** ****** ****** ******
      ****** ****** ****** ****** ****** ****** ****** ****** ****** ******
      ****** ****** ****** ****** ****** ****** ****** ****** ****** ******
  25  ****** ****** ****** ****** ****** ****** ****** ****** ****** ******
      ****** ****** ****** ****** ****** ****** ****** ****** ****** ******
      ****** ****** ****** ****** ****** ****** ****** ****** ****** ******

 HEAD WILL BE SAVED ON UNIT   51 AT END OF TIME STEP    1, STRESS PERIOD    9
1
  VOLUMETRIC BUDGET FOR ENTIRE MODEL AT END OF TIME STEP    1, STRESS PERIOD   9
  ------------------------------------------------------------------------------

     CUMULATIVE VOLUMES      L**3       RATES FOR THIS TIME STEP      L**3/T
     ------------------                 ------------------------

           IN:                                      IN:
           ---                                      ---
             STORAGE =    24620631.0493               STORAGE =        2112.1488
       CONSTANT HEAD =   132373002.3027         CONSTANT HEAD =      165933.4104
               WELLS =           0.0000                 WELLS =           0.0000
            RECHARGE =    18878400.0000              RECHARGE =       13800.0000
      STREAM LEAKAGE =     7702835.1731        STREAM LEAKAGE =        7052.5232

            TOTAL IN =   183574868.5251              TOTAL IN =      188898.0824

          OUT:                                     OUT:
          ----                                     ----
             STORAGE =     1719612.7110               STORAGE =           2.2312
       CONSTANT HEAD =           0.0000         CONSTANT HEAD =           0.0000
               WELLS =    74786562.9922                 WELLS =       75008.6966
            RECHARGE =           0.0000              RECHARGE =           0.0000
      STREAM LEAKAGE =   107068693.7535        STREAM LEAKAGE =      113887.1572

           TOTAL OUT =   183574869.4567             TOTAL OUT =      188898.0850

            IN - OUT =          -0.9316              IN - OUT =      -2.6016E-03

 PERCENT DISCREPANCY =          -0.00     PERCENT DISCREPANCY =          -0.00






         TIME SUMMARY AT END OF TIME STEP    1 IN STRESS PERIOD    9
                    SECONDS     MINUTES      HOURS       DAYS        YEARS
                    -----------------------------------------------------------
   TIME STEP LENGTH 7.94880E+06 1.32480E+05  2208.0      92.000     0.25188    
 STRESS PERIOD TIME 7.94880E+06 1.32480E+05  2208.0      92.000     0.25188    
         TOTAL TIME 7.10208E+07 1.18368E+06  19728.      822.00      2.2505    
1
1
                            STRESS PERIOD NO.   10, LENGTH =   91.00000    
                            -----------------------------------------------

                              NUMBER OF TIME STEPS =     1

                               MULTIPLIER FOR DELT =     1.500

                            INITIAL TIME STEP SIZE =   91.00000    

 WELL NO.  LAYER   ROW   COL   STRESS RATE         
 --------------------------------------------------
      1      1     18     11     -0.1485E+05
      2      1     23     22     -0.3063E+05
      3      1     23     15     -0.2952E+05

      3 WELLS

                 RECHARGE =  2.000000E-03

 REUSING STREAM SEGMENT DATA FROM LAST STRESS PERIOD
 
 SOLVING FOR HEAD 


     7 CALLS TO PCG ROUTINE FOR TIME STEP   1 IN STRESS PERIOD   10
    26 TOTAL ITERATIONS

 OUTPUT CONTROL FOR STRESS PERIOD   10   TIME STEP    1
    SAVE BUDGET
    SAVE HEAD FOR ALL LAYERS
    PRINT HEAD FOR ALL LAYERS
 UBDSV2 SAVING "STREAMFLOW OUT  " ON UNIT  50 AT TIME STEP  1, STRESS PERIOD  10



 STREAM LISTING     PERIOD     10   STEP        1

 LAYER ROW COL. STREAM  RCH.  FLOW INTO     FLOW TO   FLOW OUT OF   OVRLND.     DIRECT     STREAM       STREAM     STREAM     STREAM   STREAMBED  STREAMBED
                SEG.NO.  NO.  STRM. RCH.    AQUIFER    STRM. RCH.    RUNOFF     PRECIP       ET          HEAD       DEPTH      WIDTH   CONDCTNC.   GRADIENT

   1   13    1     1     1    1.0000E+05 -3.1373E+03   1.0314E+05  0.000E+00  0.000E+00  0.000E+00  4.84074E+01  1.460E-01  2.000E+01  2.000E+04 -1.569E-01
   1   13    2     1     2    1.0314E+05 -5.1789E+03   1.0832E+05  0.000E+00  0.000E+00  0.000E+00  4.79337E+01  1.496E-01  2.000E+01  2.000E+04 -2.589E-01
   1   14    3     1     3    1.0832E+05 -4.1984E+03   1.1251E+05  0.000E+00  0.000E+00  0.000E+00  4.74603E+01  1.535E-01  2.000E+01  2.000E+04 -2.099E-01
   1   15    4     1     4    1.1251E+05 -4.0352E+03   1.1655E+05  0.000E+00  0.000E+00  0.000E+00  4.69865E+01  1.569E-01  2.000E+01  2.000E+04 -2.018E-01
   1   16    5     1     5    1.1655E+05 -4.1269E+03   1.2068E+05  0.000E+00  0.000E+00  0.000E+00  4.65125E+01  1.603E-01  2.000E+01  2.000E+04 -2.063E-01
   1   16    6     1     6    1.2068E+05 -3.1743E+03   1.2385E+05  0.000E+00  0.000E+00  0.000E+00  4.60382E+01  1.632E-01  2.000E+01  2.000E+04 -1.587E-01
   1   16    7     1     7    1.2385E+05 -3.0804E+03   1.2693E+05  0.000E+00  0.000E+00  0.000E+00  4.55634E+01  1.657E-01  2.000E+01  2.000E+04 -1.540E-01
   1   16    8     1     8    1.2693E+05 -2.8389E+03   1.2977E+05  0.000E+00  0.000E+00  0.000E+00  4.50885E+01  1.680E-01  2.000E+01  2.000E+04 -1.419E-01
   1   16    9     1     9    1.2977E+05 -2.3605E+03   1.3213E+05  0.000E+00  0.000E+00  0.000E+00  4.46132E+01  1.701E-01  2.000E+01  2.000E+04 -1.180E-01
   1   16   10     1    10    1.3213E+05 -1.5506E+03   1.3368E+05  0.000E+00  0.000E+00  0.000E+00  4.41375E+01  1.716E-01  2.000E+01  2.000E+04 -7.753E-02
   1   16   11     1    11    1.3368E+05 -5.3939E+02   1.3422E+05  0.000E+00  0.000E+00  0.000E+00  4.36610E+01  1.724E-01  2.000E+01  2.000E+04 -2.697E-02
   1   16   12     1    12    1.3422E+05 -1.4335E+03   1.3565E+05  0.000E+00  0.000E+00  0.000E+00  4.31845E+01  1.731E-01  2.000E+01  2.000E+04 -7.168E-02
   1   15   13     1    13    1.3565E+05 -3.0029E+03   1.3866E+05  0.000E+00  0.000E+00  0.000E+00  4.27089E+01  1.748E-01  2.000E+01  2.000E+04 -1.501E-01
   1   14   14     1    14    1.3866E+05 -3.6295E+03   1.4229E+05  0.000E+00  0.000E+00  0.000E+00  4.22342E+01  1.774E-01  2.000E+01  2.000E+04 -1.815E-01
   1   13   15     1    15    1.4229E+05 -4.2381E+03   1.4652E+05  0.000E+00  0.000E+00  0.000E+00  4.17599E+01  1.803E-01  2.000E+01  2.000E+04 -2.119E-01
   1   12   16     1    16    1.4652E+05 -5.7038E+03   1.5223E+05  0.000E+00  0.000E+00  0.000E+00  4.12863E+01  1.840E-01  2.000E+01  2.000E+04 -2.852E-01
   1   12   17     1    17    1.5223E+05 -3.6818E+03   1.5591E+05  0.000E+00  0.000E+00  0.000E+00  4.08125E+01  1.875E-01  2.000E+01  2.000E+04 -1.841E-01
   1   12   18     1    18    1.5591E+05 -3.5475E+03   1.5946E+05  0.000E+00  0.000E+00  0.000E+00  4.03378E+01  1.901E-01  2.000E+01  2.000E+04 -1.774E-01
   1   12   19     1    19    1.5946E+05 -4.7362E+03   1.6419E+05  0.000E+00  0.000E+00  0.000E+00  3.98635E+01  1.931E-01  2.000E+01  2.000E+04 -2.368E-01
   1   13   20     1    20    1.6419E+05 -2.9334E+03   1.6713E+05  0.000E+00  0.000E+00  0.000E+00  3.93890E+01  1.958E-01  2.000E+01  2.000E+04 -1.467E-01
   1   14   21     1    21    1.6713E+05 -1.8336E+03   1.6896E+05  0.000E+00  0.000E+00  0.000E+00  3.89134E+01  1.975E-01  2.000E+01  2.000E+04 -9.168E-02
   1   14   22     1    22    1.6896E+05  5.0130E+03   1.6395E+05  0.000E+00  0.000E+00  0.000E+00  3.84350E+01  1.964E-01  2.000E+01  2.000E+04  2.506E-01
   1    9   30     2     1    5.0000E+04 -3.0424E+03   5.3042E+04  0.000E+00  0.000E+00  0.000E+00  4.02430E+01  1.180E-01  2.000E+01  2.000E+04 -1.521E-01
   1    9   29     2     2    5.3042E+04 -3.3722E+03   5.6415E+04  0.000E+00  0.000E+00  0.000E+00  3.99973E+01  1.223E-01  2.000E+01  2.000E+04 -1.686E-01
   1    9   28     2     3    5.6415E+04 -3.7517E+03   6.0166E+04  0.000E+00  0.000E+00  0.000E+00  3.97520E+01  1.270E-01  2.000E+01  2.000E+04 -1.876E-01
   1    9   27     2     4    6.0166E+04 -6.5703E+03   6.6737E+04  0.000E+00  0.000E+00  0.000E+00  3.95087E+01  1.337E-01  2.000E+01  2.000E+04 -3.285E-01
   1   10   26     2     5    6.6737E+04 -4.2119E+03   7.0949E+04  0.000E+00  0.000E+00  0.000E+00  3.92654E+01  1.404E-01  2.000E+01  2.000E+04 -2.106E-01
   1   11   25     2     6    7.0949E+04 -3.1510E+03   7.4100E+04  0.000E+00  0.000E+00  0.000E+00  3.90198E+01  1.448E-01  2.000E+01  2.000E+04 -1.576E-01
   1   12   24     2     7    7.4100E+04 -2.2636E+03   7.6363E+04  0.000E+00  0.000E+00  0.000E+00  3.87731E+01  1.481E-01  2.000E+01  2.000E+04 -1.132E-01
   1   13   23     2     8    7.6363E+04 -1.3709E+03   7.7734E+04  0.000E+00  0.000E+00  0.000E+00  3.85252E+01  1.502E-01  2.000E+01  2.000E+04 -6.855E-02
   1   14   22     2     9    7.7734E+04  1.8112E+03   7.5923E+04  0.000E+00  0.000E+00  0.000E+00  3.82749E+01  1.499E-01  2.000E+01  2.000E+04  9.056E-02
   1   14   22     3     1    2.3987E+05 -8.4754E+03   2.4835E+05  0.000E+00  0.000E+00  0.000E+00  3.77606E+01  2.050E-01  2.000E+01  2.000E+04 -4.238E-01
   1   15   23     3     2    2.4835E+05 -2.3092E+03   2.5066E+05  0.000E+00  0.000E+00  0.000E+00  3.68744E+01  2.078E-01  2.000E+01  2.000E+04 -1.155E-01
   1   15   24     3     3    2.5066E+05 -1.7649E+03   2.5242E+05  0.000E+00  0.000E+00  0.000E+00  3.59865E+01  2.088E-01  2.000E+01  2.000E+04 -8.824E-02
   1   15   25     3     4    2.5242E+05 -1.7883E+03   2.5421E+05  0.000E+00  0.000E+00  0.000E+00  3.50985E+01  2.097E-01  2.000E+01  2.000E+04 -8.941E-02
   1   15   26     3     5    2.5421E+05 -2.3628E+03   2.5657E+05  0.000E+00  0.000E+00  0.000E+00  3.42107E+01  2.107E-01  2.000E+01  2.000E+04 -1.181E-01
   1   16   27     3     6    2.5657E+05 -3.1092E+03   2.5968E+05  0.000E+00  0.000E+00  0.000E+00  3.33231E+01  2.120E-01  2.000E+01  2.000E+04 -1.555E-01
   1   17   28     3     7    2.5968E+05 -3.8854E+03   2.6357E+05  0.000E+00  0.000E+00  0.000E+00  3.24360E+01  2.137E-01  2.000E+01  2.000E+04 -1.943E-01
   1   18   29     3     8    2.6357E+05 -5.4875E+03   2.6905E+05  0.000E+00  0.000E+00  0.000E+00  3.15494E+01  2.160E-01  2.000E+01  2.000E+04 -2.744E-01
   1   18   30     3     9    2.6905E+05 -4.7965E+03   2.7385E+05  0.000E+00  0.000E+00  0.000E+00  3.06630E+01  2.185E-01  2.000E+01  2.000E+04 -2.398E-01



1
              HEAD IN LAYER   1 AT END OF TIME STEP   1 IN STRESS PERIOD   10
  ---------------------------------------------------------------------------

          1      2      3      4      5      6      7      8      9     10
         11     12     13     14     15     16     17     18     19     20
         21     22     23     24     25     26     27     28     29     30
 .........................................................................
   1  ****** ****** ****** ****** ****** ****** ****** ****** ****** ******
      ****** ****** ****** ****** ****** ****** ****** ****** ****** ******
      ****** ****** ****** ****** ****** ****** ****** ****** ****** ******
   2  ****** ****** ****** ****** ****** ****** ****** ****** ****** ******
      ****** ****** ****** ****** ****** ****** ****** ****** ****** ******
      ****** ****** ****** ****** ****** ****** ****** ****** ****** ******
   3  ****** ****** ****** ****** ****** ****** ****** ****** ****** ******
      ****** ****** ****** ****** ****** ****** ****** ****** ****** ******
      ****** ****** ****** ****** ****** ****** ****** ****** ****** ******
   4  ****** ****** ****** ****** ****** ****** ****** ****** ****** ******
      ****** ****** ****** ****** ****** ****** ****** ****** ****** ******
      ****** ****** ****** ****** ****** ****** ****** ****** ****** ******
   5  ****** ****** ****** ****** ****** ****** ****** ****** ****** ******
      ****** ****** ****** ****** ****** ****** ****** ****** ****** ******
      ****** ****** ****** ****** ****** ****** ****** ****** ****** ******
   6  ****** ****** ****** ****** ****** ****** ****** ****** ****** ******
      ****** ****** ****** ****** ****** ****** ****** ****** ****** ******
      ****** ****** ****** ****** ****** ****** ****** ****** ****** ******
   7  ****** ****** ****** ****** ****** ****** ****** ****** ****** ******
      ****** ****** ****** ****** ****** ****** ****** ****** ****** ******
      ****** ****** ****** ****** ****** ****** ****** ****** ****** ******
   8  ****** ****** ****** ****** ****** ****** ****** ****** ****** ******
      ****** ****** ****** ****** ****** ****** ****** ****** ****** ******
      ****** ****** ****** ****** ****** ****** ****** ****** ****** ******
   9  ****** ****** ****** ****** ****** ****** ****** ****** ****** ******
      ****** ****** ****** ****** ****** ****** ****** ****** ****** ******
      ****** ****** ****** ****** ****** ****** ****** ****** ****** ******
  10  ****** ****** ****** ****** ****** ****** ****** ****** ****** ******
      ****** ****** ****** ****** ****** ****** ****** ****** ****** ******
      ****** ****** ****** ****** ****** ****** ****** ****** ****** ******
  11  ****** ****** ****** ****** ****** ****** ****** ****** ****** ******
      ****** ****** ****** ****** ****** ****** ****** ****** ****** ******
      ****** ****** ****** ****** ****** ****** ****** ****** ****** ******
  12  ****** ****** ****** ****** ****** ****** ****** ****** ****** ******
      ****** ****** ****** ****** ****** ****** ****** ****** ****** ******
      ****** ****** ****** ****** ****** ****** ****** ****** ****** ******
  13  ****** ****** ****** ****** ****** ****** ****** ****** ****** ******
      ****** ****** ****** ****** ****** ****** ****** ****** ****** ******
      ****** ****** ****** ****** ****** ****** ****** ****** ****** ******
  14  ****** ****** ****** ****** ****** ****** ****** ****** ****** ******
      ****** ****** ****** ****** ****** ****** ****** ****** ****** ******
      ****** ****** ****** ****** ****** ****** ****** ****** ****** ******
  15  ****** ****** ****** ****** ****** ****** ****** ****** ****** ******
      ****** ****** ****** ****** ****** ****** ****** ****** ****** ******
      ****** ****** ****** ****** ****** ****** ****** ****** ****** ******
  16  ****** ****** ****** ****** ****** ****** ****** ****** ****** ******
      ****** ****** ****** ****** ****** ****** ****** ****** ****** ******
      ****** ****** ****** ****** ****** ****** ****** ****** ****** ******
  17  ****** ****** ****** ****** ****** ****** ****** ****** ****** ******
      ****** ****** ****** ****** ****** ****** ****** ****** ****** ******
      ****** ****** ****** ****** ****** ****** ****** ****** ****** ******
  18  ****** ****** ****** ****** ****** ****** ****** ****** ****** ******
      ****** ****** ****** ****** ****** ****** ****** ****** ****** ******
      ****** ****** ****** ****** ****** ****** ****** ****** ****** ******
  19  ****** ****** ****** ****** ****** ****** ****** ****** ****** ******
      ****** ****** ****** ****** ****** ****** ****** ****** ****** ******
      ****** ****** ****** ****** ****** ****** ****** ****** ****** ******
  20  ****** ****** ****** ****** ****** ****** ****** ****** ****** ******
      ****** ****** ****** ****** ****** ****** ****** ****** ****** ******
      ****** ****** ****** ****** ****** ****** ****** ****** ****** ******
  21  ****** ****** ****** ****** ****** ****** ****** ****** ****** ******
      ****** ****** ****** ****** ****** ****** ****** ****** ****** ******
      ****** ****** ****** ****** ****** ****** ****** ****** ****** ******
  22  ****** ****** ****** ****** ****** ****** ****** ****** ****** ******
      ****** ****** ****** ****** ****** ****** ****** ****** ****** ******
      ****** ****** ****** ****** ****** ****** ****** ****** ****** ******
  23  ****** ****** ****** ****** ****** ****** ****** ****** ****** ******
      ****** ****** ****** ****** ****** ****** ****** ****** ****** ******
      ****** ****** ****** ****** ****** ****** ****** ****** ****** ******
  24  ****** ****** ****** ****** ****** ****** ****** ****** ****** ******
      ****** ****** ****** ****** ****** ****** ****** ****** ****** ******
      ****** ****** ****** ****** ****** ****** ****** ****** ****** ******
  25  ****** ****** ****** ****** ****** ****** ****** ****** ****** ******
      ****** ****** ****** ****** ****** ****** ****** ****** ****** ******
      ****** ****** ****** ****** ****** ****** ****** ****** ****** ******

 HEAD WILL BE SAVED ON UNIT   51 AT END OF TIME STEP    1, STRESS PERIOD   10
1
  VOLUMETRIC BUDGET FOR ENTIRE MODEL AT END OF TIME STEP    1, STRESS PERIOD  10
  ------------------------------------------------------------------------------

     CUMULATIVE VOLUMES      L**3       RATES FOR THIS TIME STEP      L**3/T
     ------------------                 ------------------------

           IN:                                      IN:
           ---                                      ---
             STORAGE =    24620631.0493               STORAGE =           0.0000
       CONSTANT HEAD =   146441273.8183         CONSTANT HEAD =      154596.3903
               WELLS =           0.0000                 WELLS =           0.0000
            RECHARGE =    23901600.0000              RECHARGE =       55200.0000
      STREAM LEAKAGE =     8323837.6232        STREAM LEAKAGE =        6824.2027

            TOTAL IN =   203287342.4908              TOTAL IN =      216620.5930

          OUT:                                     OUT:
          ----                                     ----
             STORAGE =     2714938.9456               STORAGE =       10937.6509
       CONSTANT HEAD =           0.0000         CONSTANT HEAD =           0.0000
               WELLS =    81612354.3798                 WELLS =       75008.6966
            RECHARGE =           0.0000              RECHARGE =           0.0000
      STREAM LEAKAGE =   118960049.9338        STREAM LEAKAGE =      130674.2437

           TOTAL OUT =   203287343.2591             TOTAL OUT =      216620.5912

            IN - OUT =          -0.7683              IN - OUT =       1.7941E-03

 PERCENT DISCREPANCY =          -0.00     PERCENT DISCREPANCY =           0.00






         TIME SUMMARY AT END OF TIME STEP    1 IN STRESS PERIOD   10
                    SECONDS     MINUTES      HOURS       DAYS        YEARS
                    -----------------------------------------------------------
   TIME STEP LENGTH 7.86240E+06 1.31040E+05  2184.0      91.000     0.24914    
 STRESS PERIOD TIME 7.86240E+06 1.31040E+05  2184.0      91.000     0.24914    
         TOTAL TIME 7.88832E+07 1.31472E+06  21912.      913.00      2.4997    
1
1
                            STRESS PERIOD NO.   11, LENGTH =   91.00000    
                            -----------------------------------------------

                              NUMBER OF TIME STEPS =     1

                               MULTIPLIER FOR DELT =     1.500

                            INITIAL TIME STEP SIZE =   91.00000    

 WELL NO.  LAYER   ROW   COL   STRESS RATE         
 --------------------------------------------------
      1      1     18     11     -0.1485E+05
      2      1     23     22     -0.3063E+05
      3      1     23     15     -0.2952E+05

      3 WELLS

                 RECHARGE =   0.00000    

 REUSING STREAM SEGMENT DATA FROM LAST STRESS PERIOD
 
 SOLVING FOR HEAD 


     7 CALLS TO PCG ROUTINE FOR TIME STEP   1 IN STRESS PERIOD   11
    26 TOTAL ITERATIONS

 OUTPUT CONTROL FOR STRESS PERIOD   11   TIME STEP    1
    SAVE BUDGET
    SAVE HEAD FOR ALL LAYERS
    PRINT HEAD FOR ALL LAYERS
 UBDSV2 SAVING "STREAMFLOW OUT  " ON UNIT  50 AT TIME STEP  1, STRESS PERIOD  11



 STREAM LISTING     PERIOD     11   STEP        1

 LAYER ROW COL. STREAM  RCH.  FLOW INTO     FLOW TO   FLOW OUT OF   OVRLND.     DIRECT     STREAM       STREAM     STREAM     STREAM   STREAMBED  STREAMBED
                SEG.NO.  NO.  STRM. RCH.    AQUIFER    STRM. RCH.    RUNOFF     PRECIP       ET          HEAD       DEPTH      WIDTH   CONDCTNC.   GRADIENT

   1   13    1     1     1    1.0000E+05 -2.6539E+03   1.0265E+05  0.000E+00  0.000E+00  0.000E+00  4.84072E+01  1.458E-01  2.000E+01  2.000E+04 -1.327E-01
   1   13    2     1     2    1.0265E+05 -4.5466E+03   1.0720E+05  0.000E+00  0.000E+00  0.000E+00  4.79330E+01  1.489E-01  2.000E+01  2.000E+04 -2.273E-01
   1   14    3     1     3    1.0720E+05 -3.5451E+03   1.1075E+05  0.000E+00  0.000E+00  0.000E+00  4.74591E+01  1.523E-01  2.000E+01  2.000E+04 -1.773E-01
   1   15    4     1     4    1.1075E+05 -3.3856E+03   1.1413E+05  0.000E+00  0.000E+00  0.000E+00  4.69847E+01  1.552E-01  2.000E+01  2.000E+04 -1.693E-01
   1   16    5     1     5    1.1413E+05 -3.5286E+03   1.1766E+05  0.000E+00  0.000E+00  0.000E+00  4.65103E+01  1.580E-01  2.000E+01  2.000E+04 -1.764E-01
   1   16    6     1     6    1.1766E+05 -2.7006E+03   1.2036E+05  0.000E+00  0.000E+00  0.000E+00  4.60356E+01  1.606E-01  2.000E+01  2.000E+04 -1.350E-01
   1   16    7     1     7    1.2036E+05 -2.5999E+03   1.2296E+05  0.000E+00  0.000E+00  0.000E+00  4.55604E+01  1.627E-01  2.000E+01  2.000E+04 -1.300E-01
   1   16    8     1     8    1.2296E+05 -2.3546E+03   1.2531E+05  0.000E+00  0.000E+00  0.000E+00  4.50851E+01  1.647E-01  2.000E+01  2.000E+04 -1.177E-01
   1   16    9     1     9    1.2531E+05 -1.8764E+03   1.2719E+05  0.000E+00  0.000E+00  0.000E+00  4.46095E+01  1.664E-01  2.000E+01  2.000E+04 -9.382E-02
   1   16   10     1    10    1.2719E+05 -1.0709E+03   1.2826E+05  0.000E+00  0.000E+00  0.000E+00  4.41334E+01  1.675E-01  2.000E+01  2.000E+04 -5.355E-02
   1   16   11     1    11    1.2826E+05 -6.6377E+01   1.2833E+05  0.000E+00  0.000E+00  0.000E+00  4.36566E+01  1.680E-01  2.000E+01  2.000E+04 -3.319E-03
   1   16   12     1    12    1.2833E+05 -8.2974E+02   1.2916E+05  0.000E+00  0.000E+00  0.000E+00  4.31797E+01  1.683E-01  2.000E+01  2.000E+04 -4.149E-02
   1   15   13     1    13    1.2916E+05 -2.3434E+03   1.3150E+05  0.000E+00  0.000E+00  0.000E+00  4.27037E+01  1.696E-01  2.000E+01  2.000E+04 -1.172E-01
   1   14   14     1    14    1.3150E+05 -2.9580E+03   1.3446E+05  0.000E+00  0.000E+00  0.000E+00  4.22284E+01  1.716E-01  2.000E+01  2.000E+04 -1.479E-01
   1   13   15     1    15    1.3446E+05 -3.5777E+03   1.3804E+05  0.000E+00  0.000E+00  0.000E+00  4.17537E+01  1.742E-01  2.000E+01  2.000E+04 -1.789E-01
   1   12   16     1    16    1.3804E+05 -5.0775E+03   1.4312E+05  0.000E+00  0.000E+00  0.000E+00  4.12797E+01  1.774E-01  2.000E+01  2.000E+04 -2.539E-01
   1   12   17     1    17    1.4312E+05 -3.2098E+03   1.4632E+05  0.000E+00  0.000E+00  0.000E+00  4.08056E+01  1.806E-01  2.000E+01  2.000E+04 -1.605E-01
   1   12   18     1    18    1.4632E+05 -3.0821E+03   1.4941E+05  0.000E+00  0.000E+00  0.000E+00  4.03306E+01  1.829E-01  2.000E+01  2.000E+04 -1.541E-01
   1   12   19     1    19    1.4941E+05 -4.1681E+03   1.5358E+05  0.000E+00  0.000E+00  0.000E+00  3.98560E+01  1.856E-01  2.000E+01  2.000E+04 -2.084E-01
   1   13   20     1    20    1.5358E+05 -2.3728E+03   1.5595E+05  0.000E+00  0.000E+00  0.000E+00  3.93812E+01  1.880E-01  2.000E+01  2.000E+04 -1.186E-01
   1   14   21     1    21    1.5595E+05 -1.3219E+03   1.5727E+05  0.000E+00  0.000E+00  0.000E+00  3.89052E+01  1.893E-01  2.000E+01  2.000E+04 -6.609E-02
   1   14   22     1    22    1.5727E+05  5.1123E+03   1.5216E+05  0.000E+00  0.000E+00  0.000E+00  3.84266E+01  1.879E-01  2.000E+01  2.000E+04  2.556E-01
   1    9   30     2     1    5.0000E+04 -2.6010E+03   5.2601E+04  0.000E+00  0.000E+00  0.000E+00  4.02427E+01  1.177E-01  2.000E+01  2.000E+04 -1.300E-01
   1    9   29     2     2    5.2601E+04 -2.9346E+03   5.5536E+04  0.000E+00  0.000E+00  0.000E+00  3.99964E+01  1.214E-01  2.000E+01  2.000E+04 -1.467E-01
   1    9   28     2     3    5.5536E+04 -3.3176E+03   5.8853E+04  0.000E+00  0.000E+00  0.000E+00  3.97506E+01  1.256E-01  2.000E+01  2.000E+04 -1.659E-01
   1    9   27     2     4    5.8853E+04 -5.9986E+03   6.4852E+04  0.000E+00  0.000E+00  0.000E+00  3.95066E+01  1.316E-01  2.000E+01  2.000E+04 -2.999E-01
   1   10   26     2     5    6.4852E+04 -3.6143E+03   6.8466E+04  0.000E+00  0.000E+00  0.000E+00  3.92627E+01  1.377E-01  2.000E+01  2.000E+04 -1.807E-01
   1   11   25     2     6    6.8466E+04 -2.5767E+03   7.1043E+04  0.000E+00  0.000E+00  0.000E+00  3.90165E+01  1.415E-01  2.000E+01  2.000E+04 -1.288E-01
   1   12   24     2     7    7.1043E+04 -1.7525E+03   7.2795E+04  0.000E+00  0.000E+00  0.000E+00  3.87691E+01  1.441E-01  2.000E+01  2.000E+04 -8.762E-02
   1   13   23     2     8    7.2795E+04 -9.6807E+02   7.3763E+04  0.000E+00  0.000E+00  0.000E+00  3.85207E+01  1.457E-01  2.000E+01  2.000E+04 -4.840E-02
   1   14   22     2     9    7.3763E+04  1.9832E+03   7.1780E+04  0.000E+00  0.000E+00  0.000E+00  3.82701E+01  1.451E-01  2.000E+01  2.000E+04  9.916E-02
   1   14   22     3     1    2.2394E+05 -8.3707E+03   2.3231E+05  0.000E+00  0.000E+00  0.000E+00  3.77524E+01  1.969E-01  2.000E+01  2.000E+04 -4.185E-01
   1   15   23     3     2    2.3231E+05 -1.8308E+03   2.3414E+05  0.000E+00  0.000E+00  0.000E+00  3.68662E+01  1.995E-01  2.000E+01  2.000E+04 -9.154E-02
   1   15   24     3     3    2.3414E+05 -1.4113E+03   2.3555E+05  0.000E+00  0.000E+00  0.000E+00  3.59781E+01  2.003E-01  2.000E+01  2.000E+04 -7.057E-02
   1   15   25     3     4    2.3555E+05 -1.4306E+03   2.3698E+05  0.000E+00  0.000E+00  0.000E+00  3.50900E+01  2.011E-01  2.000E+01  2.000E+04 -7.153E-02
   1   15   26     3     5    2.3698E+05 -1.8992E+03   2.3888E+05  0.000E+00  0.000E+00  0.000E+00  3.42019E+01  2.019E-01  2.000E+01  2.000E+04 -9.496E-02
   1   16   27     3     6    2.3888E+05 -2.5344E+03   2.4141E+05  0.000E+00  0.000E+00  0.000E+00  3.33142E+01  2.030E-01  2.000E+01  2.000E+04 -1.267E-01
   1   17   28     3     7    2.4141E+05 -3.3001E+03   2.4471E+05  0.000E+00  0.000E+00  0.000E+00  3.24267E+01  2.045E-01  2.000E+01  2.000E+04 -1.650E-01
   1   18   29     3     8    2.4471E+05 -4.9421E+03   2.4966E+05  0.000E+00  0.000E+00  0.000E+00  3.15399E+01  2.066E-01  2.000E+01  2.000E+04 -2.471E-01
   1   18   30     3     9    2.4966E+05 -4.3802E+03   2.5404E+05  0.000E+00  0.000E+00  0.000E+00  3.06534E+01  2.089E-01  2.000E+01  2.000E+04 -2.190E-01



1
              HEAD IN LAYER   1 AT END OF TIME STEP   1 IN STRESS PERIOD   11
  ---------------------------------------------------------------------------

          1      2      3      4      5      6      7      8      9     10
         11     12     13     14     15     16     17     18     19     20
         21     22     23     24     25     26     27     28     29     30
 .........................................................................
   1  ****** ****** ****** ****** ****** ****** ****** ****** ****** ******
      ****** ****** ****** ****** ****** ****** ****** ****** ****** ******
      ****** ****** ****** ****** ****** ****** ****** ****** ****** ******
   2  ****** ****** ****** ****** ****** ****** ****** ****** ****** ******
      ****** ****** ****** ****** ****** ****** ****** ****** ****** ******
      ****** ****** ****** ****** ****** ****** ****** ****** ****** ******
   3  ****** ****** ****** ****** ****** ****** ****** ****** ****** ******
      ****** ****** ****** ****** ****** ****** ****** ****** ****** ******
      ****** ****** ****** ****** ****** ****** ****** ****** ****** ******
   4  ****** ****** ****** ****** ****** ****** ****** ****** ****** ******
      ****** ****** ****** ****** ****** ****** ****** ****** ****** ******
      ****** ****** ****** ****** ****** ****** ****** ****** ****** ******
   5  ****** ****** ****** ****** ****** ****** ****** ****** ****** ******
      ****** ****** ****** ****** ****** ****** ****** ****** ****** ******
      ****** ****** ****** ****** ****** ****** ****** ****** ****** ******
   6  ****** ****** ****** ****** ****** ****** ****** ****** ****** ******
      ****** ****** ****** ****** ****** ****** ****** ****** ****** ******
      ****** ****** ****** ****** ****** ****** ****** ****** ****** ******
   7  ****** ****** ****** ****** ****** ****** ****** ****** ****** ******
      ****** ****** ****** ****** ****** ****** ****** ****** ****** ******
      ****** ****** ****** ****** ****** ****** ****** ****** ****** ******
   8  ****** ****** ****** ****** ****** ****** ****** ****** ****** ******
      ****** ****** ****** ****** ****** ****** ****** ****** ****** ******
      ****** ****** ****** ****** ****** ****** ****** ****** ****** ******
   9  ****** ****** ****** ****** ****** ****** ****** ****** ****** ******
      ****** ****** ****** ****** ****** ****** ****** ****** ****** ******
      ****** ****** ****** ****** ****** ****** ****** ****** ****** ******
  10  ****** ****** ****** ****** ****** ****** ****** ****** ****** ******
      ****** ****** ****** ****** ****** ****** ****** ****** ****** ******
      ****** ****** ****** ****** ****** ****** ****** ****** ****** ******
  11  ****** ****** ****** ****** ****** ****** ****** ****** ****** ******
      ****** ****** ****** ****** ****** ****** ****** ****** ****** ******
      ****** ****** ****** ****** ****** ****** ****** ****** ****** ******
  12  ****** ****** ****** ****** ****** ****** ****** ****** ****** ******
      ****** ****** ****** ****** ****** ****** ****** ****** ****** ******
      ****** ****** ****** ****** ****** ****** ****** ****** ****** ******
  13  ****** ****** ****** ****** ****** ****** ****** ****** ****** ******
      ****** ****** ****** ****** ****** ****** ****** ****** ****** ******
      ****** ****** ****** ****** ****** ****** ****** ****** ****** ******
  14  ****** ****** ****** ****** ****** ****** ****** ****** ****** ******
      ****** ****** ****** ****** ****** ****** ****** ****** ****** ******
      ****** ****** ****** ****** ****** ****** ****** ****** ****** ******
  15  ****** ****** ****** ****** ****** ****** ****** ****** ****** ******
      ****** ****** ****** ****** ****** ****** ****** ****** ****** ******
      ****** ****** ****** ****** ****** ****** ****** ****** ****** ******
  16  ****** ****** ****** ****** ****** ****** ****** ****** ****** ******
      ****** ****** ****** ****** ****** ****** ****** ****** ****** ******
      ****** ****** ****** ****** ****** ****** ****** ****** ****** ******
  17  ****** ****** ****** ****** ****** ****** ****** ****** ****** ******
      ****** ****** ****** ****** ****** ****** ****** ****** ****** ******
      ****** ****** ****** ****** ****** ****** ****** ****** ****** ******
  18  ****** ****** ****** ****** ****** ****** ****** ****** ****** ******
      ****** ****** ****** ****** ****** ****** ****** ****** ****** ******
      ****** ****** ****** ****** ****** ****** ****** ****** ****** ******
  19  ****** ****** ****** ****** ****** ****** ****** ****** ****** ******
      ****** ****** ****** ****** ****** ****** ****** ****** ****** ******
      ****** ****** ****** ****** ****** ****** ****** ****** ****** ******
  20  ****** ****** ****** ****** ****** ****** ****** ****** ****** ******
      ****** ****** ****** ****** ****** ****** ****** ****** ****** ******
      ****** ****** ****** ****** ****** ****** ****** ****** ****** ******
  21  ****** ****** ****** ****** ****** ****** ****** ****** ****** ******
      ****** ****** ****** ****** ****** ****** ****** ****** ****** ******
      ****** ****** ****** ****** ****** ****** ****** ****** ****** ******
  22  ****** ****** ****** ****** ****** ****** ****** ****** ****** ******
      ****** ****** ****** ****** ****** ****** ****** ****** ****** ******
      ****** ****** ****** ****** ****** ****** ****** ****** ****** ******
  23  ****** ****** ****** ****** ****** ****** ****** ****** ****** ******
      ****** ****** ****** ****** ****** ****** ****** ****** ****** ******
      ****** ****** ****** ****** ****** ****** ****** ****** ****** ******
  24  ****** ****** ****** ****** ****** ****** ****** ****** ****** ******
      ****** ****** ****** ****** ****** ****** ****** ****** ****** ******
      ****** ****** ****** ****** ****** ****** ****** ****** ****** ******
  25  ****** ****** ****** ****** ****** ****** ****** ****** ****** ******
      ****** ****** ****** ****** ****** ****** ****** ****** ****** ******
      ****** ****** ****** ****** ****** ****** ****** ****** ****** ******

 HEAD WILL BE SAVED ON UNIT   51 AT END OF TIME STEP    1, STRESS PERIOD   11
1
  VOLUMETRIC BUDGET FOR ENTIRE MODEL AT END OF TIME STEP    1, STRESS PERIOD  11
  ------------------------------------------------------------------------------

     CUMULATIVE VOLUMES      L**3       RATES FOR THIS TIME STEP      L**3/T
     ------------------                 ------------------------

           IN:                                      IN:
           ---                                      ---
             STORAGE =    25693825.3550               STORAGE =       11793.3440
       CONSTANT HEAD =   161661216.5821         CONSTANT HEAD =      167252.1183
               WELLS =           0.0000                 WELLS =           0.0000
            RECHARGE =    23901600.0000              RECHARGE =           0.0000
      STREAM LEAKAGE =     8969530.3410        STREAM LEAKAGE =        7095.5244

            TOTAL IN =   220226172.2781              TOTAL IN =      186140.9867

          OUT:                                     OUT:
          ----                                     ----
             STORAGE =     2714938.9456               STORAGE =           0.0000
       CONSTANT HEAD =           0.0000         CONSTANT HEAD =           0.0000
               WELLS =    88438145.7673                 WELLS =       75008.6966
            RECHARGE =           0.0000              RECHARGE =           0.0000
      STREAM LEAKAGE =   129073088.5316        STREAM LEAKAGE =      111132.2923

           TOTAL OUT =   220226173.2445             TOTAL OUT =      186140.9889

            IN - OUT =          -0.9664              IN - OUT =      -2.1765E-03

 PERCENT DISCREPANCY =          -0.00     PERCENT DISCREPANCY =          -0.00






         TIME SUMMARY AT END OF TIME STEP    1 IN STRESS PERIOD   11
                    SECONDS     MINUTES      HOURS       DAYS        YEARS
                    -----------------------------------------------------------
   TIME STEP LENGTH 7.86240E+06 1.31040E+05  2184.0      91.000     0.24914    
 STRESS PERIOD TIME 7.86240E+06 1.31040E+05  2184.0      91.000     0.24914    
         TOTAL TIME 8.67456E+07 1.44576E+06  24096.      1004.0      2.7488    
1
1
                            STRESS PERIOD NO.   12, LENGTH =   91.00000    
                            -----------------------------------------------

                              NUMBER OF TIME STEPS =     1

                               MULTIPLIER FOR DELT =     1.500

                            INITIAL TIME STEP SIZE =   91.00000    

 WELL NO.  LAYER   ROW   COL   STRESS RATE         
 --------------------------------------------------
      1      1     18     11     -0.1485E+05
      2      1     23     22     -0.3063E+05
      3      1     23     15     -0.2952E+05

      3 WELLS

                 RECHARGE =  1.000000E-03

 REUSING STREAM SEGMENT DATA FROM LAST STRESS PERIOD
 
 SOLVING FOR HEAD 


     6 CALLS TO PCG ROUTINE FOR TIME STEP   1 IN STRESS PERIOD   12
    23 TOTAL ITERATIONS

 OUTPUT CONTROL FOR STRESS PERIOD   12   TIME STEP    1
    SAVE BUDGET
    SAVE HEAD FOR ALL LAYERS
    PRINT HEAD FOR ALL LAYERS
 UBDSV2 SAVING "STREAMFLOW OUT  " ON UNIT  50 AT TIME STEP  1, STRESS PERIOD  12



 STREAM LISTING     PERIOD     12   STEP        1

 LAYER ROW COL. STREAM  RCH.  FLOW INTO     FLOW TO   FLOW OUT OF   OVRLND.     DIRECT     STREAM       STREAM     STREAM     STREAM   STREAMBED  STREAMBED
                SEG.NO.  NO.  STRM. RCH.    AQUIFER    STRM. RCH.    RUNOFF     PRECIP       ET          HEAD       DEPTH      WIDTH   CONDCTNC.   GRADIENT

   1   13    1     1     1    1.0000E+05 -2.8277E+03   1.0283E+05  0.000E+00  0.000E+00  0.000E+00  4.84072E+01  1.459E-01  2.000E+01  2.000E+04 -1.414E-01
   1   13    2     1     2    1.0283E+05 -4.7649E+03   1.0759E+05  0.000E+00  0.000E+00  0.000E+00  4.79332E+01  1.491E-01  2.000E+01  2.000E+04 -2.382E-01
   1   14    3     1     3    1.0759E+05 -3.7846E+03   1.1138E+05  0.000E+00  0.000E+00  0.000E+00  4.74596E+01  1.527E-01  2.000E+01  2.000E+04 -1.892E-01
   1   15    4     1     4    1.1138E+05 -3.6274E+03   1.1500E+05  0.000E+00  0.000E+00  0.000E+00  4.69854E+01  1.558E-01  2.000E+01  2.000E+04 -1.814E-01
   1   16    5     1     5    1.1500E+05 -3.7522E+03   1.1876E+05  0.000E+00  0.000E+00  0.000E+00  4.65111E+01  1.588E-01  2.000E+01  2.000E+04 -1.876E-01
   1   16    6     1     6    1.1876E+05 -2.8785E+03   1.2164E+05  0.000E+00  0.000E+00  0.000E+00  4.60365E+01  1.615E-01  2.000E+01  2.000E+04 -1.439E-01
   1   16    7     1     7    1.2164E+05 -2.7796E+03   1.2441E+05  0.000E+00  0.000E+00  0.000E+00  4.55615E+01  1.638E-01  2.000E+01  2.000E+04 -1.390E-01
   1   16    8     1     8    1.2441E+05 -2.5354E+03   1.2695E+05  0.000E+00  0.000E+00  0.000E+00  4.50864E+01  1.659E-01  2.000E+01  2.000E+04 -1.268E-01
   1   16    9     1     9    1.2695E+05 -2.0572E+03   1.2901E+05  0.000E+00  0.000E+00  0.000E+00  4.46109E+01  1.677E-01  2.000E+01  2.000E+04 -1.029E-01
   1   16   10     1    10    1.2901E+05 -1.2506E+03   1.3026E+05  0.000E+00  0.000E+00  0.000E+00  4.41349E+01  1.690E-01  2.000E+01  2.000E+04 -6.253E-02
   1   16   11     1    11    1.3026E+05 -2.4422E+02   1.3050E+05  0.000E+00  0.000E+00  0.000E+00  4.36582E+01  1.696E-01  2.000E+01  2.000E+04 -1.221E-02
   1   16   12     1    12    1.3050E+05 -1.0543E+03   1.3156E+05  0.000E+00  0.000E+00  0.000E+00  4.31815E+01  1.701E-01  2.000E+01  2.000E+04 -5.271E-02
   1   15   13     1    13    1.3156E+05 -2.5880E+03   1.3414E+05  0.000E+00  0.000E+00  0.000E+00  4.27056E+01  1.715E-01  2.000E+01  2.000E+04 -1.294E-01
   1   14   14     1    14    1.3414E+05 -3.2051E+03   1.3735E+05  0.000E+00  0.000E+00  0.000E+00  4.22306E+01  1.738E-01  2.000E+01  2.000E+04 -1.603E-01
   1   13   15     1    15    1.3735E+05 -3.8190E+03   1.4117E+05  0.000E+00  0.000E+00  0.000E+00  4.17560E+01  1.764E-01  2.000E+01  2.000E+04 -1.910E-01
   1   12   16     1    16    1.4117E+05 -5.2974E+03   1.4647E+05  0.000E+00  0.000E+00  0.000E+00  4.12822E+01  1.799E-01  2.000E+01  2.000E+04 -2.649E-01
   1   12   17     1    17    1.4647E+05 -3.3839E+03   1.4985E+05  0.000E+00  0.000E+00  0.000E+00  4.08081E+01  1.831E-01  2.000E+01  2.000E+04 -1.692E-01
   1   12   18     1    18    1.4985E+05 -3.2557E+03   1.5311E+05  0.000E+00  0.000E+00  0.000E+00  4.03333E+01  1.856E-01  2.000E+01  2.000E+04 -1.628E-01
   1   12   19     1    19    1.5311E+05 -4.3798E+03   1.5749E+05  0.000E+00  0.000E+00  0.000E+00  3.98588E+01  1.884E-01  2.000E+01  2.000E+04 -2.190E-01
   1   13   20     1    20    1.5749E+05 -2.5923E+03   1.6008E+05  0.000E+00  0.000E+00  0.000E+00  3.93841E+01  1.909E-01  2.000E+01  2.000E+04 -1.296E-01
   1   14   21     1    21    1.6008E+05 -1.5198E+03   1.6160E+05  0.000E+00  0.000E+00  0.000E+00  3.89083E+01  1.924E-01  2.000E+01  2.000E+04 -7.599E-02
   1   14   22     1    22    1.6160E+05  5.0690E+03   1.5653E+05  0.000E+00  0.000E+00  0.000E+00  3.84297E+01  1.911E-01  2.000E+01  2.000E+04  2.535E-01
   1    9   30     2     1    5.0000E+04 -2.7804E+03   5.2780E+04  0.000E+00  0.000E+00  0.000E+00  4.02428E+01  1.178E-01  2.000E+01  2.000E+04 -1.390E-01
   1    9   29     2     2    5.2780E+04 -3.1122E+03   5.5893E+04  0.000E+00  0.000E+00  0.000E+00  3.99968E+01  1.218E-01  2.000E+01  2.000E+04 -1.556E-01
   1    9   28     2     3    5.5893E+04 -3.4927E+03   5.9385E+04  0.000E+00  0.000E+00  0.000E+00  3.97512E+01  1.262E-01  2.000E+01  2.000E+04 -1.746E-01
   1    9   27     2     4    5.9385E+04 -6.2193E+03   6.5605E+04  0.000E+00  0.000E+00  0.000E+00  3.95075E+01  1.325E-01  2.000E+01  2.000E+04 -3.110E-01
   1   10   26     2     5    6.5605E+04 -3.8518E+03   6.9456E+04  0.000E+00  0.000E+00  0.000E+00  3.92638E+01  1.388E-01  2.000E+01  2.000E+04 -1.926E-01
   1   11   25     2     6    6.9456E+04 -2.8077E+03   7.2264E+04  0.000E+00  0.000E+00  0.000E+00  3.90178E+01  1.428E-01  2.000E+01  2.000E+04 -1.404E-01
   1   12   24     2     7    7.2264E+04 -1.9623E+03   7.4226E+04  0.000E+00  0.000E+00  0.000E+00  3.87707E+01  1.457E-01  2.000E+01  2.000E+04 -9.811E-02
   1   13   23     2     8    7.4226E+04 -1.1386E+03   7.5365E+04  0.000E+00  0.000E+00  0.000E+00  3.85225E+01  1.475E-01  2.000E+01  2.000E+04 -5.693E-02
   1   14   22     2     9    7.5365E+04  1.9157E+03   7.3449E+04  0.000E+00  0.000E+00  0.000E+00  3.82721E+01  1.471E-01  2.000E+01  2.000E+04  9.579E-02
   1   14   22     3     1    2.2998E+05 -8.4146E+03   2.3839E+05  0.000E+00  0.000E+00  0.000E+00  3.77556E+01  2.000E-01  2.000E+01  2.000E+04 -4.207E-01
   1   15   23     3     2    2.3839E+05 -2.0166E+03   2.4041E+05  0.000E+00  0.000E+00  0.000E+00  3.68693E+01  2.027E-01  2.000E+01  2.000E+04 -1.008E-01
   1   15   24     3     3    2.4041E+05 -1.5563E+03   2.4197E+05  0.000E+00  0.000E+00  0.000E+00  3.59813E+01  2.036E-01  2.000E+01  2.000E+04 -7.781E-02
   1   15   25     3     4    2.4197E+05 -1.5802E+03   2.4355E+05  0.000E+00  0.000E+00  0.000E+00  3.50933E+01  2.044E-01  2.000E+01  2.000E+04 -7.901E-02
   1   15   26     3     5    2.4355E+05 -2.0944E+03   2.4564E+05  0.000E+00  0.000E+00  0.000E+00  3.42053E+01  2.053E-01  2.000E+01  2.000E+04 -1.047E-01
   1   16   27     3     6    2.4564E+05 -2.7693E+03   2.4841E+05  0.000E+00  0.000E+00  0.000E+00  3.33176E+01  2.065E-01  2.000E+01  2.000E+04 -1.385E-01
   1   17   28     3     7    2.4841E+05 -3.5376E+03   2.5195E+05  0.000E+00  0.000E+00  0.000E+00  3.24303E+01  2.081E-01  2.000E+01  2.000E+04 -1.769E-01
   1   18   29     3     8    2.5195E+05 -5.1593E+03   2.5711E+05  0.000E+00  0.000E+00  0.000E+00  3.15436E+01  2.103E-01  2.000E+01  2.000E+04 -2.580E-01
   1   18   30     3     9    2.5711E+05 -4.5512E+03   2.6166E+05  0.000E+00  0.000E+00  0.000E+00  3.06571E+01  2.126E-01  2.000E+01  2.000E+04 -2.276E-01



1
              HEAD IN LAYER   1 AT END OF TIME STEP   1 IN STRESS PERIOD   12
  ---------------------------------------------------------------------------

          1      2      3      4      5      6      7      8      9     10
         11     12     13     14     15     16     17     18     19     20
         21     22     23     24     25     26     27     28     29     30
 .........................................................................
   1  ****** ****** ****** ****** ****** ****** ****** ****** ****** ******
      ****** ****** ****** ****** ****** ****** ****** ****** ****** ******
      ****** ****** ****** ****** ****** ****** ****** ****** ****** ******
   2  ****** ****** ****** ****** ****** ****** ****** ****** ****** ******
      ****** ****** ****** ****** ****** ****** ****** ****** ****** ******
      ****** ****** ****** ****** ****** ****** ****** ****** ****** ******
   3  ****** ****** ****** ****** ****** ****** ****** ****** ****** ******
      ****** ****** ****** ****** ****** ****** ****** ****** ****** ******
      ****** ****** ****** ****** ****** ****** ****** ****** ****** ******
   4  ****** ****** ****** ****** ****** ****** ****** ****** ****** ******
      ****** ****** ****** ****** ****** ****** ****** ****** ****** ******
      ****** ****** ****** ****** ****** ****** ****** ****** ****** ******
   5  ****** ****** ****** ****** ****** ****** ****** ****** ****** ******
      ****** ****** ****** ****** ****** ****** ****** ****** ****** ******
      ****** ****** ****** ****** ****** ****** ****** ****** ****** ******
   6  ****** ****** ****** ****** ****** ****** ****** ****** ****** ******
      ****** ****** ****** ****** ****** ****** ****** ****** ****** ******
      ****** ****** ****** ****** ****** ****** ****** ****** ****** ******
   7  ****** ****** ****** ****** ****** ****** ****** ****** ****** ******
      ****** ****** ****** ****** ****** ****** ****** ****** ****** ******
      ****** ****** ****** ****** ****** ****** ****** ****** ****** ******
   8  ****** ****** ****** ****** ****** ****** ****** ****** ****** ******
      ****** ****** ****** ****** ****** ****** ****** ****** ****** ******
      ****** ****** ****** ****** ****** ****** ****** ****** ****** ******
   9  ****** ****** ****** ****** ****** ****** ****** ****** ****** ******
      ****** ****** ****** ****** ****** ****** ****** ****** ****** ******
      ****** ****** ****** ****** ****** ****** ****** ****** ****** ******
  10  ****** ****** ****** ****** ****** ****** ****** ****** ****** ******
      ****** ****** ****** ****** ****** ****** ****** ****** ****** ******
      ****** ****** ****** ****** ****** ****** ****** ****** ****** ******
  11  ****** ****** ****** ****** ****** ****** ****** ****** ****** ******
      ****** ****** ****** ****** ****** ****** ****** ****** ****** ******
      ****** ****** ****** ****** ****** ****** ****** ****** ****** ******
  12  ****** ****** ****** ****** ****** ****** ****** ****** ****** ******
      ****** ****** ****** ****** ****** ****** ****** ****** ****** ******
      ****** ****** ****** ****** ****** ****** ****** ****** ****** ******
  13  ****** ****** ****** ****** ****** ****** ****** ****** ****** ******
      ****** ****** ****** ****** ****** ****** ****** ****** ****** ******
      ****** ****** ****** ****** ****** ****** ****** ****** ****** ******
  14  ****** ****** ****** ****** ****** ****** ****** ****** ****** ******
      ****** ****** ****** ****** ****** ****** ****** ****** ****** ******
      ****** ****** ****** ****** ****** ****** ****** ****** ****** ******
  15  ****** ****** ****** ****** ****** ****** ****** ****** ****** ******
      ****** ****** ****** ****** ****** ****** ****** ****** ****** ******
      ****** ****** ****** ****** ****** ****** ****** ****** ****** ******
  16  ****** ****** ****** ****** ****** ****** ****** ****** ****** ******
      ****** ****** ****** ****** ****** ****** ****** ****** ****** ******
      ****** ****** ****** ****** ****** ****** ****** ****** ****** ******
  17  ****** ****** ****** ****** ****** ****** ****** ****** ****** ******
      ****** ****** ****** ****** ****** ****** ****** ****** ****** ******
      ****** ****** ****** ****** ****** ****** ****** ****** ****** ******
  18  ****** ****** ****** ****** ****** ****** ****** ****** ****** ******
      ****** ****** ****** ****** ****** ****** ****** ****** ****** ******
      ****** ****** ****** ****** ****** ****** ****** ****** ****** ******
  19  ****** ****** ****** ****** ****** ****** ****** ****** ****** ******
      ****** ****** ****** ****** ****** ****** ****** ****** ****** ******
      ****** ****** ****** ****** ****** ****** ****** ****** ****** ******
  20  ****** ****** ****** ****** ****** ****** ****** ****** ****** ******
      ****** ****** ****** ****** ****** ****** ****** ****** ****** ******
      ****** ****** ****** ****** ****** ****** ****** ****** ****** ******
  21  ****** ****** ****** ****** ****** ****** ****** ****** ****** ******
      ****** ****** ****** ****** ****** ****** ****** ****** ****** ******
      ****** ****** ****** ****** ****** ****** ****** ****** ****** ******
  22  ****** ****** ****** ****** ****** ****** ****** ****** ****** ******
      ****** ****** ****** ****** ****** ****** ****** ****** ****** ******
      ****** ****** ****** ****** ****** ****** ****** ****** ****** ******
  23  ****** ****** ****** ****** ****** ****** ****** ****** ****** ******
      ****** ****** ****** ****** ****** ****** ****** ****** ****** ******
      ****** ****** ****** ****** ****** ****** ****** ****** ****** ******
  24  ****** ****** ****** ****** ****** ****** ****** ****** ****** ******
      ****** ****** ****** ****** ****** ****** ****** ****** ****** ******
      ****** ****** ****** ****** ****** ****** ****** ****** ****** ******
  25  ****** ****** ****** ****** ****** ****** ****** ****** ****** ******
      ****** ****** ****** ****** ****** ****** ****** ****** ****** ******
      ****** ****** ****** ****** ****** ****** ****** ****** ****** ******

 HEAD WILL BE SAVED ON UNIT   51 AT END OF TIME STEP    1, STRESS PERIOD   12
1
  VOLUMETRIC BUDGET FOR ENTIRE MODEL AT END OF TIME STEP    1, STRESS PERIOD  12
  ------------------------------------------------------------------------------

     CUMULATIVE VOLUMES      L**3       RATES FOR THIS TIME STEP      L**3/T
     ------------------                 ------------------------

           IN:                                      IN:
           ---                                      ---
             STORAGE =    25693825.3550               STORAGE =           0.0000
       CONSTANT HEAD =   176477628.3116         CONSTANT HEAD =      162817.7113
               WELLS =           0.0000                 WELLS =           0.0000
            RECHARGE =    26413200.0000              RECHARGE =       27600.0000
      STREAM LEAKAGE =     9605142.6486        STREAM LEAKAGE =        6984.7506

            TOTAL IN =   238189796.3152              TOTAL IN =      197402.4619

          OUT:                                     OUT:
          ----                                     ----
             STORAGE =     3056325.7210               STORAGE =        3751.5030
       CONSTANT HEAD =           0.0000         CONSTANT HEAD =           0.0000
               WELLS =    95263937.1549                 WELLS =       75008.6966
            RECHARGE =           0.0000              RECHARGE =           0.0000
      STREAM LEAKAGE =   139869534.3271        STREAM LEAKAGE =      118642.2615

           TOTAL OUT =   238189797.2031             TOTAL OUT =      197402.4611

            IN - OUT =          -0.8879              IN - OUT =       8.6268E-04

 PERCENT DISCREPANCY =          -0.00     PERCENT DISCREPANCY =           0.00






         TIME SUMMARY AT END OF TIME STEP    1 IN STRESS PERIOD   12
                    SECONDS     MINUTES      HOURS       DAYS        YEARS
                    -----------------------------------------------------------
   TIME STEP LENGTH 7.86240E+06 1.31040E+05  2184.0      91.000     0.24914    
 STRESS PERIOD TIME 7.86240E+06 1.31040E+05  2184.0      91.000     0.24914    
         TOTAL TIME 9.46080E+07 1.57680E+06  26280.      1095.0      2.9979    
1

 Run end date and time (yyyy/mm/dd hh:mm:ss): 2018/10/08 23:18:15
 Elapsed run time:  0.057 Seconds

