                                  MODFLOW-2005     
      U.S. GEOLOGICAL SURVEY MODULAR FINITE-DIFFERENCE GROUND-WATER FLOW MODEL
                            VERSION 1.11.00 8/8/2013

 LIST FILE: supply2.lst
                         UNIT   10

 OPENING ..\data\supply.dis
 FILE TYPE:DIS   UNIT   11   STATUS:OLD    
 FORMAT:FORMATTED              ACCESS:SEQUENTIAL          

 OPENING ..\data\supply.ba6
 FILE TYPE:BAS6   UNIT   12   STATUS:OLD    
 FORMAT:FORMATTED              ACCESS:SEQUENTIAL          

 OPENING ..\data\supply_het.bc6
 FILE TYPE:BCF6   UNIT   13   STATUS:OLD    
 FORMAT:FORMATTED              ACCESS:SEQUENTIAL          

 OPENING ..\data\supply.rch
 FILE TYPE:RCH   UNIT   15   STATUS:OLD    
 FORMAT:FORMATTED              ACCESS:SEQUENTIAL          

 OPENING ..\data\supply2.sfr
 FILE TYPE:SFR   UNIT   16   STATUS:OLD    
 FORMAT:FORMATTED              ACCESS:SEQUENTIAL          

 OPENING ..\data\supply.oc
 FILE TYPE:OC   UNIT   17   STATUS:OLD    
 FORMAT:FORMATTED              ACCESS:SEQUENTIAL          

 OPENING ..\data\supply.pcg
 FILE TYPE:PCG   UNIT   18   STATUS:OLD    
 FORMAT:FORMATTED              ACCESS:SEQUENTIAL          

 OPENING supply2.wel
 FILE TYPE:WEL   UNIT   19   STATUS:OLD    
 FORMAT:FORMATTED              ACCESS:SEQUENTIAL          

 OPENING supply2sf.cbc
 FILE TYPE:DATA(BINARY)   UNIT   50   STATUS:UNKNOWN
 FORMAT:BINARY                 ACCESS:SEQUENTIAL          

 OPENING supply2hd.bhd
 FILE TYPE:DATA(BINARY)   UNIT   51   STATUS:UNKNOWN
 FORMAT:BINARY                 ACCESS:SEQUENTIAL          

 BAS -- BASIC PACKAGE, VERSION 7, 5/2/2005 INPUT READ FROM UNIT   12
 
 MODFLOW was compiled using uniform precision
 Precision of REAL and DOUBLE PRECISION variables:          15

 DISCRETIZATION INPUT DATA READ FROM UNIT   11
    1 LAYERS        25 ROWS        30 COLUMNS
   12 STRESS PERIOD(S) IN SIMULATION
 MODEL TIME UNIT IS DAYS
 MODEL LENGTH UNIT IS UNDEFINED
  Confining bed flag for each layer:
   0

                     DELR =   200.000    

                     DELC =   200.000    

 TOP ELEVATION OF LAYER 1 =  100.0000    

   MODEL LAYER BOTTOM EL. =   0.00000     FOR LAYER   1


 STRESS PERIOD     LENGTH       TIME STEPS     MULTIPLIER FOR DELT    SS FLAG
 ----------------------------------------------------------------------------
        1         92.00000          1                    1.500         TR
        2         91.00000          1                    1.500         TR
        3         91.00000          1                    1.500         TR
        4         91.00000          1                    1.500         TR
        5         92.00000          1                    1.500         TR
        6         91.00000          1                    1.500         TR
        7         91.00000          1                    1.500         TR
        8         91.00000          1                    1.500         TR
        9         92.00000          1                    1.500         TR
       10         91.00000          1                    1.500         TR
       11         91.00000          1                    1.500         TR
       12         91.00000          1                    1.500         TR

 TRANSIENT SIMULATION



 
 #MODOFC transient water supply sample problem                                   
 #                                                                               
 THE FREE FORMAT OPTION HAS BEEN SELECTED



                     BOUNDARY ARRAY FOR LAYER   1
 READING ON UNIT   12 WITH FORMAT: (20I4)              

 AQUIFER HEAD WILL BE SET TO   0.0000     AT ALL NO-FLOW NODES (IBOUND=0).



                       INITIAL HEAD FOR LAYER   1
 READING ON UNIT   12 WITH FORMAT: (10F13.0)           

 OUTPUT CONTROL IS SPECIFIED ONLY AT TIME STEPS FOR WHICH OUTPUT IS DESIRED
 COMPACT CELL-BY-CELL BUDGET FILES WILL BE WRITTEN
 HEAD PRINT FORMAT CODE IS  18    DRAWDOWN PRINT FORMAT CODE IS   0
 HEADS WILL BE SAVED ON UNIT   51    DRAWDOWNS WILL BE SAVED ON UNIT    0

 BCF -- BLOCK-CENTERED FLOW PACKAGE, VERSION 7, 5/2/2005
         INPUT READ FROM UNIT 13
 TRANSIENT SIMULATION
 HEAD AT CELLS THAT CONVERT TO DRY=   0.0000    
 WETTING CAPABILITY IS NOT ACTIVE
      LAYER  LAYER-TYPE CODE     INTERBLOCK T
      --------------------------------------------
         1            0          0 -- HARMONIC    

 COLUMN TO ROW ANISOTROPY =  1.000000    

     PRIMARY STORAGE COEF =  5.000000E-02 FOR LAYER   1



               TRANSMIS. ALONG ROWS FOR LAYER   1
 READING ON UNIT   13 WITH FORMAT: (FREE)              

 WEL -- WELL PACKAGE, VERSION 7, 5/2/2005 INPUT READ FROM UNIT   19
 # Well package input file written by MMProc
 No named parameters
 MAXIMUM OF      8 ACTIVE WELLS AT ONE TIME


     0 Well parameters

 RCH -- RECHARGE PACKAGE, VERSION 7, 5/2/2005 INPUT READ FROM UNIT   15
 No named parameters
 OPTION 1 -- RECHARGE TO TOP LAYER


     0 Recharge parameters

 SFR7 -- STREAMFLOW ROUTING PACKAGE, VERSION 1.0.7, 2013-01-15
         INPUT READ FROM UNIT  16
 #  Supply2 test problem for GWM-VI
 #  The eighth entry in the first data line is ISTCB2 -
 #    Setting this to a negative number indicates that
 #    streamflows out of the reach will be saved to a
 #    binary file.  The absolute value of ISTCB2 is the
 #    unit to which unformatted flows will be written.
 #
 No named parameters
 Segment information will not be 
 read by reach
 No named parameters
 No specifed inflow files


 NUMBER OF STREAM REACHES IS   40

 NUMBER OF STREAM SEGMENTS IS    3

 NUMBER OF STREAM PARAMETERS IS    0

 NUMBER OF STREAM SEGMENTS DEFINED USING PARAMETERS IS              0

 MAXIMUM ERROR FOR STREAM LEAKAGE RATES IS  1.00E-04

 CONSTANT FOR MANNINGS EQUATION IS  1.2839E+05





   STREAM NETWORK DESCRIPTION: 

   LAYER    ROW    COL   SEGMENT   REACH     LENGTH
                          NUMBER   NUMBER    IN CELL        
   --------------------------------------------------
      1     13      1       1        1    2.0000E+02
      1     13      2       1        2    2.0000E+02
      1     14      3       1        3    2.0000E+02
      1     15      4       1        4    2.0000E+02
      1     16      5       1        5    2.0000E+02
      1     16      6       1        6    2.0000E+02
      1     16      7       1        7    2.0000E+02
      1     16      8       1        8    2.0000E+02
      1     16      9       1        9    2.0000E+02
      1     16     10       1       10    2.0000E+02
      1     16     11       1       11    2.0000E+02
      1     16     12       1       12    2.0000E+02
      1     15     13       1       13    2.0000E+02
      1     14     14       1       14    2.0000E+02
      1     13     15       1       15    2.0000E+02
      1     12     16       1       16    2.0000E+02
      1     12     17       1       17    2.0000E+02
      1     12     18       1       18    2.0000E+02
      1     12     19       1       19    2.0000E+02
      1     13     20       1       20    2.0000E+02
      1     14     21       1       21    2.0000E+02
      1     14     22       1       22    2.0000E+02
      1      9     30       2        1    2.0000E+02
      1      9     29       2        2    2.0000E+02
      1      9     28       2        3    2.0000E+02
      1      9     27       2        4    2.0000E+02
      1     10     26       2        5    2.0000E+02
      1     11     25       2        6    2.0000E+02
      1     12     24       2        7    2.0000E+02
      1     13     23       2        8    2.0000E+02
      1     14     22       2        9    2.0000E+02
      1     14     22       3        1    2.0000E+02
      1     15     23       3        2    2.0000E+02
      1     15     24       3        3    2.0000E+02
      1     15     25       3        4    2.0000E+02
      1     15     26       3        5    2.0000E+02
      1     16     27       3        6    2.0000E+02
      1     17     28       3        7    2.0000E+02
      1     18     29       3        8    2.0000E+02
      1     18     30       3        9    2.0000E+02




 PCG -- CONJUGATE-GRADIENT SOLUTION PACKAGE, VERSION 7, 5/2/2005
 MAXIMUM OF    500 CALLS OF SOLUTION ROUTINE
 MAXIMUM OF      5 INTERNAL ITERATIONS PER CALL TO SOLUTION ROUTINE
 MATRIX PRECONDITIONING TYPE :    1



                                    SOLUTION BY THE CONJUGATE-GRADIENT METHOD
                                   -------------------------------------------
                    MAXIMUM NUMBER OF CALLS TO PCG ROUTINE =      500
                        MAXIMUM ITERATIONS PER CALL TO PCG =        5
                               MATRIX PRECONDITIONING TYPE =        1
        RELAXATION FACTOR (ONLY USED WITH PRECOND. TYPE 1) =    0.10000E+01
 PARAMETER OF POLYNOMIAL PRECOND. = 2 (2) OR IS CALCULATED :        0
                         HEAD CHANGE CRITERION FOR CLOSURE =    0.10000E-05
                     RESIDUAL CHANGE CRITERION FOR CLOSURE =    0.10000E+01
            PCG HEAD AND RESIDUAL CHANGE PRINTOUT INTERVAL =        1
     PRINTING FROM SOLVER IS LIMITED(1) OR SUPPRESSED (>1) =        1
                            STEADY-STATE DAMPING PARAMETER =    0.10000E+01
                               TRANSIENT DAMPING PARAMETER =    0.10000E+01
1
                            STRESS PERIOD NO.    1, LENGTH =   92.00000    
                            -----------------------------------------------

                              NUMBER OF TIME STEPS =     1

                               MULTIPLIER FOR DELT =     1.500

                            INITIAL TIME STEP SIZE =   92.00000    

 WELL NO.  LAYER   ROW   COL   STRESS RATE         
 --------------------------------------------------
      1      1     14      6       0.000    
      2      1      3      9       0.000    
      3      1     20     10       0.000    
      4      1     14     20       0.000    
      5      1     10     29     -0.1299E+05
      6      1     15     21     -0.1317E+05
      7      1     19     29     -0.1184E+05
      8      1     17     29     -0.1466E+05

      8 WELLS

                 RECHARGE =  5.000000E-04



 CLASSIFICATION & COUNT OF STREAM SEGMENTS BASED ON SOURCE OF INFLOW:

                HEADWATER     DIVERSION     RECEIVES TRIBUTARY FLOW
                ---------     ---------     -----------------------
                     2              0               1



                    INPUT DATA FOR EACH STREAM SEGMENT
 ---------------------------------------------------------------------------------------------

 SEGMENT    SEG.     INFLOW   OVERLAND   STREAM    STREAM   ICALC  OUTFLOW  DIVERSION PRIORITY
    NO.    LENGTH     RATE     RUNOFF      ET       PPT.    METH.  TO SEG.  FROM SEG.    NO.

      1  4.400E+03 1.000E+05 0.000E+00 0.000E+00 0.000E+00    1        3        0        0
      2  1.800E+03 5.000E+04 0.000E+00 0.000E+00 0.000E+00    1        3        0        0
      3  1.800E+03 0.000E+00 0.000E+00 0.000E+00 0.000E+00    1        0        0        0


         STREAMBED PROPERTIES AND STREAM DIMENSIONS

 SEGMENT     BED HYD. COND.      BED THICKNESS     ELEV.-TOP OF BED     WIDTH OF STREAM     DEPTH OF STREAM    STREAM ROUGHNESS
    No.     UPPER     LOWER     UPPER     LOWER     UPPER     LOWER     UPPER     LOWER     UPPER     LOWER   CHANNEL      BANK

     1  5.000E+00 5.000E+00 1.000E+00 1.000E+00 4.850E+01 3.800E+01 2.000E+01 2.000E+01                     5.000E-02
     2  5.000E+00 5.000E+00 1.000E+00 1.000E+00 4.025E+01 3.800E+01 2.000E+01 2.000E+01                     5.000E-02
     3  5.000E+00 5.000E+00 1.000E+00 1.000E+00 3.800E+01 3.000E+01 2.000E+01 2.000E+01                     5.000E-02



 
 SOLVING FOR HEAD 


     9 CALLS TO PCG ROUTINE FOR TIME STEP   1 IN STRESS PERIOD    1
    36 TOTAL ITERATIONS

 OUTPUT CONTROL FOR STRESS PERIOD    1   TIME STEP    1
    SAVE BUDGET
    SAVE HEAD FOR ALL LAYERS
    PRINT HEAD FOR ALL LAYERS
 UBDSV2 SAVING "STREAMFLOW OUT  " ON UNIT  50 AT TIME STEP  1, STRESS PERIOD   1



 STREAM LISTING     PERIOD      1   STEP        1

 LAYER ROW COL. STREAM  RCH.  FLOW INTO     FLOW TO   FLOW OUT OF   OVRLND.     DIRECT     STREAM       STREAM     STREAM     STREAM   STREAMBED  STREAMBED
                SEG.NO.  NO.  STRM. RCH.    AQUIFER    STRM. RCH.    RUNOFF     PRECIP       ET          HEAD       DEPTH      WIDTH   CONDCTNC.   GRADIENT

   1   13    1     1     1    1.0000E+05 -6.1244E+03   1.0612E+05  0.000E+00  0.000E+00  0.000E+00  4.84087E+01  1.473E-01  2.000E+01  2.000E+04 -3.062E-01
   1   13    2     1     2    1.0612E+05 -7.5941E+03   1.1372E+05  0.000E+00  0.000E+00  0.000E+00  4.79372E+01  1.531E-01  2.000E+01  2.000E+04 -3.797E-01
   1   14    3     1     3    1.1372E+05 -2.1991E+03   1.1592E+05  0.000E+00  0.000E+00  0.000E+00  4.74640E+01  1.572E-01  2.000E+01  2.000E+04 -1.100E-01
   1   15    4     1     4    1.1592E+05 -2.2702E+03   1.1819E+05  0.000E+00  0.000E+00  0.000E+00  4.69885E+01  1.590E-01  2.000E+01  2.000E+04 -1.135E-01
   1   16    5     1     5    1.1819E+05 -7.1826E+03   1.2537E+05  0.000E+00  0.000E+00  0.000E+00  4.65151E+01  1.628E-01  2.000E+01  2.000E+04 -3.591E-01
   1   16    6     1     6    1.2537E+05 -4.3014E+03   1.2967E+05  0.000E+00  0.000E+00  0.000E+00  4.60424E+01  1.674E-01  2.000E+01  2.000E+04 -2.151E-01
   1   16    7     1     7    1.2967E+05 -4.1354E+03   1.3381E+05  0.000E+00  0.000E+00  0.000E+00  4.55684E+01  1.707E-01  2.000E+01  2.000E+04 -2.068E-01
   1   16    8     1     8    1.3381E+05 -4.0930E+03   1.3790E+05  0.000E+00  0.000E+00  0.000E+00  4.50943E+01  1.738E-01  2.000E+01  2.000E+04 -2.047E-01
   1   16    9     1     9    1.3790E+05 -4.0799E+03   1.4198E+05  0.000E+00  0.000E+00  0.000E+00  4.46201E+01  1.770E-01  2.000E+01  2.000E+04 -2.040E-01
   1   16   10     1    10    1.4198E+05 -4.0730E+03   1.4605E+05  0.000E+00  0.000E+00  0.000E+00  4.41460E+01  1.800E-01  2.000E+01  2.000E+04 -2.037E-01
   1   16   11     1    11    1.4605E+05 -4.1000E+03   1.5015E+05  0.000E+00  0.000E+00  0.000E+00  4.36717E+01  1.831E-01  2.000E+01  2.000E+04 -2.050E-01
   1   16   12     1    12    1.5015E+05 -6.9315E+03   1.5708E+05  0.000E+00  0.000E+00  0.000E+00  4.31985E+01  1.872E-01  2.000E+01  2.000E+04 -3.466E-01
   1   15   13     1    13    1.5708E+05 -7.2375E+03   1.6432E+05  0.000E+00  0.000E+00  0.000E+00  4.27264E+01  1.923E-01  2.000E+01  2.000E+04 -3.619E-01
   1   14   14     1    14    1.6432E+05 -7.7151E+03   1.7204E+05  0.000E+00  0.000E+00  0.000E+00  4.22544E+01  1.976E-01  2.000E+01  2.000E+04 -3.858E-01
   1   13   15     1    15    1.7204E+05 -8.0619E+03   1.8010E+05  0.000E+00  0.000E+00  0.000E+00  4.17827E+01  2.031E-01  2.000E+01  2.000E+04 -4.031E-01
   1   12   16     1    16    1.8010E+05 -8.8168E+03   1.8892E+05  0.000E+00  0.000E+00  0.000E+00  4.13112E+01  2.089E-01  2.000E+01  2.000E+04 -4.408E-01
   1   12   17     1    17    1.8892E+05 -6.1948E+03   1.9511E+05  0.000E+00  0.000E+00  0.000E+00  4.08390E+01  2.140E-01  2.000E+01  2.000E+04 -3.097E-01
   1   12   18     1    18    1.9511E+05 -5.9889E+03   2.0110E+05  0.000E+00  0.000E+00  0.000E+00  4.03657E+01  2.180E-01  2.000E+01  2.000E+04 -2.994E-01
   1   12   19     1    19    2.0110E+05 -7.5685E+03   2.0867E+05  0.000E+00  0.000E+00  0.000E+00  3.98929E+01  2.224E-01  2.000E+01  2.000E+04 -3.784E-01
   1   13   20     1    20    2.0867E+05 -5.9749E+03   2.1464E+05  0.000E+00  0.000E+00  0.000E+00  3.94200E+01  2.268E-01  2.000E+01  2.000E+04 -2.987E-01
   1   14   21     1    21    2.1464E+05 -1.1980E+03   2.1584E+05  0.000E+00  0.000E+00  0.000E+00  3.89450E+01  2.291E-01  2.000E+01  2.000E+04 -5.990E-02
   1   14   22     1    22    2.1584E+05  4.4774E+03   2.1136E+05  0.000E+00  0.000E+00  0.000E+00  3.84667E+01  2.281E-01  2.000E+01  2.000E+04  2.239E-01
   1    9   30     2     1    5.0000E+04 -2.4153E+03   5.2415E+04  0.000E+00  0.000E+00  0.000E+00  4.02425E+01  1.175E-01  2.000E+01  2.000E+04 -1.208E-01
   1    9   29     2     2    5.2415E+04 -4.6346E+02   5.2879E+04  0.000E+00  0.000E+00  0.000E+00  3.99945E+01  1.195E-01  2.000E+01  2.000E+04 -2.317E-02
   1    9   28     2     3    5.2879E+04 -3.5941E+03   5.6473E+04  0.000E+00  0.000E+00  0.000E+00  3.97473E+01  1.223E-01  2.000E+01  2.000E+04 -1.797E-01
   1    9   27     2     4    5.6473E+04 -7.5877E+03   6.4060E+04  0.000E+00  0.000E+00  0.000E+00  3.95046E+01  1.296E-01  2.000E+01  2.000E+04 -3.794E-01
   1   10   26     2     5    6.4060E+04 -6.3412E+03   7.0402E+04  0.000E+00  0.000E+00  0.000E+00  3.92634E+01  1.384E-01  2.000E+01  2.000E+04 -3.171E-01
   1   11   25     2     6    7.0402E+04 -6.2939E+03   7.6696E+04  0.000E+00  0.000E+00  0.000E+00  3.90211E+01  1.461E-01  2.000E+01  2.000E+04 -3.147E-01
   1   12   24     2     7    7.6696E+04 -6.1422E+03   8.2838E+04  0.000E+00  0.000E+00  0.000E+00  3.87783E+01  1.533E-01  2.000E+01  2.000E+04 -3.071E-01
   1   13   23     2     8    8.2838E+04 -1.6459E+03   8.4484E+04  0.000E+00  0.000E+00  0.000E+00  3.85328E+01  1.578E-01  2.000E+01  2.000E+04 -8.230E-02
   1   14   22     2     9    8.4484E+04  8.0836E+02   8.3675E+04  0.000E+00  0.000E+00  0.000E+00  3.82833E+01  1.583E-01  2.000E+01  2.000E+04  4.042E-02
   1   14   22     3     1    2.9504E+05 -9.1087E+03   3.0415E+05  0.000E+00  0.000E+00  0.000E+00  3.77874E+01  2.319E-01  2.000E+01  2.000E+04 -4.554E-01
   1   15   23     3     2    3.0415E+05 -1.5022E+03   3.0565E+05  0.000E+00  0.000E+00  0.000E+00  3.69010E+01  2.343E-01  2.000E+01  2.000E+04 -7.511E-02
   1   15   24     3     3    3.0565E+05 -1.4878E+03   3.0714E+05  0.000E+00  0.000E+00  0.000E+00  3.60128E+01  2.350E-01  2.000E+01  2.000E+04 -7.439E-02
   1   15   25     3     4    3.0714E+05 -1.5481E+03   3.0869E+05  0.000E+00  0.000E+00  0.000E+00  3.51246E+01  2.357E-01  2.000E+01  2.000E+04 -7.741E-02
   1   15   26     3     5    3.0869E+05 -1.7645E+03   3.1045E+05  0.000E+00  0.000E+00  0.000E+00  3.42365E+01  2.365E-01  2.000E+01  2.000E+04 -8.823E-02
   1   16   27     3     6    3.1045E+05 -1.8089E+03   3.1226E+05  0.000E+00  0.000E+00  0.000E+00  3.33484E+01  2.373E-01  2.000E+01  2.000E+04 -9.044E-02
   1   17   28     3     7    3.1226E+05  2.7585E+02   3.1198E+05  0.000E+00  0.000E+00  0.000E+00  3.24598E+01  2.376E-01  2.000E+01  2.000E+04  1.379E-02
   1   18   29     3     8    3.1198E+05  2.0889E+03   3.0989E+05  0.000E+00  0.000E+00  0.000E+00  3.15704E+01  2.371E-01  2.000E+01  2.000E+04  1.044E-01
   1   18   30     3     9    3.0989E+05 -2.3407E+03   3.1224E+05  0.000E+00  0.000E+00  0.000E+00  3.06816E+01  2.371E-01  2.000E+01  2.000E+04 -1.170E-01



1
              HEAD IN LAYER   1 AT END OF TIME STEP   1 IN STRESS PERIOD    1
  ---------------------------------------------------------------------------

          1      2      3      4      5      6      7      8      9     10
         11     12     13     14     15     16     17     18     19     20
         21     22     23     24     25     26     27     28     29     30
 .........................................................................
   1  ****** ****** ****** ****** ****** ****** ****** ****** ****** ******
      ****** ****** ****** ****** ****** ****** ****** ****** ****** ******
      ****** ****** ****** ****** ****** ****** ****** ****** ****** ******
   2  ****** ****** ****** ****** ****** ****** ****** ****** ****** ******
      ****** ****** ****** ****** ****** ****** ****** ****** ****** ******
      ****** ****** ****** ****** ****** ****** ****** ****** ****** ******
   3  ****** ****** ****** ****** ****** ****** ****** ****** ****** ******
      ****** ****** ****** ****** ****** ****** ****** ****** ****** ******
      ****** ****** ****** ****** ****** ****** ****** ****** ****** ******
   4  ****** ****** ****** ****** ****** ****** ****** ****** ****** ******
      ****** ****** ****** ****** ****** ****** ****** ****** ****** ******
      ****** ****** ****** ****** ****** ****** ****** ****** ****** ******
   5  ****** ****** ****** ****** ****** ****** ****** ****** ****** ******
      ****** ****** ****** ****** ****** ****** ****** ****** ****** ******
      ****** ****** ****** ****** ****** ****** ****** ****** ****** ******
   6  ****** ****** ****** ****** ****** ****** ****** ****** ****** ******
      ****** ****** ****** ****** ****** ****** ****** ****** ****** ******
      ****** ****** ****** ****** ****** ****** ****** ****** ****** ******
   7  ****** ****** ****** ****** ****** ****** ****** ****** ****** ******
      ****** ****** ****** ****** ****** ****** ****** ****** ****** ******
      ****** ****** ****** ****** ****** ****** ****** ****** ****** ******
   8  ****** ****** ****** ****** ****** ****** ****** ****** ****** ******
      ****** ****** ****** ****** ****** ****** ****** ****** ****** ******
      ****** ****** ****** ****** ****** ****** ****** ****** ****** ******
   9  ****** ****** ****** ****** ****** ****** ****** ****** ****** ******
      ****** ****** ****** ****** ****** ****** ****** ****** ****** ******
      ****** ****** ****** ****** ****** ****** ****** ****** ****** ******
  10  ****** ****** ****** ****** ****** ****** ****** ****** ****** ******
      ****** ****** ****** ****** ****** ****** ****** ****** ****** ******
      ****** ****** ****** ****** ****** ****** ****** ****** ****** ******
  11  ****** ****** ****** ****** ****** ****** ****** ****** ****** ******
      ****** ****** ****** ****** ****** ****** ****** ****** ****** ******
      ****** ****** ****** ****** ****** ****** ****** ****** ****** ******
  12  ****** ****** ****** ****** ****** ****** ****** ****** ****** ******
      ****** ****** ****** ****** ****** ****** ****** ****** ****** ******
      ****** ****** ****** ****** ****** ****** ****** ****** ****** ******
  13  ****** ****** ****** ****** ****** ****** ****** ****** ****** ******
      ****** ****** ****** ****** ****** ****** ****** ****** ****** ******
      ****** ****** ****** ****** ****** ****** ****** ****** ****** ******
  14  ****** ****** ****** ****** ****** ****** ****** ****** ****** ******
      ****** ****** ****** ****** ****** ****** ****** ****** ****** ******
      ****** ****** ****** ****** ****** ****** ****** ****** ****** ******
  15  ****** ****** ****** ****** ****** ****** ****** ****** ****** ******
      ****** ****** ****** ****** ****** ****** ****** ****** ****** ******
      ****** ****** ****** ****** ****** ****** ****** ****** ****** ******
  16  ****** ****** ****** ****** ****** ****** ****** ****** ****** ******
      ****** ****** ****** ****** ****** ****** ****** ****** ****** ******
      ****** ****** ****** ****** ****** ****** ****** ****** ****** ******
  17  ****** ****** ****** ****** ****** ****** ****** ****** ****** ******
      ****** ****** ****** ****** ****** ****** ****** ****** ****** ******
      ****** ****** ****** ****** ****** ****** ****** ****** ****** ******
  18  ****** ****** ****** ****** ****** ****** ****** ****** ****** ******
      ****** ****** ****** ****** ****** ****** ****** ****** ****** ******
      ****** ****** ****** ****** ****** ****** ****** ****** ****** ******
  19  ****** ****** ****** ****** ****** ****** ****** ****** ****** ******
      ****** ****** ****** ****** ****** ****** ****** ****** ****** ******
      ****** ****** ****** ****** ****** ****** ****** ****** ****** ******
  20  ****** ****** ****** ****** ****** ****** ****** ****** ****** ******
      ****** ****** ****** ****** ****** ****** ****** ****** ****** ******
      ****** ****** ****** ****** ****** ****** ****** ****** ****** ******
  21  ****** ****** ****** ****** ****** ****** ****** ****** ****** ******
      ****** ****** ****** ****** ****** ****** ****** ****** ****** ******
      ****** ****** ****** ****** ****** ****** ****** ****** ****** ******
  22  ****** ****** ****** ****** ****** ****** ****** ****** ****** ******
      ****** ****** ****** ****** ****** ****** ****** ****** ****** ******
      ****** ****** ****** ****** ****** ****** ****** ****** ****** ******
  23  ****** ****** ****** ****** ****** ****** ****** ****** ****** ******
      ****** ****** ****** ****** ****** ****** ****** ****** ****** ******
      ****** ****** ****** ****** ****** ****** ****** ****** ****** ******
  24  ****** ****** ****** ****** ****** ****** ****** ****** ****** ******
      ****** ****** ****** ****** ****** ****** ****** ****** ****** ******
      ****** ****** ****** ****** ****** ****** ****** ****** ****** ******
  25  ****** ****** ****** ****** ****** ****** ****** ****** ****** ******
      ****** ****** ****** ****** ****** ****** ****** ****** ****** ******
      ****** ****** ****** ****** ****** ****** ****** ****** ****** ******

 HEAD WILL BE SAVED ON UNIT   51 AT END OF TIME STEP    1, STRESS PERIOD    1
1
  VOLUMETRIC BUDGET FOR ENTIRE MODEL AT END OF TIME STEP    1, STRESS PERIOD   1
  ------------------------------------------------------------------------------

     CUMULATIVE VOLUMES      L**3       RATES FOR THIS TIME STEP      L**3/T
     ------------------                 ------------------------

           IN:                                      IN:
           ---                                      ---
             STORAGE =    17380005.8286               STORAGE =      188913.1068
       CONSTANT HEAD =     1121176.0111         CONSTANT HEAD =       12186.6958
               WELLS =           0.0000                 WELLS =           0.0000
            RECHARGE =     1269600.0000              RECHARGE =       13800.0000
      STREAM LEAKAGE =      703842.4096        STREAM LEAKAGE =        7650.4610

            TOTAL IN =    20474624.2493              TOTAL IN =      222550.2636

          OUT:                                     OUT:
          ----                                     ----
             STORAGE =           0.0000               STORAGE =           0.0000
       CONSTANT HEAD =           0.0000         CONSTANT HEAD =           0.0000
               WELLS =     4845145.1726                 WELLS =       52664.6214
            RECHARGE =           0.0000              RECHARGE =           0.0000
      STREAM LEAKAGE =    15629479.3673        STREAM LEAKAGE =      169885.6453

           TOTAL OUT =    20474624.5399             TOTAL OUT =      222550.2667

            IN - OUT =          -0.2907              IN - OUT =      -3.1598E-03

 PERCENT DISCREPANCY =          -0.00     PERCENT DISCREPANCY =          -0.00






         TIME SUMMARY AT END OF TIME STEP    1 IN STRESS PERIOD    1
                    SECONDS     MINUTES      HOURS       DAYS        YEARS
                    -----------------------------------------------------------
   TIME STEP LENGTH 7.94880E+06 1.32480E+05  2208.0      92.000     0.25188    
 STRESS PERIOD TIME 7.94880E+06 1.32480E+05  2208.0      92.000     0.25188    
         TOTAL TIME 7.94880E+06 1.32480E+05  2208.0      92.000     0.25188    
1
1
                            STRESS PERIOD NO.    2, LENGTH =   91.00000    
                            -----------------------------------------------

                              NUMBER OF TIME STEPS =     1

                               MULTIPLIER FOR DELT =     1.500

                            INITIAL TIME STEP SIZE =   91.00000    

 WELL NO.  LAYER   ROW   COL   STRESS RATE         
 --------------------------------------------------
      1      1     14      6       0.000    
      2      1      3      9       0.000    
      3      1     20     10       0.000    
      4      1     14     20       0.000    
      5      1     10     29     -0.1299E+05
      6      1     15     21     -0.1317E+05
      7      1     19     29     -0.1184E+05
      8      1     17     29     -0.1466E+05

      8 WELLS

                 RECHARGE =  2.000000E-03

 REUSING STREAM SEGMENT DATA FROM LAST STRESS PERIOD
 
 SOLVING FOR HEAD 


     7 CALLS TO PCG ROUTINE FOR TIME STEP   1 IN STRESS PERIOD    2
    27 TOTAL ITERATIONS

 OUTPUT CONTROL FOR STRESS PERIOD    2   TIME STEP    1
    SAVE BUDGET
    SAVE HEAD FOR ALL LAYERS
    PRINT HEAD FOR ALL LAYERS
 UBDSV2 SAVING "STREAMFLOW OUT  " ON UNIT  50 AT TIME STEP  1, STRESS PERIOD   2



 STREAM LISTING     PERIOD      2   STEP        1

 LAYER ROW COL. STREAM  RCH.  FLOW INTO     FLOW TO   FLOW OUT OF   OVRLND.     DIRECT     STREAM       STREAM     STREAM     STREAM   STREAMBED  STREAMBED
                SEG.NO.  NO.  STRM. RCH.    AQUIFER    STRM. RCH.    RUNOFF     PRECIP       ET          HEAD       DEPTH      WIDTH   CONDCTNC.   GRADIENT

   1   13    1     1     1    1.0000E+05 -4.0156E+03   1.0402E+05  0.000E+00  0.000E+00  0.000E+00  4.84078E+01  1.464E-01  2.000E+01  2.000E+04 -2.008E-01
   1   13    2     1     2    1.0402E+05 -5.2783E+03   1.0929E+05  0.000E+00  0.000E+00  0.000E+00  4.79344E+01  1.504E-01  2.000E+01  2.000E+04 -2.639E-01
   1   14    3     1     3    1.0929E+05 -1.1167E+03   1.1041E+05  0.000E+00  0.000E+00  0.000E+00  4.74599E+01  1.530E-01  2.000E+01  2.000E+04 -5.584E-02
   1   15    4     1     4    1.1041E+05 -1.1441E+03   1.1155E+05  0.000E+00  0.000E+00  0.000E+00  4.69835E+01  1.540E-01  2.000E+01  2.000E+04 -5.720E-02
   1   16    5     1     5    1.1155E+05 -4.2488E+03   1.1580E+05  0.000E+00  0.000E+00  0.000E+00  4.65085E+01  1.562E-01  2.000E+01  2.000E+04 -2.124E-01
   1   16    6     1     6    1.1580E+05 -2.5033E+03   1.1831E+05  0.000E+00  0.000E+00  0.000E+00  4.60340E+01  1.590E-01  2.000E+01  2.000E+04 -1.252E-01
   1   16    7     1     7    1.1831E+05 -2.4073E+03   1.2071E+05  0.000E+00  0.000E+00  0.000E+00  4.55587E+01  1.610E-01  2.000E+01  2.000E+04 -1.204E-01
   1   16    8     1     8    1.2071E+05 -2.3753E+03   1.2309E+05  0.000E+00  0.000E+00  0.000E+00  4.50834E+01  1.629E-01  2.000E+01  2.000E+04 -1.188E-01
   1   16    9     1     9    1.2309E+05 -2.3499E+03   1.2544E+05  0.000E+00  0.000E+00  0.000E+00  4.46080E+01  1.648E-01  2.000E+01  2.000E+04 -1.175E-01
   1   16   10     1    10    1.2544E+05 -2.3179E+03   1.2776E+05  0.000E+00  0.000E+00  0.000E+00  4.41325E+01  1.666E-01  2.000E+01  2.000E+04 -1.159E-01
   1   16   11     1    11    1.2776E+05 -2.3091E+03   1.3007E+05  0.000E+00  0.000E+00  0.000E+00  4.36571E+01  1.685E-01  2.000E+01  2.000E+04 -1.155E-01
   1   16   12     1    12    1.3007E+05 -4.0088E+03   1.3408E+05  0.000E+00  0.000E+00  0.000E+00  4.31823E+01  1.709E-01  2.000E+01  2.000E+04 -2.004E-01
   1   15   13     1    13    1.3408E+05 -3.9823E+03   1.3806E+05  0.000E+00  0.000E+00  0.000E+00  4.27081E+01  1.740E-01  2.000E+01  2.000E+04 -1.991E-01
   1   14   14     1    14    1.3806E+05 -4.3533E+03   1.4241E+05  0.000E+00  0.000E+00  0.000E+00  4.22340E+01  1.772E-01  2.000E+01  2.000E+04 -2.177E-01
   1   13   15     1    15    1.4241E+05 -4.7267E+03   1.4714E+05  0.000E+00  0.000E+00  0.000E+00  4.17602E+01  1.806E-01  2.000E+01  2.000E+04 -2.363E-01
   1   12   16     1    16    1.4714E+05 -5.7359E+03   1.5287E+05  0.000E+00  0.000E+00  0.000E+00  4.12868E+01  1.845E-01  2.000E+01  2.000E+04 -2.868E-01
   1   12   17     1    17    1.5287E+05 -3.7191E+03   1.5659E+05  0.000E+00  0.000E+00  0.000E+00  4.08130E+01  1.880E-01  2.000E+01  2.000E+04 -1.860E-01
   1   12   18     1    18    1.5659E+05 -3.4997E+03   1.6009E+05  0.000E+00  0.000E+00  0.000E+00  4.03383E+01  1.906E-01  2.000E+01  2.000E+04 -1.750E-01
   1   12   19     1    19    1.6009E+05 -4.4892E+03   1.6458E+05  0.000E+00  0.000E+00  0.000E+00  3.98639E+01  1.935E-01  2.000E+01  2.000E+04 -2.245E-01
   1   13   20     1    20    1.6458E+05 -2.7799E+03   1.6736E+05  0.000E+00  0.000E+00  0.000E+00  3.93892E+01  1.960E-01  2.000E+01  2.000E+04 -1.390E-01
   1   14   21     1    21    1.6736E+05  1.8295E+03   1.6553E+05  0.000E+00  0.000E+00  0.000E+00  3.89123E+01  1.964E-01  2.000E+01  2.000E+04  9.147E-02
   1   14   22     1    22    1.6553E+05  5.3178E+03   1.6021E+05  0.000E+00  0.000E+00  0.000E+00  3.84325E+01  1.938E-01  2.000E+01  2.000E+04  2.659E-01
   1    9   30     2     1    5.0000E+04  5.3698E+02   4.9463E+04  0.000E+00  0.000E+00  0.000E+00  4.02405E+01  1.155E-01  2.000E+01  2.000E+04  2.685E-02
   1    9   29     2     2    4.9463E+04  2.4775E+03   4.6986E+04  0.000E+00  0.000E+00  0.000E+00  3.99884E+01  1.134E-01  2.000E+01  2.000E+04  1.239E-01
   1    9   28     2     3    4.6986E+04 -7.4609E+02   4.7732E+04  0.000E+00  0.000E+00  0.000E+00  3.97372E+01  1.122E-01  2.000E+01  2.000E+04 -3.730E-02
   1    9   27     2     4    4.7732E+04 -4.0721E+03   5.1804E+04  0.000E+00  0.000E+00  0.000E+00  3.94905E+01  1.155E-01  2.000E+01  2.000E+04 -2.036E-01
   1   10   26     2     5    5.1804E+04 -2.6093E+03   5.4413E+04  0.000E+00  0.000E+00  0.000E+00  3.92451E+01  1.201E-01  2.000E+01  2.000E+04 -1.305E-01
   1   11   25     2     6    5.4413E+04 -2.7661E+03   5.7179E+04  0.000E+00  0.000E+00  0.000E+00  3.89987E+01  1.237E-01  2.000E+01  2.000E+04 -1.383E-01
   1   12   24     2     7    5.7179E+04 -3.0489E+03   6.0228E+04  0.000E+00  0.000E+00  0.000E+00  3.87526E+01  1.276E-01  2.000E+01  2.000E+04 -1.524E-01
   1   13   23     2     8    6.0228E+04 -6.0765E+02   6.0836E+04  0.000E+00  0.000E+00  0.000E+00  3.85049E+01  1.299E-01  2.000E+01  2.000E+04 -3.038E-02
   1   14   22     2     9    6.0836E+04  1.7525E+03   5.9083E+04  0.000E+00  0.000E+00  0.000E+00  3.82542E+01  1.292E-01  2.000E+01  2.000E+04  8.762E-02
   1   14   22     3     1    2.1930E+05 -8.3314E+03   2.2763E+05  0.000E+00  0.000E+00  0.000E+00  3.77500E+01  1.945E-01  2.000E+01  2.000E+04 -4.166E-01
   1   15   23     3     2    2.2763E+05 -4.9092E+02   2.2812E+05  0.000E+00  0.000E+00  0.000E+00  3.68634E+01  1.968E-01  2.000E+01  2.000E+04 -2.455E-02
   1   15   24     3     3    2.2812E+05 -5.9569E+02   2.2872E+05  0.000E+00  0.000E+00  0.000E+00  3.59748E+01  1.970E-01  2.000E+01  2.000E+04 -2.978E-02
   1   15   25     3     4    2.2872E+05 -6.1443E+02   2.2933E+05  0.000E+00  0.000E+00  0.000E+00  3.50862E+01  1.973E-01  2.000E+01  2.000E+04 -3.072E-02
   1   15   26     3     5    2.2933E+05 -5.9756E+02   2.2993E+05  0.000E+00  0.000E+00  0.000E+00  3.41977E+01  1.977E-01  2.000E+01  2.000E+04 -2.988E-02
   1   16   27     3     6    2.2993E+05 -4.4554E+02   2.3037E+05  0.000E+00  0.000E+00  0.000E+00  3.33090E+01  1.979E-01  2.000E+01  2.000E+04 -2.228E-02
   1   17   28     3     7    2.3037E+05  4.2152E+03   2.2616E+05  0.000E+00  0.000E+00  0.000E+00  3.24192E+01  1.970E-01  2.000E+01  2.000E+04  2.108E-01
   1   18   29     3     8    2.2616E+05  5.7618E+03   2.2040E+05  0.000E+00  0.000E+00  0.000E+00  3.15277E+01  1.944E-01  2.000E+01  2.000E+04  2.881E-01
   1   18   30     3     9    2.2040E+05  7.1673E+02   2.1968E+05  0.000E+00  0.000E+00  0.000E+00  3.06371E+01  1.927E-01  2.000E+01  2.000E+04  3.584E-02



1
              HEAD IN LAYER   1 AT END OF TIME STEP   1 IN STRESS PERIOD    2
  ---------------------------------------------------------------------------

          1      2      3      4      5      6      7      8      9     10
         11     12     13     14     15     16     17     18     19     20
         21     22     23     24     25     26     27     28     29     30
 .........................................................................
   1  ****** ****** ****** ****** ****** ****** ****** ****** ****** ******
      ****** ****** ****** ****** ****** ****** ****** ****** ****** ******
      ****** ****** ****** ****** ****** ****** ****** ****** ****** ******
   2  ****** ****** ****** ****** ****** ****** ****** ****** ****** ******
      ****** ****** ****** ****** ****** ****** ****** ****** ****** ******
      ****** ****** ****** ****** ****** ****** ****** ****** ****** ******
   3  ****** ****** ****** ****** ****** ****** ****** ****** ****** ******
      ****** ****** ****** ****** ****** ****** ****** ****** ****** ******
      ****** ****** ****** ****** ****** ****** ****** ****** ****** ******
   4  ****** ****** ****** ****** ****** ****** ****** ****** ****** ******
      ****** ****** ****** ****** ****** ****** ****** ****** ****** ******
      ****** ****** ****** ****** ****** ****** ****** ****** ****** ******
   5  ****** ****** ****** ****** ****** ****** ****** ****** ****** ******
      ****** ****** ****** ****** ****** ****** ****** ****** ****** ******
      ****** ****** ****** ****** ****** ****** ****** ****** ****** ******
   6  ****** ****** ****** ****** ****** ****** ****** ****** ****** ******
      ****** ****** ****** ****** ****** ****** ****** ****** ****** ******
      ****** ****** ****** ****** ****** ****** ****** ****** ****** ******
   7  ****** ****** ****** ****** ****** ****** ****** ****** ****** ******
      ****** ****** ****** ****** ****** ****** ****** ****** ****** ******
      ****** ****** ****** ****** ****** ****** ****** ****** ****** ******
   8  ****** ****** ****** ****** ****** ****** ****** ****** ****** ******
      ****** ****** ****** ****** ****** ****** ****** ****** ****** ******
      ****** ****** ****** ****** ****** ****** ****** ****** ****** ******
   9  ****** ****** ****** ****** ****** ****** ****** ****** ****** ******
      ****** ****** ****** ****** ****** ****** ****** ****** ****** ******
      ****** ****** ****** ****** ****** ****** ****** ****** ****** ******
  10  ****** ****** ****** ****** ****** ****** ****** ****** ****** ******
      ****** ****** ****** ****** ****** ****** ****** ****** ****** ******
      ****** ****** ****** ****** ****** ****** ****** ****** ****** ******
  11  ****** ****** ****** ****** ****** ****** ****** ****** ****** ******
      ****** ****** ****** ****** ****** ****** ****** ****** ****** ******
      ****** ****** ****** ****** ****** ****** ****** ****** ****** ******
  12  ****** ****** ****** ****** ****** ****** ****** ****** ****** ******
      ****** ****** ****** ****** ****** ****** ****** ****** ****** ******
      ****** ****** ****** ****** ****** ****** ****** ****** ****** ******
  13  ****** ****** ****** ****** ****** ****** ****** ****** ****** ******
      ****** ****** ****** ****** ****** ****** ****** ****** ****** ******
      ****** ****** ****** ****** ****** ****** ****** ****** ****** ******
  14  ****** ****** ****** ****** ****** ****** ****** ****** ****** ******
      ****** ****** ****** ****** ****** ****** ****** ****** ****** ******
      ****** ****** ****** ****** ****** ****** ****** ****** ****** ******
  15  ****** ****** ****** ****** ****** ****** ****** ****** ****** ******
      ****** ****** ****** ****** ****** ****** ****** ****** ****** ******
      ****** ****** ****** ****** ****** ****** ****** ****** ****** ******
  16  ****** ****** ****** ****** ****** ****** ****** ****** ****** ******
      ****** ****** ****** ****** ****** ****** ****** ****** ****** ******
      ****** ****** ****** ****** ****** ****** ****** ****** ****** ******
  17  ****** ****** ****** ****** ****** ****** ****** ****** ****** ******
      ****** ****** ****** ****** ****** ****** ****** ****** ****** ******
      ****** ****** ****** ****** ****** ****** ****** ****** ****** ******
  18  ****** ****** ****** ****** ****** ****** ****** ****** ****** ******
      ****** ****** ****** ****** ****** ****** ****** ****** ****** ******
      ****** ****** ****** ****** ****** ****** ****** ****** ****** ******
  19  ****** ****** ****** ****** ****** ****** ****** ****** ****** ******
      ****** ****** ****** ****** ****** ****** ****** ****** ****** ******
      ****** ****** ****** ****** ****** ****** ****** ****** ****** ******
  20  ****** ****** ****** ****** ****** ****** ****** ****** ****** ******
      ****** ****** ****** ****** ****** ****** ****** ****** ****** ******
      ****** ****** ****** ****** ****** ****** ****** ****** ****** ******
  21  ****** ****** ****** ****** ****** ****** ****** ****** ****** ******
      ****** ****** ****** ****** ****** ****** ****** ****** ****** ******
      ****** ****** ****** ****** ****** ****** ****** ****** ****** ******
  22  ****** ****** ****** ****** ****** ****** ****** ****** ****** ******
      ****** ****** ****** ****** ****** ****** ****** ****** ****** ******
      ****** ****** ****** ****** ****** ****** ****** ****** ****** ******
  23  ****** ****** ****** ****** ****** ****** ****** ****** ****** ******
      ****** ****** ****** ****** ****** ****** ****** ****** ****** ******
      ****** ****** ****** ****** ****** ****** ****** ****** ****** ******
  24  ****** ****** ****** ****** ****** ****** ****** ****** ****** ******
      ****** ****** ****** ****** ****** ****** ****** ****** ****** ******
      ****** ****** ****** ****** ****** ****** ****** ****** ****** ******
  25  ****** ****** ****** ****** ****** ****** ****** ****** ****** ******
      ****** ****** ****** ****** ****** ****** ****** ****** ****** ******
      ****** ****** ****** ****** ****** ****** ****** ****** ****** ******

 HEAD WILL BE SAVED ON UNIT   51 AT END OF TIME STEP    1, STRESS PERIOD    2
1
  VOLUMETRIC BUDGET FOR ENTIRE MODEL AT END OF TIME STEP    1, STRESS PERIOD   2
  ------------------------------------------------------------------------------

     CUMULATIVE VOLUMES      L**3       RATES FOR THIS TIME STEP      L**3/T
     ------------------                 ------------------------

           IN:                                      IN:
           ---                                      ---
             STORAGE =    22002107.5236               STORAGE =       50792.3263
       CONSTANT HEAD =     2609131.4766         CONSTANT HEAD =       16351.1590
               WELLS =           0.0000                 WELLS =           0.0000
            RECHARGE =     6292800.0000              RECHARGE =       55200.0000
      STREAM LEAKAGE =     2761171.8189        STREAM LEAKAGE =       22608.0155

            TOTAL IN =    33665210.8191              TOTAL IN =      144951.5008

          OUT:                                     OUT:
          ----                                     ----
             STORAGE =           0.0000               STORAGE =           0.0000
       CONSTANT HEAD =           0.0000         CONSTANT HEAD =           0.0000
               WELLS =     9637625.7238                 WELLS =       52664.6214
            RECHARGE =           0.0000              RECHARGE =           0.0000
      STREAM LEAKAGE =    24027586.3263        STREAM LEAKAGE =       92286.8897

           TOTAL OUT =    33665212.0501             TOTAL OUT =      144951.5111

            IN - OUT =          -1.2310              IN - OUT =      -1.0333E-02

 PERCENT DISCREPANCY =          -0.00     PERCENT DISCREPANCY =          -0.00






         TIME SUMMARY AT END OF TIME STEP    1 IN STRESS PERIOD    2
                    SECONDS     MINUTES      HOURS       DAYS        YEARS
                    -----------------------------------------------------------
   TIME STEP LENGTH 7.86240E+06 1.31040E+05  2184.0      91.000     0.24914    
 STRESS PERIOD TIME 7.86240E+06 1.31040E+05  2184.0      91.000     0.24914    
         TOTAL TIME 1.58112E+07 2.63520E+05  4392.0      183.00     0.50103    
1
1
                            STRESS PERIOD NO.    3, LENGTH =   91.00000    
                            -----------------------------------------------

                              NUMBER OF TIME STEPS =     1

                               MULTIPLIER FOR DELT =     1.500

                            INITIAL TIME STEP SIZE =   91.00000    

 WELL NO.  LAYER   ROW   COL   STRESS RATE         
 --------------------------------------------------
      1      1     14      6       0.000    
      2      1      3      9       0.000    
      3      1     20     10       0.000    
      4      1     14     20       0.000    
      5      1     10     29     -0.1299E+05
      6      1     15     21     -0.1317E+05
      7      1     19     29     -0.1184E+05
      8      1     17     29     -0.1466E+05

      8 WELLS

                 RECHARGE =   0.00000    

 REUSING STREAM SEGMENT DATA FROM LAST STRESS PERIOD
 
 SOLVING FOR HEAD 


     7 CALLS TO PCG ROUTINE FOR TIME STEP   1 IN STRESS PERIOD    3
    27 TOTAL ITERATIONS

 OUTPUT CONTROL FOR STRESS PERIOD    3   TIME STEP    1
    SAVE BUDGET
    SAVE HEAD FOR ALL LAYERS
    PRINT HEAD FOR ALL LAYERS
 UBDSV2 SAVING "STREAMFLOW OUT  " ON UNIT  50 AT TIME STEP  1, STRESS PERIOD   3



 STREAM LISTING     PERIOD      3   STEP        1

 LAYER ROW COL. STREAM  RCH.  FLOW INTO     FLOW TO   FLOW OUT OF   OVRLND.     DIRECT     STREAM       STREAM     STREAM     STREAM   STREAMBED  STREAMBED
                SEG.NO.  NO.  STRM. RCH.    AQUIFER    STRM. RCH.    RUNOFF     PRECIP       ET          HEAD       DEPTH      WIDTH   CONDCTNC.   GRADIENT

   1   13    1     1     1    1.0000E+05 -2.7779E+03   1.0278E+05  0.000E+00  0.000E+00  0.000E+00  4.84072E+01  1.459E-01  2.000E+01  2.000E+04 -1.389E-01
   1   13    2     1     2    1.0278E+05 -3.8882E+03   1.0667E+05  0.000E+00  0.000E+00  0.000E+00  4.79328E+01  1.487E-01  2.000E+01  2.000E+04 -1.944E-01
   1   14    3     1     3    1.0667E+05 -6.5713E+02   1.0732E+05  0.000E+00  0.000E+00  0.000E+00  4.74575E+01  1.506E-01  2.000E+01  2.000E+04 -3.286E-02
   1   15    4     1     4    1.0732E+05 -6.3988E+02   1.0796E+05  0.000E+00  0.000E+00  0.000E+00  4.69807E+01  1.512E-01  2.000E+01  2.000E+04 -3.199E-02
   1   16    5     1     5    1.0796E+05 -2.4535E+03   1.1042E+05  0.000E+00  0.000E+00  0.000E+00  4.65048E+01  1.525E-01  2.000E+01  2.000E+04 -1.227E-01
   1   16    6     1     6    1.1042E+05 -1.4998E+03   1.1192E+05  0.000E+00  0.000E+00  0.000E+00  4.60291E+01  1.541E-01  2.000E+01  2.000E+04 -7.499E-02
   1   16    7     1     7    1.1192E+05 -1.4614E+03   1.1338E+05  0.000E+00  0.000E+00  0.000E+00  4.55531E+01  1.554E-01  2.000E+01  2.000E+04 -7.307E-02
   1   16    8     1     8    1.1338E+05 -1.4465E+03   1.1482E+05  0.000E+00  0.000E+00  0.000E+00  4.50770E+01  1.566E-01  2.000E+01  2.000E+04 -7.232E-02
   1   16    9     1     9    1.1482E+05 -1.4242E+03   1.1625E+05  0.000E+00  0.000E+00  0.000E+00  4.46009E+01  1.577E-01  2.000E+01  2.000E+04 -7.121E-02
   1   16   10     1    10    1.1625E+05 -1.3904E+03   1.1764E+05  0.000E+00  0.000E+00  0.000E+00  4.41248E+01  1.589E-01  2.000E+01  2.000E+04 -6.952E-02
   1   16   11     1    11    1.1764E+05 -1.3722E+03   1.1901E+05  0.000E+00  0.000E+00  0.000E+00  4.36487E+01  1.600E-01  2.000E+01  2.000E+04 -6.861E-02
   1   16   12     1    12    1.1901E+05 -2.3749E+03   1.2139E+05  0.000E+00  0.000E+00  0.000E+00  4.31729E+01  1.615E-01  2.000E+01  2.000E+04 -1.187E-01
   1   15   13     1    13    1.2139E+05 -2.3215E+03   1.2371E+05  0.000E+00  0.000E+00  0.000E+00  4.26975E+01  1.634E-01  2.000E+01  2.000E+04 -1.161E-01
   1   14   14     1    14    1.2371E+05 -2.6558E+03   1.2636E+05  0.000E+00  0.000E+00  0.000E+00  4.22222E+01  1.654E-01  2.000E+01  2.000E+04 -1.328E-01
   1   13   15     1    15    1.2636E+05 -3.0384E+03   1.2940E+05  0.000E+00  0.000E+00  0.000E+00  4.17472E+01  1.677E-01  2.000E+01  2.000E+04 -1.519E-01
   1   12   16     1    16    1.2940E+05 -4.0168E+03   1.3342E+05  0.000E+00  0.000E+00  0.000E+00  4.12727E+01  1.704E-01  2.000E+01  2.000E+04 -2.008E-01
   1   12   17     1    17    1.3342E+05 -2.4634E+03   1.3588E+05  0.000E+00  0.000E+00  0.000E+00  4.07979E+01  1.729E-01  2.000E+01  2.000E+04 -1.232E-01
   1   12   18     1    18    1.3588E+05 -2.2598E+03   1.3814E+05  0.000E+00  0.000E+00  0.000E+00  4.03225E+01  1.747E-01  2.000E+01  2.000E+04 -1.130E-01
   1   12   19     1    19    1.3814E+05 -2.9412E+03   1.4108E+05  0.000E+00  0.000E+00  0.000E+00  3.98472E+01  1.767E-01  2.000E+01  2.000E+04 -1.471E-01
   1   13   20     1    20    1.4108E+05 -1.3192E+03   1.4240E+05  0.000E+00  0.000E+00  0.000E+00  3.93715E+01  1.783E-01  2.000E+01  2.000E+04 -6.596E-02
   1   14   21     1    21    1.4240E+05  3.3632E+03   1.3904E+05  0.000E+00  0.000E+00  0.000E+00  3.88935E+01  1.776E-01  2.000E+01  2.000E+04  1.682E-01
   1   14   22     1    22    1.3904E+05  5.6937E+03   1.3335E+05  0.000E+00  0.000E+00  0.000E+00  3.84127E+01  1.741E-01  2.000E+01  2.000E+04  2.847E-01
   1    9   30     2     1    5.0000E+04  1.7636E+03   4.8236E+04  0.000E+00  0.000E+00  0.000E+00  4.02396E+01  1.146E-01  2.000E+01  2.000E+04  8.818E-02
   1    9   29     2     2    4.8236E+04  3.6984E+03   4.4538E+04  0.000E+00  0.000E+00  0.000E+00  3.99858E+01  1.108E-01  2.000E+01  2.000E+04  1.849E-01
   1    9   28     2     3    4.4538E+04  4.7809E+02   4.4060E+04  0.000E+00  0.000E+00  0.000E+00  3.97327E+01  1.077E-01  2.000E+01  2.000E+04  2.390E-02
   1    9   27     2     4    4.4060E+04 -2.3452E+03   4.6405E+04  0.000E+00  0.000E+00  0.000E+00  3.94841E+01  1.091E-01  2.000E+01  2.000E+04 -1.173E-01
   1   10   26     2     5    4.6405E+04 -9.7644E+02   4.7382E+04  0.000E+00  0.000E+00  0.000E+00  3.92365E+01  1.115E-01  2.000E+01  2.000E+04 -4.882E-02
   1   11   25     2     6    4.7382E+04 -1.2482E+03   4.8630E+04  0.000E+00  0.000E+00  0.000E+00  3.89881E+01  1.131E-01  2.000E+01  2.000E+04 -6.241E-02
   1   12   24     2     7    4.8630E+04 -1.7071E+03   5.0337E+04  0.000E+00  0.000E+00  0.000E+00  3.87401E+01  1.151E-01  2.000E+01  2.000E+04 -8.535E-02
   1   13   23     2     8    5.0337E+04 -2.7463E+02   5.0611E+04  0.000E+00  0.000E+00  0.000E+00  3.84915E+01  1.165E-01  2.000E+01  2.000E+04 -1.373E-02
   1   14   22     2     9    5.0611E+04  2.2420E+03   4.8369E+04  0.000E+00  0.000E+00  0.000E+00  3.82402E+01  1.152E-01  2.000E+01  2.000E+04  1.121E-01
   1   14   22     3     1    1.8171E+05 -7.9697E+03   1.8968E+05  0.000E+00  0.000E+00  0.000E+00  3.77296E+01  1.740E-01  2.000E+01  2.000E+04 -3.985E-01
   1   15   23     3     2    1.8968E+05 -7.8767E+01   1.8976E+05  0.000E+00  0.000E+00  0.000E+00  3.68429E+01  1.763E-01  2.000E+01  2.000E+04 -3.938E-03
   1   15   24     3     3    1.8976E+05 -2.6065E+02   1.9002E+05  0.000E+00  0.000E+00  0.000E+00  3.59541E+01  1.764E-01  2.000E+01  2.000E+04 -1.303E-02
   1   15   25     3     4    1.9002E+05 -2.6248E+02   1.9029E+05  0.000E+00  0.000E+00  0.000E+00  3.50654E+01  1.765E-01  2.000E+01  2.000E+04 -1.312E-02
   1   15   26     3     5    1.9029E+05 -1.7312E+02   1.9046E+05  0.000E+00  0.000E+00  0.000E+00  3.41766E+01  1.766E-01  2.000E+01  2.000E+04 -8.656E-03
   1   16   27     3     6    1.9046E+05  4.9832E+01   1.9041E+05  0.000E+00  0.000E+00  0.000E+00  3.32878E+01  1.767E-01  2.000E+01  2.000E+04  2.492E-03
   1   17   28     3     7    1.9041E+05  5.7661E+03   1.8464E+05  0.000E+00  0.000E+00  0.000E+00  3.23973E+01  1.750E-01  2.000E+01  2.000E+04  2.883E-01
   1   18   29     3     8    1.8464E+05  7.4633E+03   1.7718E+05  0.000E+00  0.000E+00  0.000E+00  3.15046E+01  1.713E-01  2.000E+01  2.000E+04  3.732E-01
   1   18   30     3     9    1.7718E+05  1.9883E+03   1.7519E+05  0.000E+00  0.000E+00  0.000E+00  3.06131E+01  1.686E-01  2.000E+01  2.000E+04  9.941E-02



1
              HEAD IN LAYER   1 AT END OF TIME STEP   1 IN STRESS PERIOD    3
  ---------------------------------------------------------------------------

          1      2      3      4      5      6      7      8      9     10
         11     12     13     14     15     16     17     18     19     20
         21     22     23     24     25     26     27     28     29     30
 .........................................................................
   1  ****** ****** ****** ****** ****** ****** ****** ****** ****** ******
      ****** ****** ****** ****** ****** ****** ****** ****** ****** ******
      ****** ****** ****** ****** ****** ****** ****** ****** ****** ******
   2  ****** ****** ****** ****** ****** ****** ****** ****** ****** ******
      ****** ****** ****** ****** ****** ****** ****** ****** ****** ******
      ****** ****** ****** ****** ****** ****** ****** ****** ****** ******
   3  ****** ****** ****** ****** ****** ****** ****** ****** ****** ******
      ****** ****** ****** ****** ****** ****** ****** ****** ****** ******
      ****** ****** ****** ****** ****** ****** ****** ****** ****** ******
   4  ****** ****** ****** ****** ****** ****** ****** ****** ****** ******
      ****** ****** ****** ****** ****** ****** ****** ****** ****** ******
      ****** ****** ****** ****** ****** ****** ****** ****** ****** ******
   5  ****** ****** ****** ****** ****** ****** ****** ****** ****** ******
      ****** ****** ****** ****** ****** ****** ****** ****** ****** ******
      ****** ****** ****** ****** ****** ****** ****** ****** ****** ******
   6  ****** ****** ****** ****** ****** ****** ****** ****** ****** ******
      ****** ****** ****** ****** ****** ****** ****** ****** ****** ******
      ****** ****** ****** ****** ****** ****** ****** ****** ****** ******
   7  ****** ****** ****** ****** ****** ****** ****** ****** ****** ******
      ****** ****** ****** ****** ****** ****** ****** ****** ****** ******
      ****** ****** ****** ****** ****** ****** ****** ****** ****** ******
   8  ****** ****** ****** ****** ****** ****** ****** ****** ****** ******
      ****** ****** ****** ****** ****** ****** ****** ****** ****** ******
      ****** ****** ****** ****** ****** ****** ****** ****** ****** ******
   9  ****** ****** ****** ****** ****** ****** ****** ****** ****** ******
      ****** ****** ****** ****** ****** ****** ****** ****** ****** ******
      ****** ****** ****** ****** ****** ****** ****** ****** ****** ******
  10  ****** ****** ****** ****** ****** ****** ****** ****** ****** ******
      ****** ****** ****** ****** ****** ****** ****** ****** ****** ******
      ****** ****** ****** ****** ****** ****** ****** ****** ****** ******
  11  ****** ****** ****** ****** ****** ****** ****** ****** ****** ******
      ****** ****** ****** ****** ****** ****** ****** ****** ****** ******
      ****** ****** ****** ****** ****** ****** ****** ****** ****** ******
  12  ****** ****** ****** ****** ****** ****** ****** ****** ****** ******
      ****** ****** ****** ****** ****** ****** ****** ****** ****** ******
      ****** ****** ****** ****** ****** ****** ****** ****** ****** ******
  13  ****** ****** ****** ****** ****** ****** ****** ****** ****** ******
      ****** ****** ****** ****** ****** ****** ****** ****** ****** ******
      ****** ****** ****** ****** ****** ****** ****** ****** ****** ******
  14  ****** ****** ****** ****** ****** ****** ****** ****** ****** ******
      ****** ****** ****** ****** ****** ****** ****** ****** ****** ******
      ****** ****** ****** ****** ****** ****** ****** ****** ****** ******
  15  ****** ****** ****** ****** ****** ****** ****** ****** ****** ******
      ****** ****** ****** ****** ****** ****** ****** ****** ****** ******
      ****** ****** ****** ****** ****** ****** ****** ****** ****** ******
  16  ****** ****** ****** ****** ****** ****** ****** ****** ****** ******
      ****** ****** ****** ****** ****** ****** ****** ****** ****** ******
      ****** ****** ****** ****** ****** ****** ****** ****** ****** ******
  17  ****** ****** ****** ****** ****** ****** ****** ****** ****** ******
      ****** ****** ****** ****** ****** ****** ****** ****** ****** ******
      ****** ****** ****** ****** ****** ****** ****** ****** ****** ******
  18  ****** ****** ****** ****** ****** ****** ****** ****** ****** ******
      ****** ****** ****** ****** ****** ****** ****** ****** ****** ******
      ****** ****** ****** ****** ****** ****** ****** ****** ****** ******
  19  ****** ****** ****** ****** ****** ****** ****** ****** ****** ******
      ****** ****** ****** ****** ****** ****** ****** ****** ****** ******
      ****** ****** ****** ****** ****** ****** ****** ****** ****** ******
  20  ****** ****** ****** ****** ****** ****** ****** ****** ****** ******
      ****** ****** ****** ****** ****** ****** ****** ****** ****** ******
      ****** ****** ****** ****** ****** ****** ****** ****** ****** ******
  21  ****** ****** ****** ****** ****** ****** ****** ****** ****** ******
      ****** ****** ****** ****** ****** ****** ****** ****** ****** ******
      ****** ****** ****** ****** ****** ****** ****** ****** ****** ******
  22  ****** ****** ****** ****** ****** ****** ****** ****** ****** ******
      ****** ****** ****** ****** ****** ****** ****** ****** ****** ******
      ****** ****** ****** ****** ****** ****** ****** ****** ****** ******
  23  ****** ****** ****** ****** ****** ****** ****** ****** ****** ******
      ****** ****** ****** ****** ****** ****** ****** ****** ****** ******
      ****** ****** ****** ****** ****** ****** ****** ****** ****** ******
  24  ****** ****** ****** ****** ****** ****** ****** ****** ****** ******
      ****** ****** ****** ****** ****** ****** ****** ****** ****** ******
      ****** ****** ****** ****** ****** ****** ****** ****** ****** ******
  25  ****** ****** ****** ****** ****** ****** ****** ****** ****** ******
      ****** ****** ****** ****** ****** ****** ****** ****** ****** ******
      ****** ****** ****** ****** ****** ****** ****** ****** ****** ******

 HEAD WILL BE SAVED ON UNIT   51 AT END OF TIME STEP    1, STRESS PERIOD    3
1
  VOLUMETRIC BUDGET FOR ENTIRE MODEL AT END OF TIME STEP    1, STRESS PERIOD   3
  ------------------------------------------------------------------------------

     CUMULATIVE VOLUMES      L**3       RATES FOR THIS TIME STEP      L**3/T
     ------------------                 ------------------------

           IN:                                      IN:
           ---                                      ---
             STORAGE =    26843205.0718               STORAGE =       53198.8742
       CONSTANT HEAD =     4852954.7309         CONSTANT HEAD =       24657.3984
               WELLS =           0.0000                 WELLS =           0.0000
            RECHARGE =     6292800.0000              RECHARGE =           0.0000
      STREAM LEAKAGE =     5719267.6940        STREAM LEAKAGE =       32506.5481

            TOTAL IN =    43708227.4967              TOTAL IN =      110362.8206

          OUT:                                     OUT:
          ----                                     ----
             STORAGE =           0.0000               STORAGE =           0.0000
       CONSTANT HEAD =           0.0000         CONSTANT HEAD =           0.0000
               WELLS =    14430106.2750                 WELLS =       52664.6214
            RECHARGE =           0.0000              RECHARGE =           0.0000
      STREAM LEAKAGE =    29278123.1245        STREAM LEAKAGE =       57698.2066

           TOTAL OUT =    43708229.3994             TOTAL OUT =      110362.8280

            IN - OUT =          -1.9027              IN - OUT =      -7.3813E-03

 PERCENT DISCREPANCY =          -0.00     PERCENT DISCREPANCY =          -0.00






         TIME SUMMARY AT END OF TIME STEP    1 IN STRESS PERIOD    3
                    SECONDS     MINUTES      HOURS       DAYS        YEARS
                    -----------------------------------------------------------
   TIME STEP LENGTH 7.86240E+06 1.31040E+05  2184.0      91.000     0.24914    
 STRESS PERIOD TIME 7.86240E+06 1.31040E+05  2184.0      91.000     0.24914    
         TOTAL TIME 2.36736E+07 3.94560E+05  6576.0      274.00     0.75017    
1
1
                            STRESS PERIOD NO.    4, LENGTH =   91.00000    
                            -----------------------------------------------

                              NUMBER OF TIME STEPS =     1

                               MULTIPLIER FOR DELT =     1.500

                            INITIAL TIME STEP SIZE =   91.00000    

 WELL NO.  LAYER   ROW   COL   STRESS RATE         
 --------------------------------------------------
      1      1     14      6       0.000    
      2      1      3      9       0.000    
      3      1     20     10       0.000    
      4      1     14     20       0.000    
      5      1     10     29     -0.1299E+05
      6      1     15     21     -0.1317E+05
      7      1     19     29     -0.1184E+05
      8      1     17     29     -0.1466E+05

      8 WELLS

                 RECHARGE =  1.000000E-03

 REUSING STREAM SEGMENT DATA FROM LAST STRESS PERIOD
 
 SOLVING FOR HEAD 


     7 CALLS TO PCG ROUTINE FOR TIME STEP   1 IN STRESS PERIOD    4
    24 TOTAL ITERATIONS

 OUTPUT CONTROL FOR STRESS PERIOD    4   TIME STEP    1
    SAVE BUDGET
    SAVE HEAD FOR ALL LAYERS
    PRINT HEAD FOR ALL LAYERS
 UBDSV2 SAVING "STREAMFLOW OUT  " ON UNIT  50 AT TIME STEP  1, STRESS PERIOD   4



 STREAM LISTING     PERIOD      4   STEP        1

 LAYER ROW COL. STREAM  RCH.  FLOW INTO     FLOW TO   FLOW OUT OF   OVRLND.     DIRECT     STREAM       STREAM     STREAM     STREAM   STREAMBED  STREAMBED
                SEG.NO.  NO.  STRM. RCH.    AQUIFER    STRM. RCH.    RUNOFF     PRECIP       ET          HEAD       DEPTH      WIDTH   CONDCTNC.   GRADIENT

   1   13    1     1     1    1.0000E+05 -2.5565E+03   1.0256E+05  0.000E+00  0.000E+00  0.000E+00  4.84071E+01  1.458E-01  2.000E+01  2.000E+04 -1.278E-01
   1   13    2     1     2    1.0256E+05 -3.6302E+03   1.0619E+05  0.000E+00  0.000E+00  0.000E+00  4.79325E+01  1.484E-01  2.000E+01  2.000E+04 -1.815E-01
   1   14    3     1     3    1.0619E+05 -6.3032E+02   1.0682E+05  0.000E+00  0.000E+00  0.000E+00  4.74570E+01  1.502E-01  2.000E+01  2.000E+04 -3.152E-02
   1   15    4     1     4    1.0682E+05 -6.0285E+02   1.0742E+05  0.000E+00  0.000E+00  0.000E+00  4.69803E+01  1.507E-01  2.000E+01  2.000E+04 -3.014E-02
   1   16    5     1     5    1.0742E+05 -2.1531E+03   1.0957E+05  0.000E+00  0.000E+00  0.000E+00  4.65042E+01  1.519E-01  2.000E+01  2.000E+04 -1.077E-01
   1   16    6     1     6    1.0957E+05 -1.3526E+03   1.1093E+05  0.000E+00  0.000E+00  0.000E+00  4.60284E+01  1.534E-01  2.000E+01  2.000E+04 -6.763E-02
   1   16    7     1     7    1.1093E+05 -1.3253E+03   1.1225E+05  0.000E+00  0.000E+00  0.000E+00  4.55522E+01  1.545E-01  2.000E+01  2.000E+04 -6.627E-02
   1   16    8     1     8    1.1225E+05 -1.3144E+03   1.1357E+05  0.000E+00  0.000E+00  0.000E+00  4.50760E+01  1.556E-01  2.000E+01  2.000E+04 -6.572E-02
   1   16    9     1     9    1.1357E+05 -1.2945E+03   1.1486E+05  0.000E+00  0.000E+00  0.000E+00  4.45998E+01  1.567E-01  2.000E+01  2.000E+04 -6.472E-02
   1   16   10     1    10    1.1486E+05 -1.2633E+03   1.1612E+05  0.000E+00  0.000E+00  0.000E+00  4.41236E+01  1.577E-01  2.000E+01  2.000E+04 -6.317E-02
   1   16   11     1    11    1.1612E+05 -1.2437E+03   1.1737E+05  0.000E+00  0.000E+00  0.000E+00  4.36474E+01  1.587E-01  2.000E+01  2.000E+04 -6.219E-02
   1   16   12     1    12    1.1737E+05 -2.1044E+03   1.1947E+05  0.000E+00  0.000E+00  0.000E+00  4.31715E+01  1.601E-01  2.000E+01  2.000E+04 -1.052E-01
   1   15   13     1    13    1.1947E+05 -2.0787E+03   1.2155E+05  0.000E+00  0.000E+00  0.000E+00  4.26959E+01  1.618E-01  2.000E+01  2.000E+04 -1.039E-01
   1   14   14     1    14    1.2155E+05 -2.3984E+03   1.2395E+05  0.000E+00  0.000E+00  0.000E+00  4.22204E+01  1.636E-01  2.000E+01  2.000E+04 -1.199E-01
   1   13   15     1    15    1.2395E+05 -2.7647E+03   1.2671E+05  0.000E+00  0.000E+00  0.000E+00  4.17452E+01  1.656E-01  2.000E+01  2.000E+04 -1.382E-01
   1   12   16     1    16    1.2671E+05 -3.6644E+03   1.3038E+05  0.000E+00  0.000E+00  0.000E+00  4.12704E+01  1.682E-01  2.000E+01  2.000E+04 -1.832E-01
   1   12   17     1    17    1.3038E+05 -2.2502E+03   1.3263E+05  0.000E+00  0.000E+00  0.000E+00  4.07955E+01  1.705E-01  2.000E+01  2.000E+04 -1.125E-01
   1   12   18     1    18    1.3263E+05 -2.0612E+03   1.3469E+05  0.000E+00  0.000E+00  0.000E+00  4.03199E+01  1.722E-01  2.000E+01  2.000E+04 -1.031E-01
   1   12   19     1    19    1.3469E+05 -2.6985E+03   1.3739E+05  0.000E+00  0.000E+00  0.000E+00  3.98444E+01  1.740E-01  2.000E+01  2.000E+04 -1.349E-01
   1   13   20     1    20    1.3739E+05 -1.1514E+03   1.3854E+05  0.000E+00  0.000E+00  0.000E+00  3.93686E+01  1.755E-01  2.000E+01  2.000E+04 -5.757E-02
   1   14   21     1    21    1.3854E+05  3.6118E+03   1.3493E+05  0.000E+00  0.000E+00  0.000E+00  3.88904E+01  1.745E-01  2.000E+01  2.000E+04  1.806E-01
   1   14   22     1    22    1.3493E+05  5.7333E+03   1.2919E+05  0.000E+00  0.000E+00  0.000E+00  3.84096E+01  1.709E-01  2.000E+01  2.000E+04  2.867E-01
   1    9   30     2     1    5.0000E+04  1.8506E+03   4.8149E+04  0.000E+00  0.000E+00  0.000E+00  4.02396E+01  1.146E-01  2.000E+01  2.000E+04  9.253E-02
   1    9   29     2     2    4.8149E+04  3.7912E+03   4.4358E+04  0.000E+00  0.000E+00  0.000E+00  3.99856E+01  1.106E-01  2.000E+01  2.000E+04  1.896E-01
   1    9   28     2     3    4.4358E+04  5.8830E+02   4.3770E+04  0.000E+00  0.000E+00  0.000E+00  3.97324E+01  1.074E-01  2.000E+01  2.000E+04  2.941E-02
   1    9   27     2     4    4.3770E+04 -2.0976E+03   4.5868E+04  0.000E+00  0.000E+00  0.000E+00  3.94835E+01  1.085E-01  2.000E+01  2.000E+04 -1.049E-01
   1   10   26     2     5    4.5868E+04 -8.3167E+02   4.6699E+04  0.000E+00  0.000E+00  0.000E+00  3.92356E+01  1.106E-01  2.000E+01  2.000E+04 -4.158E-02
   1   11   25     2     6    4.6699E+04 -1.1425E+03   4.7842E+04  0.000E+00  0.000E+00  0.000E+00  3.89870E+01  1.120E-01  2.000E+01  2.000E+04 -5.712E-02
   1   12   24     2     7    4.7842E+04 -1.6210E+03   4.9463E+04  0.000E+00  0.000E+00  0.000E+00  3.87390E+01  1.140E-01  2.000E+01  2.000E+04 -8.105E-02
   1   13   23     2     8    4.9463E+04 -3.0207E+02   4.9765E+04  0.000E+00  0.000E+00  0.000E+00  3.84903E+01  1.153E-01  2.000E+01  2.000E+04 -1.510E-02
   1   14   22     2     9    4.9765E+04  2.3205E+03   4.7444E+04  0.000E+00  0.000E+00  0.000E+00  3.82389E+01  1.139E-01  2.000E+01  2.000E+04  1.160E-01
   1   14   22     3     1    1.7664E+05 -7.9241E+03   1.8456E+05  0.000E+00  0.000E+00  0.000E+00  3.77267E+01  1.711E-01  2.000E+01  2.000E+04 -3.962E-01
   1   15   23     3     2    1.8456E+05 -4.7510E+01   1.8461E+05  0.000E+00  0.000E+00  0.000E+00  3.68401E+01  1.734E-01  2.000E+01  2.000E+04 -2.376E-03
   1   15   24     3     3    1.8461E+05 -2.5422E+02   1.8486E+05  0.000E+00  0.000E+00  0.000E+00  3.59513E+01  1.735E-01  2.000E+01  2.000E+04 -1.271E-02
   1   15   25     3     4    1.8486E+05 -2.5565E+02   1.8512E+05  0.000E+00  0.000E+00  0.000E+00  3.50625E+01  1.736E-01  2.000E+01  2.000E+04 -1.278E-02
   1   15   26     3     5    1.8512E+05 -1.7495E+02   1.8529E+05  0.000E+00  0.000E+00  0.000E+00  3.41737E+01  1.737E-01  2.000E+01  2.000E+04 -8.748E-03
   1   16   27     3     6    1.8529E+05  5.9945E+01   1.8523E+05  0.000E+00  0.000E+00  0.000E+00  3.32849E+01  1.738E-01  2.000E+01  2.000E+04  2.997E-03
   1   17   28     3     7    1.8523E+05  5.8724E+03   1.7936E+05  0.000E+00  0.000E+00  0.000E+00  3.23943E+01  1.721E-01  2.000E+01  2.000E+04  2.936E-01
   1   18   29     3     8    1.7936E+05  7.7480E+03   1.7161E+05  0.000E+00  0.000E+00  0.000E+00  3.15015E+01  1.682E-01  2.000E+01  2.000E+04  3.874E-01
   1   18   30     3     9    1.7161E+05  2.1421E+03   1.6947E+05  0.000E+00  0.000E+00  0.000E+00  3.06098E+01  1.653E-01  2.000E+01  2.000E+04  1.071E-01



1
              HEAD IN LAYER   1 AT END OF TIME STEP   1 IN STRESS PERIOD    4
  ---------------------------------------------------------------------------

          1      2      3      4      5      6      7      8      9     10
         11     12     13     14     15     16     17     18     19     20
         21     22     23     24     25     26     27     28     29     30
 .........................................................................
   1  ****** ****** ****** ****** ****** ****** ****** ****** ****** ******
      ****** ****** ****** ****** ****** ****** ****** ****** ****** ******
      ****** ****** ****** ****** ****** ****** ****** ****** ****** ******
   2  ****** ****** ****** ****** ****** ****** ****** ****** ****** ******
      ****** ****** ****** ****** ****** ****** ****** ****** ****** ******
      ****** ****** ****** ****** ****** ****** ****** ****** ****** ******
   3  ****** ****** ****** ****** ****** ****** ****** ****** ****** ******
      ****** ****** ****** ****** ****** ****** ****** ****** ****** ******
      ****** ****** ****** ****** ****** ****** ****** ****** ****** ******
   4  ****** ****** ****** ****** ****** ****** ****** ****** ****** ******
      ****** ****** ****** ****** ****** ****** ****** ****** ****** ******
      ****** ****** ****** ****** ****** ****** ****** ****** ****** ******
   5  ****** ****** ****** ****** ****** ****** ****** ****** ****** ******
      ****** ****** ****** ****** ****** ****** ****** ****** ****** ******
      ****** ****** ****** ****** ****** ****** ****** ****** ****** ******
   6  ****** ****** ****** ****** ****** ****** ****** ****** ****** ******
      ****** ****** ****** ****** ****** ****** ****** ****** ****** ******
      ****** ****** ****** ****** ****** ****** ****** ****** ****** ******
   7  ****** ****** ****** ****** ****** ****** ****** ****** ****** ******
      ****** ****** ****** ****** ****** ****** ****** ****** ****** ******
      ****** ****** ****** ****** ****** ****** ****** ****** ****** ******
   8  ****** ****** ****** ****** ****** ****** ****** ****** ****** ******
      ****** ****** ****** ****** ****** ****** ****** ****** ****** ******
      ****** ****** ****** ****** ****** ****** ****** ****** ****** ******
   9  ****** ****** ****** ****** ****** ****** ****** ****** ****** ******
      ****** ****** ****** ****** ****** ****** ****** ****** ****** ******
      ****** ****** ****** ****** ****** ****** ****** ****** ****** ******
  10  ****** ****** ****** ****** ****** ****** ****** ****** ****** ******
      ****** ****** ****** ****** ****** ****** ****** ****** ****** ******
      ****** ****** ****** ****** ****** ****** ****** ****** ****** ******
  11  ****** ****** ****** ****** ****** ****** ****** ****** ****** ******
      ****** ****** ****** ****** ****** ****** ****** ****** ****** ******
      ****** ****** ****** ****** ****** ****** ****** ****** ****** ******
  12  ****** ****** ****** ****** ****** ****** ****** ****** ****** ******
      ****** ****** ****** ****** ****** ****** ****** ****** ****** ******
      ****** ****** ****** ****** ****** ****** ****** ****** ****** ******
  13  ****** ****** ****** ****** ****** ****** ****** ****** ****** ******
      ****** ****** ****** ****** ****** ****** ****** ****** ****** ******
      ****** ****** ****** ****** ****** ****** ****** ****** ****** ******
  14  ****** ****** ****** ****** ****** ****** ****** ****** ****** ******
      ****** ****** ****** ****** ****** ****** ****** ****** ****** ******
      ****** ****** ****** ****** ****** ****** ****** ****** ****** ******
  15  ****** ****** ****** ****** ****** ****** ****** ****** ****** ******
      ****** ****** ****** ****** ****** ****** ****** ****** ****** ******
      ****** ****** ****** ****** ****** ****** ****** ****** ****** ******
  16  ****** ****** ****** ****** ****** ****** ****** ****** ****** ******
      ****** ****** ****** ****** ****** ****** ****** ****** ****** ******
      ****** ****** ****** ****** ****** ****** ****** ****** ****** ******
  17  ****** ****** ****** ****** ****** ****** ****** ****** ****** ******
      ****** ****** ****** ****** ****** ****** ****** ****** ****** ******
      ****** ****** ****** ****** ****** ****** ****** ****** ****** ******
  18  ****** ****** ****** ****** ****** ****** ****** ****** ****** ******
      ****** ****** ****** ****** ****** ****** ****** ****** ****** ******
      ****** ****** ****** ****** ****** ****** ****** ****** ****** ******
  19  ****** ****** ****** ****** ****** ****** ****** ****** ****** ******
      ****** ****** ****** ****** ****** ****** ****** ****** ****** ******
      ****** ****** ****** ****** ****** ****** ****** ****** ****** ******
  20  ****** ****** ****** ****** ****** ****** ****** ****** ****** ******
      ****** ****** ****** ****** ****** ****** ****** ****** ****** ******
      ****** ****** ****** ****** ****** ****** ****** ****** ****** ******
  21  ****** ****** ****** ****** ****** ****** ****** ****** ****** ******
      ****** ****** ****** ****** ****** ****** ****** ****** ****** ******
      ****** ****** ****** ****** ****** ****** ****** ****** ****** ******
  22  ****** ****** ****** ****** ****** ****** ****** ****** ****** ******
      ****** ****** ****** ****** ****** ****** ****** ****** ****** ******
      ****** ****** ****** ****** ****** ****** ****** ****** ****** ******
  23  ****** ****** ****** ****** ****** ****** ****** ****** ****** ******
      ****** ****** ****** ****** ****** ****** ****** ****** ****** ******
      ****** ****** ****** ****** ****** ****** ****** ****** ****** ******
  24  ****** ****** ****** ****** ****** ****** ****** ****** ****** ******
      ****** ****** ****** ****** ****** ****** ****** ****** ****** ******
      ****** ****** ****** ****** ****** ****** ****** ****** ****** ******
  25  ****** ****** ****** ****** ****** ****** ****** ****** ****** ******
      ****** ****** ****** ****** ****** ****** ****** ****** ****** ******
      ****** ****** ****** ****** ****** ****** ****** ****** ****** ******

 HEAD WILL BE SAVED ON UNIT   51 AT END OF TIME STEP    1, STRESS PERIOD    4
1
  VOLUMETRIC BUDGET FOR ENTIRE MODEL AT END OF TIME STEP    1, STRESS PERIOD   4
  ------------------------------------------------------------------------------

     CUMULATIVE VOLUMES      L**3       RATES FOR THIS TIME STEP      L**3/T
     ------------------                 ------------------------

           IN:                                      IN:
           ---                                      ---
             STORAGE =    28429704.3272               STORAGE =       17434.0578
       CONSTANT HEAD =     7319831.8394         CONSTANT HEAD =       27108.5397
               WELLS =           0.0000                 WELLS =           0.0000
            RECHARGE =     8804400.0000              RECHARGE =       27600.0000
      STREAM LEAKAGE =     8787605.3494        STREAM LEAKAGE =       33717.9962

            TOTAL IN =    53341541.5160              TOTAL IN =      105860.5936

          OUT:                                     OUT:
          ----                                     ----
             STORAGE =         563.8216               STORAGE =           6.1958
       CONSTANT HEAD =           0.0000         CONSTANT HEAD =           0.0000
               WELLS =    19222586.8261                 WELLS =       52664.6214
            RECHARGE =           0.0000              RECHARGE =           0.0000
      STREAM LEAKAGE =    34118392.8724        STREAM LEAKAGE =       53189.7774

           TOTAL OUT =    53341543.5201             TOTAL OUT =      105860.5947

            IN - OUT =          -2.0041              IN - OUT =      -1.1143E-03

 PERCENT DISCREPANCY =          -0.00     PERCENT DISCREPANCY =          -0.00






         TIME SUMMARY AT END OF TIME STEP    1 IN STRESS PERIOD    4
                    SECONDS     MINUTES      HOURS       DAYS        YEARS
                    -----------------------------------------------------------
   TIME STEP LENGTH 7.86240E+06 1.31040E+05  2184.0      91.000     0.24914    
 STRESS PERIOD TIME 7.86240E+06 1.31040E+05  2184.0      91.000     0.24914    
         TOTAL TIME 3.15360E+07 5.25600E+05  8760.0      365.00     0.99932    
1
1
                            STRESS PERIOD NO.    5, LENGTH =   92.00000    
                            -----------------------------------------------

                              NUMBER OF TIME STEPS =     1

                               MULTIPLIER FOR DELT =     1.500

                            INITIAL TIME STEP SIZE =   92.00000    

 WELL NO.  LAYER   ROW   COL   STRESS RATE         
 --------------------------------------------------
      1      1     14      6       0.000    
      2      1      3      9       0.000    
      3      1     20     10       0.000    
      4      1     14     20       0.000    
      5      1     10     29     -0.1299E+05
      6      1     15     21     -0.1317E+05
      7      1     19     29     -0.1184E+05
      8      1     17     29     -0.1466E+05

      8 WELLS

                 RECHARGE =  5.000000E-04

 REUSING STREAM SEGMENT DATA FROM LAST STRESS PERIOD
 
 SOLVING FOR HEAD 


     7 CALLS TO PCG ROUTINE FOR TIME STEP   1 IN STRESS PERIOD    5
    26 TOTAL ITERATIONS

 OUTPUT CONTROL FOR STRESS PERIOD    5   TIME STEP    1
    SAVE BUDGET
    SAVE HEAD FOR ALL LAYERS
    PRINT HEAD FOR ALL LAYERS
 UBDSV2 SAVING "STREAMFLOW OUT  " ON UNIT  50 AT TIME STEP  1, STRESS PERIOD   5



 STREAM LISTING     PERIOD      5   STEP        1

 LAYER ROW COL. STREAM  RCH.  FLOW INTO     FLOW TO   FLOW OUT OF   OVRLND.     DIRECT     STREAM       STREAM     STREAM     STREAM   STREAMBED  STREAMBED
                SEG.NO.  NO.  STRM. RCH.    AQUIFER    STRM. RCH.    RUNOFF     PRECIP       ET          HEAD       DEPTH      WIDTH   CONDCTNC.   GRADIENT

   1   13    1     1     1    1.0000E+05 -2.1540E+03   1.0215E+05  0.000E+00  0.000E+00  0.000E+00  4.84069E+01  1.456E-01  2.000E+01  2.000E+04 -1.077E-01
   1   13    2     1     2    1.0215E+05 -3.1752E+03   1.0533E+05  0.000E+00  0.000E+00  0.000E+00  4.79320E+01  1.479E-01  2.000E+01  2.000E+04 -1.588E-01
   1   14    3     1     3    1.0533E+05 -5.0979E+02   1.0584E+05  0.000E+00  0.000E+00  0.000E+00  4.74563E+01  1.494E-01  2.000E+01  2.000E+04 -2.549E-02
   1   15    4     1     4    1.0584E+05 -4.7542E+02   1.0631E+05  0.000E+00  0.000E+00  0.000E+00  4.69794E+01  1.499E-01  2.000E+01  2.000E+04 -2.377E-02
   1   16    5     1     5    1.0631E+05 -1.7239E+03   1.0804E+05  0.000E+00  0.000E+00  0.000E+00  4.65031E+01  1.508E-01  2.000E+01  2.000E+04 -8.619E-02
   1   16    6     1     6    1.0804E+05 -1.1017E+03   1.0914E+05  0.000E+00  0.000E+00  0.000E+00  4.60270E+01  1.520E-01  2.000E+01  2.000E+04 -5.509E-02
   1   16    7     1     7    1.0914E+05 -1.0849E+03   1.1022E+05  0.000E+00  0.000E+00  0.000E+00  4.55506E+01  1.529E-01  2.000E+01  2.000E+04 -5.425E-02
   1   16    8     1     8    1.1022E+05 -1.0775E+03   1.1130E+05  0.000E+00  0.000E+00  0.000E+00  4.50743E+01  1.538E-01  2.000E+01  2.000E+04 -5.388E-02
   1   16    9     1     9    1.1130E+05 -1.0603E+03   1.1236E+05  0.000E+00  0.000E+00  0.000E+00  4.45979E+01  1.547E-01  2.000E+01  2.000E+04 -5.301E-02
   1   16   10     1    10    1.1236E+05 -1.0320E+03   1.1339E+05  0.000E+00  0.000E+00  0.000E+00  4.41215E+01  1.556E-01  2.000E+01  2.000E+04 -5.160E-02
   1   16   11     1    11    1.1339E+05 -1.0110E+03   1.1441E+05  0.000E+00  0.000E+00  0.000E+00  4.36450E+01  1.564E-01  2.000E+01  2.000E+04 -5.055E-02
   1   16   12     1    12    1.1441E+05 -1.6877E+03   1.1609E+05  0.000E+00  0.000E+00  0.000E+00  4.31689E+01  1.575E-01  2.000E+01  2.000E+04 -8.438E-02
   1   15   13     1    13    1.1609E+05 -1.6458E+03   1.1774E+05  0.000E+00  0.000E+00  0.000E+00  4.26930E+01  1.589E-01  2.000E+01  2.000E+04 -8.229E-02
   1   14   14     1    14    1.1774E+05 -1.9426E+03   1.1968E+05  0.000E+00  0.000E+00  0.000E+00  4.22171E+01  1.603E-01  2.000E+01  2.000E+04 -9.713E-02
   1   13   15     1    15    1.1968E+05 -2.2965E+03   1.2198E+05  0.000E+00  0.000E+00  0.000E+00  4.17416E+01  1.620E-01  2.000E+01  2.000E+04 -1.148E-01
   1   12   16     1    16    1.2198E+05 -3.1602E+03   1.2514E+05  0.000E+00  0.000E+00  0.000E+00  4.12665E+01  1.642E-01  2.000E+01  2.000E+04 -1.580E-01
   1   12   17     1    17    1.2514E+05 -1.9082E+03   1.2705E+05  0.000E+00  0.000E+00  0.000E+00  4.07912E+01  1.662E-01  2.000E+01  2.000E+04 -9.541E-02
   1   12   18     1    18    1.2705E+05 -1.7348E+03   1.2878E+05  0.000E+00  0.000E+00  0.000E+00  4.03154E+01  1.677E-01  2.000E+01  2.000E+04 -8.674E-02
   1   12   19     1    19    1.2878E+05 -2.3051E+03   1.3109E+05  0.000E+00  0.000E+00  0.000E+00  3.98397E+01  1.693E-01  2.000E+01  2.000E+04 -1.153E-01
   1   13   20     1    20    1.3109E+05 -7.9853E+02   1.3189E+05  0.000E+00  0.000E+00  0.000E+00  3.93637E+01  1.705E-01  2.000E+01  2.000E+04 -3.993E-02
   1   14   21     1    21    1.3189E+05  3.9996E+03   1.2789E+05  0.000E+00  0.000E+00  0.000E+00  3.88851E+01  1.692E-01  2.000E+01  2.000E+04  2.000E-01
   1   14   22     1    22    1.2789E+05  5.8162E+03   1.2207E+05  0.000E+00  0.000E+00  0.000E+00  3.84040E+01  1.654E-01  2.000E+01  2.000E+04  2.908E-01
   1    9   30     2     1    5.0000E+04  2.0776E+03   4.7922E+04  0.000E+00  0.000E+00  0.000E+00  4.02394E+01  1.144E-01  2.000E+01  2.000E+04  1.039E-01
   1    9   29     2     2    4.7922E+04  4.0213E+03   4.3901E+04  0.000E+00  0.000E+00  0.000E+00  3.99851E+01  1.101E-01  2.000E+01  2.000E+04  2.011E-01
   1    9   28     2     3    4.3901E+04  8.2898E+02   4.3072E+04  0.000E+00  0.000E+00  0.000E+00  3.97316E+01  1.066E-01  2.000E+01  2.000E+04  4.145E-02
   1    9   27     2     4    4.3072E+04 -1.7223E+03   4.4794E+04  0.000E+00  0.000E+00  0.000E+00  3.94822E+01  1.072E-01  2.000E+01  2.000E+04 -8.612E-02
   1   10   26     2     5    4.4794E+04 -5.0206E+02   4.5296E+04  0.000E+00  0.000E+00  0.000E+00  3.92338E+01  1.088E-01  2.000E+01  2.000E+04 -2.510E-02
   1   11   25     2     6    4.5296E+04 -8.3965E+02   4.6136E+04  0.000E+00  0.000E+00  0.000E+00  3.89848E+01  1.098E-01  2.000E+01  2.000E+04 -4.198E-02
   1   12   24     2     7    4.6136E+04 -1.3452E+03   4.7481E+04  0.000E+00  0.000E+00  0.000E+00  3.87364E+01  1.114E-01  2.000E+01  2.000E+04 -6.726E-02
   1   13   23     2     8    4.7481E+04 -2.3489E+02   4.7716E+04  0.000E+00  0.000E+00  0.000E+00  3.84875E+01  1.125E-01  2.000E+01  2.000E+04 -1.174E-02
   1   14   22     2     9    4.7716E+04  2.4546E+03   4.5262E+04  0.000E+00  0.000E+00  0.000E+00  3.82359E+01  1.109E-01  2.000E+01  2.000E+04  1.227E-01
   1   14   22     3     1    1.6733E+05 -7.8373E+03   1.7517E+05  0.000E+00  0.000E+00  0.000E+00  3.77213E+01  1.658E-01  2.000E+01  2.000E+04 -3.919E-01
   1   15   23     3     2    1.7517E+05  5.5219E+01   1.7511E+05  0.000E+00  0.000E+00  0.000E+00  3.68347E+01  1.680E-01  2.000E+01  2.000E+04  2.761E-03
   1   15   24     3     3    1.7511E+05 -1.7896E+02   1.7529E+05  0.000E+00  0.000E+00  0.000E+00  3.59458E+01  1.680E-01  2.000E+01  2.000E+04 -8.948E-03
   1   15   25     3     4    1.7529E+05 -1.8099E+02   1.7547E+05  0.000E+00  0.000E+00  0.000E+00  3.50570E+01  1.681E-01  2.000E+01  2.000E+04 -9.050E-03
   1   15   26     3     5    1.7547E+05 -9.9777E+01   1.7557E+05  0.000E+00  0.000E+00  0.000E+00  3.41682E+01  1.682E-01  2.000E+01  2.000E+04 -4.989E-03
   1   16   27     3     6    1.7557E+05  1.5527E+02   1.7542E+05  0.000E+00  0.000E+00  0.000E+00  3.32793E+01  1.682E-01  2.000E+01  2.000E+04  7.764E-03
   1   17   28     3     7    1.7542E+05  6.1584E+03   1.6926E+05  0.000E+00  0.000E+00  0.000E+00  3.23886E+01  1.664E-01  2.000E+01  2.000E+04  3.079E-01
   1   18   29     3     8    1.6926E+05  8.1554E+03   1.6110E+05  0.000E+00  0.000E+00  0.000E+00  3.14955E+01  1.622E-01  2.000E+01  2.000E+04  4.078E-01
   1   18   30     3     9    1.6110E+05  2.4209E+03   1.5868E+05  0.000E+00  0.000E+00  0.000E+00  3.06035E+01  1.591E-01  2.000E+01  2.000E+04  1.210E-01



1
              HEAD IN LAYER   1 AT END OF TIME STEP   1 IN STRESS PERIOD    5
  ---------------------------------------------------------------------------

          1      2      3      4      5      6      7      8      9     10
         11     12     13     14     15     16     17     18     19     20
         21     22     23     24     25     26     27     28     29     30
 .........................................................................
   1  ****** ****** ****** ****** ****** ****** ****** ****** ****** ******
      ****** ****** ****** ****** ****** ****** ****** ****** ****** ******
      ****** ****** ****** ****** ****** ****** ****** ****** ****** ******
   2  ****** ****** ****** ****** ****** ****** ****** ****** ****** ******
      ****** ****** ****** ****** ****** ****** ****** ****** ****** ******
      ****** ****** ****** ****** ****** ****** ****** ****** ****** ******
   3  ****** ****** ****** ****** ****** ****** ****** ****** ****** ******
      ****** ****** ****** ****** ****** ****** ****** ****** ****** ******
      ****** ****** ****** ****** ****** ****** ****** ****** ****** ******
   4  ****** ****** ****** ****** ****** ****** ****** ****** ****** ******
      ****** ****** ****** ****** ****** ****** ****** ****** ****** ******
      ****** ****** ****** ****** ****** ****** ****** ****** ****** ******
   5  ****** ****** ****** ****** ****** ****** ****** ****** ****** ******
      ****** ****** ****** ****** ****** ****** ****** ****** ****** ******
      ****** ****** ****** ****** ****** ****** ****** ****** ****** ******
   6  ****** ****** ****** ****** ****** ****** ****** ****** ****** ******
      ****** ****** ****** ****** ****** ****** ****** ****** ****** ******
      ****** ****** ****** ****** ****** ****** ****** ****** ****** ******
   7  ****** ****** ****** ****** ****** ****** ****** ****** ****** ******
      ****** ****** ****** ****** ****** ****** ****** ****** ****** ******
      ****** ****** ****** ****** ****** ****** ****** ****** ****** ******
   8  ****** ****** ****** ****** ****** ****** ****** ****** ****** ******
      ****** ****** ****** ****** ****** ****** ****** ****** ****** ******
      ****** ****** ****** ****** ****** ****** ****** ****** ****** ******
   9  ****** ****** ****** ****** ****** ****** ****** ****** ****** ******
      ****** ****** ****** ****** ****** ****** ****** ****** ****** ******
      ****** ****** ****** ****** ****** ****** ****** ****** ****** ******
  10  ****** ****** ****** ****** ****** ****** ****** ****** ****** ******
      ****** ****** ****** ****** ****** ****** ****** ****** ****** ******
      ****** ****** ****** ****** ****** ****** ****** ****** ****** ******
  11  ****** ****** ****** ****** ****** ****** ****** ****** ****** ******
      ****** ****** ****** ****** ****** ****** ****** ****** ****** ******
      ****** ****** ****** ****** ****** ****** ****** ****** ****** ******
  12  ****** ****** ****** ****** ****** ****** ****** ****** ****** ******
      ****** ****** ****** ****** ****** ****** ****** ****** ****** ******
      ****** ****** ****** ****** ****** ****** ****** ****** ****** ******
  13  ****** ****** ****** ****** ****** ****** ****** ****** ****** ******
      ****** ****** ****** ****** ****** ****** ****** ****** ****** ******
      ****** ****** ****** ****** ****** ****** ****** ****** ****** ******
  14  ****** ****** ****** ****** ****** ****** ****** ****** ****** ******
      ****** ****** ****** ****** ****** ****** ****** ****** ****** ******
      ****** ****** ****** ****** ****** ****** ****** ****** ****** ******
  15  ****** ****** ****** ****** ****** ****** ****** ****** ****** ******
      ****** ****** ****** ****** ****** ****** ****** ****** ****** ******
      ****** ****** ****** ****** ****** ****** ****** ****** ****** ******
  16  ****** ****** ****** ****** ****** ****** ****** ****** ****** ******
      ****** ****** ****** ****** ****** ****** ****** ****** ****** ******
      ****** ****** ****** ****** ****** ****** ****** ****** ****** ******
  17  ****** ****** ****** ****** ****** ****** ****** ****** ****** ******
      ****** ****** ****** ****** ****** ****** ****** ****** ****** ******
      ****** ****** ****** ****** ****** ****** ****** ****** ****** ******
  18  ****** ****** ****** ****** ****** ****** ****** ****** ****** ******
      ****** ****** ****** ****** ****** ****** ****** ****** ****** ******
      ****** ****** ****** ****** ****** ****** ****** ****** ****** ******
  19  ****** ****** ****** ****** ****** ****** ****** ****** ****** ******
      ****** ****** ****** ****** ****** ****** ****** ****** ****** ******
      ****** ****** ****** ****** ****** ****** ****** ****** ****** ******
  20  ****** ****** ****** ****** ****** ****** ****** ****** ****** ******
      ****** ****** ****** ****** ****** ****** ****** ****** ****** ******
      ****** ****** ****** ****** ****** ****** ****** ****** ****** ******
  21  ****** ****** ****** ****** ****** ****** ****** ****** ****** ******
      ****** ****** ****** ****** ****** ****** ****** ****** ****** ******
      ****** ****** ****** ****** ****** ****** ****** ****** ****** ******
  22  ****** ****** ****** ****** ****** ****** ****** ****** ****** ******
      ****** ****** ****** ****** ****** ****** ****** ****** ****** ******
      ****** ****** ****** ****** ****** ****** ****** ****** ****** ******
  23  ****** ****** ****** ****** ****** ****** ****** ****** ****** ******
      ****** ****** ****** ****** ****** ****** ****** ****** ****** ******
      ****** ****** ****** ****** ****** ****** ****** ****** ****** ******
  24  ****** ****** ****** ****** ****** ****** ****** ****** ****** ******
      ****** ****** ****** ****** ****** ****** ****** ****** ****** ******
      ****** ****** ****** ****** ****** ****** ****** ****** ****** ******
  25  ****** ****** ****** ****** ****** ****** ****** ****** ****** ******
      ****** ****** ****** ****** ****** ****** ****** ****** ****** ******
      ****** ****** ****** ****** ****** ****** ****** ****** ****** ******

 HEAD WILL BE SAVED ON UNIT   51 AT END OF TIME STEP    1, STRESS PERIOD    5
1
  VOLUMETRIC BUDGET FOR ENTIRE MODEL AT END OF TIME STEP    1, STRESS PERIOD   5
  ------------------------------------------------------------------------------

     CUMULATIVE VOLUMES      L**3       RATES FOR THIS TIME STEP      L**3/T
     ------------------                 ------------------------

           IN:                                      IN:
           ---                                      ---
             STORAGE =    30049874.6199               STORAGE =       17610.5467
       CONSTANT HEAD =    10074027.4305         CONSTANT HEAD =       29936.9086
               WELLS =           0.0000                 WELLS =           0.0000
            RECHARGE =    10074000.0000              RECHARGE =       13800.0000
      STREAM LEAKAGE =    12112803.8315        STREAM LEAKAGE =       36143.4618

            TOTAL IN =    62310705.8819              TOTAL IN =       97490.9170

          OUT:                                     OUT:
          ----                                     ----
             STORAGE =         563.8216               STORAGE =           0.0000
       CONSTANT HEAD =           0.0000         CONSTANT HEAD =           0.0000
               WELLS =    24067731.9987                 WELLS =       52664.6214
            RECHARGE =           0.0000              RECHARGE =           0.0000
      STREAM LEAKAGE =    38242412.3346        STREAM LEAKAGE =       44826.2985

           TOTAL OUT =    62310708.1549             TOTAL OUT =       97490.9199

            IN - OUT =          -2.2730              IN - OUT =      -2.9226E-03

 PERCENT DISCREPANCY =          -0.00     PERCENT DISCREPANCY =          -0.00






         TIME SUMMARY AT END OF TIME STEP    1 IN STRESS PERIOD    5
                    SECONDS     MINUTES      HOURS       DAYS        YEARS
                    -----------------------------------------------------------
   TIME STEP LENGTH 7.94880E+06 1.32480E+05  2208.0      92.000     0.25188    
 STRESS PERIOD TIME 7.94880E+06 1.32480E+05  2208.0      92.000     0.25188    
         TOTAL TIME 3.94848E+07 6.58080E+05  10968.      457.00      1.2512    
1
1
                            STRESS PERIOD NO.    6, LENGTH =   91.00000    
                            -----------------------------------------------

                              NUMBER OF TIME STEPS =     1

                               MULTIPLIER FOR DELT =     1.500

                            INITIAL TIME STEP SIZE =   91.00000    

 WELL NO.  LAYER   ROW   COL   STRESS RATE         
 --------------------------------------------------
      1      1     14      6       0.000    
      2      1      3      9       0.000    
      3      1     20     10       0.000    
      4      1     14     20       0.000    
      5      1     10     29     -0.1299E+05
      6      1     15     21     -0.1317E+05
      7      1     19     29     -0.1184E+05
      8      1     17     29     -0.1466E+05

      8 WELLS

                 RECHARGE =  2.000000E-03

 REUSING STREAM SEGMENT DATA FROM LAST STRESS PERIOD
 
 SOLVING FOR HEAD 


     7 CALLS TO PCG ROUTINE FOR TIME STEP   1 IN STRESS PERIOD    6
    26 TOTAL ITERATIONS

 OUTPUT CONTROL FOR STRESS PERIOD    6   TIME STEP    1
    SAVE BUDGET
    SAVE HEAD FOR ALL LAYERS
    PRINT HEAD FOR ALL LAYERS
 UBDSV2 SAVING "STREAMFLOW OUT  " ON UNIT  50 AT TIME STEP  1, STRESS PERIOD   6



 STREAM LISTING     PERIOD      6   STEP        1

 LAYER ROW COL. STREAM  RCH.  FLOW INTO     FLOW TO   FLOW OUT OF   OVRLND.     DIRECT     STREAM       STREAM     STREAM     STREAM   STREAMBED  STREAMBED
                SEG.NO.  NO.  STRM. RCH.    AQUIFER    STRM. RCH.    RUNOFF     PRECIP       ET          HEAD       DEPTH      WIDTH   CONDCTNC.   GRADIENT

   1   13    1     1     1    1.0000E+05 -2.4794E+03   1.0248E+05  0.000E+00  0.000E+00  0.000E+00  4.84071E+01  1.457E-01  2.000E+01  2.000E+04 -1.240E-01
   1   13    2     1     2    1.0248E+05 -3.5320E+03   1.0601E+05  0.000E+00  0.000E+00  0.000E+00  4.79324E+01  1.483E-01  2.000E+01  2.000E+04 -1.766E-01
   1   14    3     1     3    1.0601E+05 -6.6624E+02   1.0668E+05  0.000E+00  0.000E+00  0.000E+00  4.74569E+01  1.501E-01  2.000E+01  2.000E+04 -3.331E-02
   1   15    4     1     4    1.0668E+05 -6.4299E+02   1.0732E+05  0.000E+00  0.000E+00  0.000E+00  4.69802E+01  1.506E-01  2.000E+01  2.000E+04 -3.215E-02
   1   16    5     1     5    1.0732E+05 -2.2215E+03   1.0954E+05  0.000E+00  0.000E+00  0.000E+00  4.65041E+01  1.519E-01  2.000E+01  2.000E+04 -1.111E-01
   1   16    6     1     6    1.0954E+05 -1.3941E+03   1.1094E+05  0.000E+00  0.000E+00  0.000E+00  4.60284E+01  1.534E-01  2.000E+01  2.000E+04 -6.971E-02
   1   16    7     1     7    1.1094E+05 -1.3621E+03   1.1230E+05  0.000E+00  0.000E+00  0.000E+00  4.55522E+01  1.545E-01  2.000E+01  2.000E+04 -6.810E-02
   1   16    8     1     8    1.1230E+05 -1.3500E+03   1.1365E+05  0.000E+00  0.000E+00  0.000E+00  4.50761E+01  1.556E-01  2.000E+01  2.000E+04 -6.750E-02
   1   16    9     1     9    1.1365E+05 -1.3321E+03   1.1498E+05  0.000E+00  0.000E+00  0.000E+00  4.45999E+01  1.567E-01  2.000E+01  2.000E+04 -6.661E-02
   1   16   10     1    10    1.1498E+05 -1.3050E+03   1.1629E+05  0.000E+00  0.000E+00  0.000E+00  4.41237E+01  1.578E-01  2.000E+01  2.000E+04 -6.525E-02
   1   16   11     1    11    1.1629E+05 -1.2868E+03   1.1757E+05  0.000E+00  0.000E+00  0.000E+00  4.36475E+01  1.589E-01  2.000E+01  2.000E+04 -6.434E-02
   1   16   12     1    12    1.1757E+05 -2.1330E+03   1.1971E+05  0.000E+00  0.000E+00  0.000E+00  4.31716E+01  1.603E-01  2.000E+01  2.000E+04 -1.067E-01
   1   15   13     1    13    1.1971E+05 -2.1049E+03   1.2181E+05  0.000E+00  0.000E+00  0.000E+00  4.26961E+01  1.620E-01  2.000E+01  2.000E+04 -1.052E-01
   1   14   14     1    14    1.2181E+05 -2.3997E+03   1.2421E+05  0.000E+00  0.000E+00  0.000E+00  4.22206E+01  1.638E-01  2.000E+01  2.000E+04 -1.200E-01
   1   13   15     1    15    1.2421E+05 -2.7373E+03   1.2695E+05  0.000E+00  0.000E+00  0.000E+00  4.17454E+01  1.658E-01  2.000E+01  2.000E+04 -1.369E-01
   1   12   16     1    16    1.2695E+05 -3.5608E+03   1.3051E+05  0.000E+00  0.000E+00  0.000E+00  4.12706E+01  1.683E-01  2.000E+01  2.000E+04 -1.780E-01
   1   12   17     1    17    1.3051E+05 -2.2302E+03   1.3274E+05  0.000E+00  0.000E+00  0.000E+00  4.07956E+01  1.706E-01  2.000E+01  2.000E+04 -1.115E-01
   1   12   18     1    18    1.3274E+05 -2.0595E+03   1.3480E+05  0.000E+00  0.000E+00  0.000E+00  4.03200E+01  1.722E-01  2.000E+01  2.000E+04 -1.030E-01
   1   12   19     1    19    1.3480E+05 -2.7094E+03   1.3751E+05  0.000E+00  0.000E+00  0.000E+00  3.98445E+01  1.741E-01  2.000E+01  2.000E+04 -1.355E-01
   1   13   20     1    20    1.3751E+05 -1.2230E+03   1.3873E+05  0.000E+00  0.000E+00  0.000E+00  3.93688E+01  1.756E-01  2.000E+01  2.000E+04 -6.115E-02
   1   14   21     1    21    1.3873E+05  3.5915E+03   1.3514E+05  0.000E+00  0.000E+00  0.000E+00  3.88906E+01  1.747E-01  2.000E+01  2.000E+04  1.796E-01
   1   14   22     1    22    1.3514E+05  5.7070E+03   1.2943E+05  0.000E+00  0.000E+00  0.000E+00  3.84097E+01  1.711E-01  2.000E+01  2.000E+04  2.853E-01
   1    9   30     2     1    5.0000E+04  1.7105E+03   4.8290E+04  0.000E+00  0.000E+00  0.000E+00  4.02397E+01  1.147E-01  2.000E+01  2.000E+04  8.552E-02
   1    9   29     2     2    4.8290E+04  3.6583E+03   4.4631E+04  0.000E+00  0.000E+00  0.000E+00  3.99859E+01  1.109E-01  2.000E+01  2.000E+04  1.829E-01
   1    9   28     2     3    4.4631E+04  4.7207E+02   4.4159E+04  0.000E+00  0.000E+00  0.000E+00  3.97329E+01  1.079E-01  2.000E+01  2.000E+04  2.360E-02
   1    9   27     2     4    4.4159E+04 -2.1770E+03   4.6336E+04  0.000E+00  0.000E+00  0.000E+00  3.94841E+01  1.091E-01  2.000E+01  2.000E+04 -1.088E-01
   1   10   26     2     5    4.6336E+04 -9.7881E+02   4.7315E+04  0.000E+00  0.000E+00  0.000E+00  3.92364E+01  1.114E-01  2.000E+01  2.000E+04 -4.894E-02
   1   11   25     2     6    4.7315E+04 -1.3010E+03   4.8616E+04  0.000E+00  0.000E+00  0.000E+00  3.89880E+01  1.130E-01  2.000E+01  2.000E+04 -6.505E-02
   1   12   24     2     7    4.8616E+04 -1.7615E+03   5.0378E+04  0.000E+00  0.000E+00  0.000E+00  3.87402E+01  1.152E-01  2.000E+01  2.000E+04 -8.808E-02
   1   13   23     2     8    5.0378E+04 -3.7367E+02   5.0751E+04  0.000E+00  0.000E+00  0.000E+00  3.84916E+01  1.166E-01  2.000E+01  2.000E+04 -1.868E-02
   1   14   22     2     9    5.0751E+04  2.3183E+03   4.8433E+04  0.000E+00  0.000E+00  0.000E+00  3.82403E+01  1.153E-01  2.000E+01  2.000E+04  1.159E-01
   1   14   22     3     1    1.7786E+05 -7.9398E+03   1.8580E+05  0.000E+00  0.000E+00  0.000E+00  3.77274E+01  1.718E-01  2.000E+01  2.000E+04 -3.970E-01
   1   15   23     3     2    1.8580E+05 -8.0330E+01   1.8588E+05  0.000E+00  0.000E+00  0.000E+00  3.68408E+01  1.741E-01  2.000E+01  2.000E+04 -4.016E-03
   1   15   24     3     3    1.8588E+05 -2.9960E+02   1.8618E+05  0.000E+00  0.000E+00  0.000E+00  3.59520E+01  1.742E-01  2.000E+01  2.000E+04 -1.498E-02
   1   15   25     3     4    1.8618E+05 -3.0612E+02   1.8649E+05  0.000E+00  0.000E+00  0.000E+00  3.50633E+01  1.744E-01  2.000E+01  2.000E+04 -1.531E-02
   1   15   26     3     5    1.8649E+05 -2.5012E+02   1.8674E+05  0.000E+00  0.000E+00  0.000E+00  3.41745E+01  1.745E-01  2.000E+01  2.000E+04 -1.251E-02
   1   16   27     3     6    1.8674E+05 -1.1720E+01   1.8675E+05  0.000E+00  0.000E+00  0.000E+00  3.32857E+01  1.746E-01  2.000E+01  2.000E+04 -5.860E-04
   1   17   28     3     7    1.8675E+05  5.7016E+03   1.8105E+05  0.000E+00  0.000E+00  0.000E+00  3.23952E+01  1.730E-01  2.000E+01  2.000E+04  2.851E-01
   1   18   29     3     8    1.8105E+05  7.7276E+03   1.7332E+05  0.000E+00  0.000E+00  0.000E+00  3.15025E+01  1.692E-01  2.000E+01  2.000E+04  3.864E-01
   1   18   30     3     9    1.7332E+05  2.0722E+03   1.7125E+05  0.000E+00  0.000E+00  0.000E+00  3.06108E+01  1.664E-01  2.000E+01  2.000E+04  1.036E-01



1
              HEAD IN LAYER   1 AT END OF TIME STEP   1 IN STRESS PERIOD    6
  ---------------------------------------------------------------------------

          1      2      3      4      5      6      7      8      9     10
         11     12     13     14     15     16     17     18     19     20
         21     22     23     24     25     26     27     28     29     30
 .........................................................................
   1  ****** ****** ****** ****** ****** ****** ****** ****** ****** ******
      ****** ****** ****** ****** ****** ****** ****** ****** ****** ******
      ****** ****** ****** ****** ****** ****** ****** ****** ****** ******
   2  ****** ****** ****** ****** ****** ****** ****** ****** ****** ******
      ****** ****** ****** ****** ****** ****** ****** ****** ****** ******
      ****** ****** ****** ****** ****** ****** ****** ****** ****** ******
   3  ****** ****** ****** ****** ****** ****** ****** ****** ****** ******
      ****** ****** ****** ****** ****** ****** ****** ****** ****** ******
      ****** ****** ****** ****** ****** ****** ****** ****** ****** ******
   4  ****** ****** ****** ****** ****** ****** ****** ****** ****** ******
      ****** ****** ****** ****** ****** ****** ****** ****** ****** ******
      ****** ****** ****** ****** ****** ****** ****** ****** ****** ******
   5  ****** ****** ****** ****** ****** ****** ****** ****** ****** ******
      ****** ****** ****** ****** ****** ****** ****** ****** ****** ******
      ****** ****** ****** ****** ****** ****** ****** ****** ****** ******
   6  ****** ****** ****** ****** ****** ****** ****** ****** ****** ******
      ****** ****** ****** ****** ****** ****** ****** ****** ****** ******
      ****** ****** ****** ****** ****** ****** ****** ****** ****** ******
   7  ****** ****** ****** ****** ****** ****** ****** ****** ****** ******
      ****** ****** ****** ****** ****** ****** ****** ****** ****** ******
      ****** ****** ****** ****** ****** ****** ****** ****** ****** ******
   8  ****** ****** ****** ****** ****** ****** ****** ****** ****** ******
      ****** ****** ****** ****** ****** ****** ****** ****** ****** ******
      ****** ****** ****** ****** ****** ****** ****** ****** ****** ******
   9  ****** ****** ****** ****** ****** ****** ****** ****** ****** ******
      ****** ****** ****** ****** ****** ****** ****** ****** ****** ******
      ****** ****** ****** ****** ****** ****** ****** ****** ****** ******
  10  ****** ****** ****** ****** ****** ****** ****** ****** ****** ******
      ****** ****** ****** ****** ****** ****** ****** ****** ****** ******
      ****** ****** ****** ****** ****** ****** ****** ****** ****** ******
  11  ****** ****** ****** ****** ****** ****** ****** ****** ****** ******
      ****** ****** ****** ****** ****** ****** ****** ****** ****** ******
      ****** ****** ****** ****** ****** ****** ****** ****** ****** ******
  12  ****** ****** ****** ****** ****** ****** ****** ****** ****** ******
      ****** ****** ****** ****** ****** ****** ****** ****** ****** ******
      ****** ****** ****** ****** ****** ****** ****** ****** ****** ******
  13  ****** ****** ****** ****** ****** ****** ****** ****** ****** ******
      ****** ****** ****** ****** ****** ****** ****** ****** ****** ******
      ****** ****** ****** ****** ****** ****** ****** ****** ****** ******
  14  ****** ****** ****** ****** ****** ****** ****** ****** ****** ******
      ****** ****** ****** ****** ****** ****** ****** ****** ****** ******
      ****** ****** ****** ****** ****** ****** ****** ****** ****** ******
  15  ****** ****** ****** ****** ****** ****** ****** ****** ****** ******
      ****** ****** ****** ****** ****** ****** ****** ****** ****** ******
      ****** ****** ****** ****** ****** ****** ****** ****** ****** ******
  16  ****** ****** ****** ****** ****** ****** ****** ****** ****** ******
      ****** ****** ****** ****** ****** ****** ****** ****** ****** ******
      ****** ****** ****** ****** ****** ****** ****** ****** ****** ******
  17  ****** ****** ****** ****** ****** ****** ****** ****** ****** ******
      ****** ****** ****** ****** ****** ****** ****** ****** ****** ******
      ****** ****** ****** ****** ****** ****** ****** ****** ****** ******
  18  ****** ****** ****** ****** ****** ****** ****** ****** ****** ******
      ****** ****** ****** ****** ****** ****** ****** ****** ****** ******
      ****** ****** ****** ****** ****** ****** ****** ****** ****** ******
  19  ****** ****** ****** ****** ****** ****** ****** ****** ****** ******
      ****** ****** ****** ****** ****** ****** ****** ****** ****** ******
      ****** ****** ****** ****** ****** ****** ****** ****** ****** ******
  20  ****** ****** ****** ****** ****** ****** ****** ****** ****** ******
      ****** ****** ****** ****** ****** ****** ****** ****** ****** ******
      ****** ****** ****** ****** ****** ****** ****** ****** ****** ******
  21  ****** ****** ****** ****** ****** ****** ****** ****** ****** ******
      ****** ****** ****** ****** ****** ****** ****** ****** ****** ******
      ****** ****** ****** ****** ****** ****** ****** ****** ****** ******
  22  ****** ****** ****** ****** ****** ****** ****** ****** ****** ******
      ****** ****** ****** ****** ****** ****** ****** ****** ****** ******
      ****** ****** ****** ****** ****** ****** ****** ****** ****** ******
  23  ****** ****** ****** ****** ****** ****** ****** ****** ****** ******
      ****** ****** ****** ****** ****** ****** ****** ****** ****** ******
      ****** ****** ****** ****** ****** ****** ****** ****** ****** ******
  24  ****** ****** ****** ****** ****** ****** ****** ****** ****** ******
      ****** ****** ****** ****** ****** ****** ****** ****** ****** ******
      ****** ****** ****** ****** ****** ****** ****** ****** ****** ******
  25  ****** ****** ****** ****** ****** ****** ****** ****** ****** ******
      ****** ****** ****** ****** ****** ****** ****** ****** ****** ******
      ****** ****** ****** ****** ****** ****** ****** ****** ****** ******

 HEAD WILL BE SAVED ON UNIT   51 AT END OF TIME STEP    1, STRESS PERIOD    6
1
  VOLUMETRIC BUDGET FOR ENTIRE MODEL AT END OF TIME STEP    1, STRESS PERIOD   6
  ------------------------------------------------------------------------------

     CUMULATIVE VOLUMES      L**3       RATES FOR THIS TIME STEP      L**3/T
     ------------------                 ------------------------

           IN:                                      IN:
           ---                                      ---
             STORAGE =    30049874.6199               STORAGE =           0.0000
       CONSTANT HEAD =    12619274.6009         CONSTANT HEAD =       27969.7491
               WELLS =           0.0000                 WELLS =           0.0000
            RECHARGE =    15097200.0000              RECHARGE =       55200.0000
      STREAM LEAKAGE =    15112073.7854        STREAM LEAKAGE =       32959.0105

            TOTAL IN =    72878423.0061              TOTAL IN =      116128.7596

          OUT:                                     OUT:
          ----                                     ----
             STORAGE =      842709.2062               STORAGE =        9254.3449
       CONSTANT HEAD =           0.0000         CONSTANT HEAD =           0.0000
               WELLS =    28860212.5499                 WELLS =       52664.6214
            RECHARGE =           0.0000              RECHARGE =           0.0000
      STREAM LEAKAGE =    43175503.2626        STREAM LEAKAGE =       54209.7904

           TOTAL OUT =    72878425.0187             TOTAL OUT =      116128.7567

            IN - OUT =          -2.0126              IN - OUT =       2.8615E-03

 PERCENT DISCREPANCY =          -0.00     PERCENT DISCREPANCY =           0.00






         TIME SUMMARY AT END OF TIME STEP    1 IN STRESS PERIOD    6
                    SECONDS     MINUTES      HOURS       DAYS        YEARS
                    -----------------------------------------------------------
   TIME STEP LENGTH 7.86240E+06 1.31040E+05  2184.0      91.000     0.24914    
 STRESS PERIOD TIME 7.86240E+06 1.31040E+05  2184.0      91.000     0.24914    
         TOTAL TIME 4.73472E+07 7.89120E+05  13152.      548.00      1.5003    
1
1
                            STRESS PERIOD NO.    7, LENGTH =   91.00000    
                            -----------------------------------------------

                              NUMBER OF TIME STEPS =     1

                               MULTIPLIER FOR DELT =     1.500

                            INITIAL TIME STEP SIZE =   91.00000    

 WELL NO.  LAYER   ROW   COL   STRESS RATE         
 --------------------------------------------------
      1      1     14      6       0.000    
      2      1      3      9       0.000    
      3      1     20     10       0.000    
      4      1     14     20       0.000    
      5      1     10     29     -0.1299E+05
      6      1     15     21     -0.1317E+05
      7      1     19     29     -0.1184E+05
      8      1     17     29     -0.1466E+05

      8 WELLS

                 RECHARGE =   0.00000    

 REUSING STREAM SEGMENT DATA FROM LAST STRESS PERIOD
 
 SOLVING FOR HEAD 


     7 CALLS TO PCG ROUTINE FOR TIME STEP   1 IN STRESS PERIOD    7
    26 TOTAL ITERATIONS

 OUTPUT CONTROL FOR STRESS PERIOD    7   TIME STEP    1
    SAVE BUDGET
    SAVE HEAD FOR ALL LAYERS
    PRINT HEAD FOR ALL LAYERS
 UBDSV2 SAVING "STREAMFLOW OUT  " ON UNIT  50 AT TIME STEP  1, STRESS PERIOD   7



 STREAM LISTING     PERIOD      7   STEP        1

 LAYER ROW COL. STREAM  RCH.  FLOW INTO     FLOW TO   FLOW OUT OF   OVRLND.     DIRECT     STREAM       STREAM     STREAM     STREAM   STREAMBED  STREAMBED
                SEG.NO.  NO.  STRM. RCH.    AQUIFER    STRM. RCH.    RUNOFF     PRECIP       ET          HEAD       DEPTH      WIDTH   CONDCTNC.   GRADIENT

   1   13    1     1     1    1.0000E+05 -1.8221E+03   1.0182E+05  0.000E+00  0.000E+00  0.000E+00  4.84068E+01  1.454E-01  2.000E+01  2.000E+04 -9.111E-02
   1   13    2     1     2    1.0182E+05 -2.7969E+03   1.0462E+05  0.000E+00  0.000E+00  0.000E+00  4.79315E+01  1.474E-01  2.000E+01  2.000E+04 -1.398E-01
   1   14    3     1     3    1.0462E+05 -4.1565E+02   1.0503E+05  0.000E+00  0.000E+00  0.000E+00  4.74556E+01  1.488E-01  2.000E+01  2.000E+04 -2.078E-02
   1   15    4     1     4    1.0503E+05 -3.8135E+02   1.0542E+05  0.000E+00  0.000E+00  0.000E+00  4.69787E+01  1.491E-01  2.000E+01  2.000E+04 -1.907E-02
   1   16    5     1     5    1.0542E+05 -1.4691E+03   1.0689E+05  0.000E+00  0.000E+00  0.000E+00  4.65022E+01  1.499E-01  2.000E+01  2.000E+04 -7.345E-02
   1   16    6     1     6    1.0689E+05 -9.4062E+02   1.0783E+05  0.000E+00  0.000E+00  0.000E+00  4.60259E+01  1.509E-01  2.000E+01  2.000E+04 -4.703E-02
   1   16    7     1     7    1.0783E+05 -9.2703E+02   1.0875E+05  0.000E+00  0.000E+00  0.000E+00  4.55495E+01  1.517E-01  2.000E+01  2.000E+04 -4.635E-02
   1   16    8     1     8    1.0875E+05 -9.2086E+02   1.0967E+05  0.000E+00  0.000E+00  0.000E+00  4.50730E+01  1.525E-01  2.000E+01  2.000E+04 -4.604E-02
   1   16    9     1     9    1.0967E+05 -9.0590E+02   1.1058E+05  0.000E+00  0.000E+00  0.000E+00  4.45965E+01  1.533E-01  2.000E+01  2.000E+04 -4.529E-02
   1   16   10     1    10    1.1058E+05 -8.8095E+02   1.1146E+05  0.000E+00  0.000E+00  0.000E+00  4.41199E+01  1.540E-01  2.000E+01  2.000E+04 -4.405E-02
   1   16   11     1    11    1.1146E+05 -8.6099E+02   1.1232E+05  0.000E+00  0.000E+00  0.000E+00  4.36434E+01  1.547E-01  2.000E+01  2.000E+04 -4.305E-02
   1   16   12     1    12    1.1232E+05 -1.4175E+03   1.1374E+05  0.000E+00  0.000E+00  0.000E+00  4.31670E+01  1.557E-01  2.000E+01  2.000E+04 -7.088E-02
   1   15   13     1    13    1.1374E+05 -1.3402E+03   1.1508E+05  0.000E+00  0.000E+00  0.000E+00  4.26909E+01  1.568E-01  2.000E+01  2.000E+04 -6.701E-02
   1   14   14     1    14    1.1508E+05 -1.6094E+03   1.1669E+05  0.000E+00  0.000E+00  0.000E+00  4.22148E+01  1.580E-01  2.000E+01  2.000E+04 -8.047E-02
   1   13   15     1    15    1.1669E+05 -1.9471E+03   1.1864E+05  0.000E+00  0.000E+00  0.000E+00  4.17390E+01  1.595E-01  2.000E+01  2.000E+04 -9.735E-02
   1   12   16     1    16    1.1864E+05 -2.7807E+03   1.2142E+05  0.000E+00  0.000E+00  0.000E+00  4.12637E+01  1.614E-01  2.000E+01  2.000E+04 -1.390E-01
   1   12   17     1    17    1.2142E+05 -1.6602E+03   1.2308E+05  0.000E+00  0.000E+00  0.000E+00  4.07882E+01  1.632E-01  2.000E+01  2.000E+04 -8.301E-02
   1   12   18     1    18    1.2308E+05 -1.5026E+03   1.2458E+05  0.000E+00  0.000E+00  0.000E+00  4.03122E+01  1.644E-01  2.000E+01  2.000E+04 -7.513E-02
   1   12   19     1    19    1.2458E+05 -2.0294E+03   1.2661E+05  0.000E+00  0.000E+00  0.000E+00  3.98363E+01  1.658E-01  2.000E+01  2.000E+04 -1.015E-01
   1   13   20     1    20    1.2661E+05 -5.5569E+02   1.2716E+05  0.000E+00  0.000E+00  0.000E+00  3.93601E+01  1.669E-01  2.000E+01  2.000E+04 -2.778E-02
   1   14   21     1    21    1.2716E+05  4.2537E+03   1.2291E+05  0.000E+00  0.000E+00  0.000E+00  3.88813E+01  1.654E-01  2.000E+01  2.000E+04  2.127E-01
   1   14   22     1    22    1.2291E+05  5.8695E+03   1.1704E+05  0.000E+00  0.000E+00  0.000E+00  3.84000E+01  1.614E-01  2.000E+01  2.000E+04  2.935E-01
   1    9   30     2     1    5.0000E+04  2.2219E+03   4.7778E+04  0.000E+00  0.000E+00  0.000E+00  4.02393E+01  1.143E-01  2.000E+01  2.000E+04  1.111E-01
   1    9   29     2     2    4.7778E+04  4.1678E+03   4.3610E+04  0.000E+00  0.000E+00  0.000E+00  3.99848E+01  1.098E-01  2.000E+01  2.000E+04  2.084E-01
   1    9   28     2     3    4.3610E+04  9.8244E+02   4.2628E+04  0.000E+00  0.000E+00  0.000E+00  3.97310E+01  1.060E-01  2.000E+01  2.000E+04  4.912E-02
   1    9   27     2     4    4.2628E+04 -1.4854E+03   4.4113E+04  0.000E+00  0.000E+00  0.000E+00  3.94814E+01  1.064E-01  2.000E+01  2.000E+04 -7.427E-02
   1   10   26     2     5    4.4113E+04 -2.8426E+02   4.4398E+04  0.000E+00  0.000E+00  0.000E+00  3.92327E+01  1.077E-01  2.000E+01  2.000E+04 -1.421E-02
   1   11   25     2     6    4.4398E+04 -6.3479E+02   4.5032E+04  0.000E+00  0.000E+00  0.000E+00  3.89834E+01  1.084E-01  2.000E+01  2.000E+04 -3.174E-02
   1   12   24     2     7    4.5032E+04 -1.1544E+03   4.6187E+04  0.000E+00  0.000E+00  0.000E+00  3.87346E+01  1.096E-01  2.000E+01  2.000E+04 -5.772E-02
   1   13   23     2     8    4.6187E+04 -1.8251E+02   4.6369E+04  0.000E+00  0.000E+00  0.000E+00  3.84856E+01  1.106E-01  2.000E+01  2.000E+04 -9.125E-03
   1   14   22     2     9    4.6369E+04  2.5478E+03   4.3821E+04  0.000E+00  0.000E+00  0.000E+00  3.82339E+01  1.089E-01  2.000E+01  2.000E+04  1.274E-01
   1   14   22     3     1    1.6086E+05 -7.7801E+03   1.6864E+05  0.000E+00  0.000E+00  0.000E+00  3.77175E+01  1.620E-01  2.000E+01  2.000E+04 -3.890E-01
   1   15   23     3     2    1.6864E+05  1.2658E+02   1.6852E+05  0.000E+00  0.000E+00  0.000E+00  3.68309E+01  1.642E-01  2.000E+01  2.000E+04  6.329E-03
   1   15   24     3     3    1.6852E+05 -1.2559E+02   1.6864E+05  0.000E+00  0.000E+00  0.000E+00  3.59420E+01  1.642E-01  2.000E+01  2.000E+04 -6.279E-03
   1   15   25     3     4    1.6864E+05 -1.2902E+02   1.6877E+05  0.000E+00  0.000E+00  0.000E+00  3.50532E+01  1.643E-01  2.000E+01  2.000E+04 -6.451E-03
   1   15   26     3     5    1.6877E+05 -4.8614E+01   1.6882E+05  0.000E+00  0.000E+00  0.000E+00  3.41643E+01  1.643E-01  2.000E+01  2.000E+04 -2.431E-03
   1   16   27     3     6    1.6882E+05  2.2115E+02   1.6860E+05  0.000E+00  0.000E+00  0.000E+00  3.32754E+01  1.643E-01  2.000E+01  2.000E+04  1.106E-02
   1   17   28     3     7    1.6860E+05  6.3450E+03   1.6225E+05  0.000E+00  0.000E+00  0.000E+00  3.23846E+01  1.624E-01  2.000E+01  2.000E+04  3.173E-01
   1   18   29     3     8    1.6225E+05  8.4174E+03   1.5384E+05  0.000E+00  0.000E+00  0.000E+00  3.14913E+01  1.580E-01  2.000E+01  2.000E+04  4.209E-01
   1   18   30     3     9    1.5384E+05  2.6028E+03   1.5123E+05  0.000E+00  0.000E+00  0.000E+00  3.05991E+01  1.546E-01  2.000E+01  2.000E+04  1.301E-01



1
              HEAD IN LAYER   1 AT END OF TIME STEP   1 IN STRESS PERIOD    7
  ---------------------------------------------------------------------------

          1      2      3      4      5      6      7      8      9     10
         11     12     13     14     15     16     17     18     19     20
         21     22     23     24     25     26     27     28     29     30
 .........................................................................
   1  ****** ****** ****** ****** ****** ****** ****** ****** ****** ******
      ****** ****** ****** ****** ****** ****** ****** ****** ****** ******
      ****** ****** ****** ****** ****** ****** ****** ****** ****** ******
   2  ****** ****** ****** ****** ****** ****** ****** ****** ****** ******
      ****** ****** ****** ****** ****** ****** ****** ****** ****** ******
      ****** ****** ****** ****** ****** ****** ****** ****** ****** ******
   3  ****** ****** ****** ****** ****** ****** ****** ****** ****** ******
      ****** ****** ****** ****** ****** ****** ****** ****** ****** ******
      ****** ****** ****** ****** ****** ****** ****** ****** ****** ******
   4  ****** ****** ****** ****** ****** ****** ****** ****** ****** ******
      ****** ****** ****** ****** ****** ****** ****** ****** ****** ******
      ****** ****** ****** ****** ****** ****** ****** ****** ****** ******
   5  ****** ****** ****** ****** ****** ****** ****** ****** ****** ******
      ****** ****** ****** ****** ****** ****** ****** ****** ****** ******
      ****** ****** ****** ****** ****** ****** ****** ****** ****** ******
   6  ****** ****** ****** ****** ****** ****** ****** ****** ****** ******
      ****** ****** ****** ****** ****** ****** ****** ****** ****** ******
      ****** ****** ****** ****** ****** ****** ****** ****** ****** ******
   7  ****** ****** ****** ****** ****** ****** ****** ****** ****** ******
      ****** ****** ****** ****** ****** ****** ****** ****** ****** ******
      ****** ****** ****** ****** ****** ****** ****** ****** ****** ******
   8  ****** ****** ****** ****** ****** ****** ****** ****** ****** ******
      ****** ****** ****** ****** ****** ****** ****** ****** ****** ******
      ****** ****** ****** ****** ****** ****** ****** ****** ****** ******
   9  ****** ****** ****** ****** ****** ****** ****** ****** ****** ******
      ****** ****** ****** ****** ****** ****** ****** ****** ****** ******
      ****** ****** ****** ****** ****** ****** ****** ****** ****** ******
  10  ****** ****** ****** ****** ****** ****** ****** ****** ****** ******
      ****** ****** ****** ****** ****** ****** ****** ****** ****** ******
      ****** ****** ****** ****** ****** ****** ****** ****** ****** ******
  11  ****** ****** ****** ****** ****** ****** ****** ****** ****** ******
      ****** ****** ****** ****** ****** ****** ****** ****** ****** ******
      ****** ****** ****** ****** ****** ****** ****** ****** ****** ******
  12  ****** ****** ****** ****** ****** ****** ****** ****** ****** ******
      ****** ****** ****** ****** ****** ****** ****** ****** ****** ******
      ****** ****** ****** ****** ****** ****** ****** ****** ****** ******
  13  ****** ****** ****** ****** ****** ****** ****** ****** ****** ******
      ****** ****** ****** ****** ****** ****** ****** ****** ****** ******
      ****** ****** ****** ****** ****** ****** ****** ****** ****** ******
  14  ****** ****** ****** ****** ****** ****** ****** ****** ****** ******
      ****** ****** ****** ****** ****** ****** ****** ****** ****** ******
      ****** ****** ****** ****** ****** ****** ****** ****** ****** ******
  15  ****** ****** ****** ****** ****** ****** ****** ****** ****** ******
      ****** ****** ****** ****** ****** ****** ****** ****** ****** ******
      ****** ****** ****** ****** ****** ****** ****** ****** ****** ******
  16  ****** ****** ****** ****** ****** ****** ****** ****** ****** ******
      ****** ****** ****** ****** ****** ****** ****** ****** ****** ******
      ****** ****** ****** ****** ****** ****** ****** ****** ****** ******
  17  ****** ****** ****** ****** ****** ****** ****** ****** ****** ******
      ****** ****** ****** ****** ****** ****** ****** ****** ****** ******
      ****** ****** ****** ****** ****** ****** ****** ****** ****** ******
  18  ****** ****** ****** ****** ****** ****** ****** ****** ****** ******
      ****** ****** ****** ****** ****** ****** ****** ****** ****** ******
      ****** ****** ****** ****** ****** ****** ****** ****** ****** ******
  19  ****** ****** ****** ****** ****** ****** ****** ****** ****** ******
      ****** ****** ****** ****** ****** ****** ****** ****** ****** ******
      ****** ****** ****** ****** ****** ****** ****** ****** ****** ******
  20  ****** ****** ****** ****** ****** ****** ****** ****** ****** ******
      ****** ****** ****** ****** ****** ****** ****** ****** ****** ******
      ****** ****** ****** ****** ****** ****** ****** ****** ****** ******
  21  ****** ****** ****** ****** ****** ****** ****** ****** ****** ******
      ****** ****** ****** ****** ****** ****** ****** ****** ****** ******
      ****** ****** ****** ****** ****** ****** ****** ****** ****** ******
  22  ****** ****** ****** ****** ****** ****** ****** ****** ****** ******
      ****** ****** ****** ****** ****** ****** ****** ****** ****** ******
      ****** ****** ****** ****** ****** ****** ****** ****** ****** ******
  23  ****** ****** ****** ****** ****** ****** ****** ****** ****** ******
      ****** ****** ****** ****** ****** ****** ****** ****** ****** ******
      ****** ****** ****** ****** ****** ****** ****** ****** ****** ******
  24  ****** ****** ****** ****** ****** ****** ****** ****** ****** ******
      ****** ****** ****** ****** ****** ****** ****** ****** ****** ******
      ****** ****** ****** ****** ****** ****** ****** ****** ****** ******
  25  ****** ****** ****** ****** ****** ****** ****** ****** ****** ******
      ****** ****** ****** ****** ****** ****** ****** ****** ****** ******
      ****** ****** ****** ****** ****** ****** ****** ****** ****** ******

 HEAD WILL BE SAVED ON UNIT   51 AT END OF TIME STEP    1, STRESS PERIOD    7
1
  VOLUMETRIC BUDGET FOR ENTIRE MODEL AT END OF TIME STEP    1, STRESS PERIOD   7
  ------------------------------------------------------------------------------

     CUMULATIVE VOLUMES      L**3       RATES FOR THIS TIME STEP      L**3/T
     ------------------                 ------------------------

           IN:                                      IN:
           ---                                      ---
             STORAGE =    32055681.8439               STORAGE =       22041.8376
       CONSTANT HEAD =    15518157.7638         CONSTANT HEAD =       31855.8589
               WELLS =           0.0000                 WELLS =           0.0000
            RECHARGE =    15097200.0000              RECHARGE =           0.0000
      STREAM LEAKAGE =    18547869.7821        STREAM LEAKAGE =       37756.0000

            TOTAL IN =    81218909.3898              TOTAL IN =       91653.6965

          OUT:                                     OUT:
          ----                                     ----
             STORAGE =      842709.2062               STORAGE =           0.0000
       CONSTANT HEAD =           0.0000         CONSTANT HEAD =           0.0000
               WELLS =    33652693.1011                 WELLS =       52664.6214
            RECHARGE =           0.0000              RECHARGE =           0.0000
      STREAM LEAKAGE =    46723509.5772        STREAM LEAKAGE =       38989.0804

           TOTAL OUT =    81218911.8845             TOTAL OUT =       91653.7018

            IN - OUT =          -2.4948              IN - OUT =      -5.2986E-03

 PERCENT DISCREPANCY =          -0.00     PERCENT DISCREPANCY =          -0.00






         TIME SUMMARY AT END OF TIME STEP    1 IN STRESS PERIOD    7
                    SECONDS     MINUTES      HOURS       DAYS        YEARS
                    -----------------------------------------------------------
   TIME STEP LENGTH 7.86240E+06 1.31040E+05  2184.0      91.000     0.24914    
 STRESS PERIOD TIME 7.86240E+06 1.31040E+05  2184.0      91.000     0.24914    
         TOTAL TIME 5.52096E+07 9.20160E+05  15336.      639.00      1.7495    
1
1
                            STRESS PERIOD NO.    8, LENGTH =   91.00000    
                            -----------------------------------------------

                              NUMBER OF TIME STEPS =     1

                               MULTIPLIER FOR DELT =     1.500

                            INITIAL TIME STEP SIZE =   91.00000    

 WELL NO.  LAYER   ROW   COL   STRESS RATE         
 --------------------------------------------------
      1      1     14      6       0.000    
      2      1      3      9       0.000    
      3      1     20     10       0.000    
      4      1     14     20       0.000    
      5      1     10     29     -0.1299E+05
      6      1     15     21     -0.1317E+05
      7      1     19     29     -0.1184E+05
      8      1     17     29     -0.1466E+05

      8 WELLS

                 RECHARGE =  1.000000E-03

 REUSING STREAM SEGMENT DATA FROM LAST STRESS PERIOD
 
 SOLVING FOR HEAD 


     6 CALLS TO PCG ROUTINE FOR TIME STEP   1 IN STRESS PERIOD    8
    22 TOTAL ITERATIONS

 OUTPUT CONTROL FOR STRESS PERIOD    8   TIME STEP    1
    SAVE BUDGET
    SAVE HEAD FOR ALL LAYERS
    PRINT HEAD FOR ALL LAYERS
 UBDSV2 SAVING "STREAMFLOW OUT  " ON UNIT  50 AT TIME STEP  1, STRESS PERIOD   8



 STREAM LISTING     PERIOD      8   STEP        1

 LAYER ROW COL. STREAM  RCH.  FLOW INTO     FLOW TO   FLOW OUT OF   OVRLND.     DIRECT     STREAM       STREAM     STREAM     STREAM   STREAMBED  STREAMBED
                SEG.NO.  NO.  STRM. RCH.    AQUIFER    STRM. RCH.    RUNOFF     PRECIP       ET          HEAD       DEPTH      WIDTH   CONDCTNC.   GRADIENT

   1   13    1     1     1    1.0000E+05 -1.9024E+03   1.0190E+05  0.000E+00  0.000E+00  0.000E+00  4.84068E+01  1.455E-01  2.000E+01  2.000E+04 -9.512E-02
   1   13    2     1     2    1.0190E+05 -2.8779E+03   1.0478E+05  0.000E+00  0.000E+00  0.000E+00  4.79316E+01  1.475E-01  2.000E+01  2.000E+04 -1.439E-01
   1   14    3     1     3    1.0478E+05 -4.8077E+02   1.0526E+05  0.000E+00  0.000E+00  0.000E+00  4.74558E+01  1.490E-01  2.000E+01  2.000E+04 -2.404E-02
   1   15    4     1     4    1.0526E+05 -4.5087E+02   1.0571E+05  0.000E+00  0.000E+00  0.000E+00  4.69789E+01  1.494E-01  2.000E+01  2.000E+04 -2.254E-02
   1   16    5     1     5    1.0571E+05 -1.6436E+03   1.0736E+05  0.000E+00  0.000E+00  0.000E+00  4.65025E+01  1.503E-01  2.000E+01  2.000E+04 -8.218E-02
   1   16    6     1     6    1.0736E+05 -1.0483E+03   1.0840E+05  0.000E+00  0.000E+00  0.000E+00  4.60264E+01  1.514E-01  2.000E+01  2.000E+04 -5.241E-02
   1   16    7     1     7    1.0840E+05 -1.0297E+03   1.0943E+05  0.000E+00  0.000E+00  0.000E+00  4.55500E+01  1.523E-01  2.000E+01  2.000E+04 -5.149E-02
   1   16    8     1     8    1.0943E+05 -1.0227E+03   1.1046E+05  0.000E+00  0.000E+00  0.000E+00  4.50736E+01  1.531E-01  2.000E+01  2.000E+04 -5.114E-02
   1   16    9     1     9    1.1046E+05 -1.0088E+03   1.1147E+05  0.000E+00  0.000E+00  0.000E+00  4.45971E+01  1.540E-01  2.000E+01  2.000E+04 -5.044E-02
   1   16   10     1    10    1.1147E+05 -9.8614E+02   1.1245E+05  0.000E+00  0.000E+00  0.000E+00  4.41207E+01  1.548E-01  2.000E+01  2.000E+04 -4.931E-02
   1   16   11     1    11    1.1245E+05 -9.6895E+02   1.1342E+05  0.000E+00  0.000E+00  0.000E+00  4.36442E+01  1.556E-01  2.000E+01  2.000E+04 -4.845E-02
   1   16   12     1    12    1.1342E+05 -1.5792E+03   1.1500E+05  0.000E+00  0.000E+00  0.000E+00  4.31680E+01  1.567E-01  2.000E+01  2.000E+04 -7.896E-02
   1   15   13     1    13    1.1500E+05 -1.5104E+03   1.1651E+05  0.000E+00  0.000E+00  0.000E+00  4.26920E+01  1.579E-01  2.000E+01  2.000E+04 -7.552E-02
   1   14   14     1    14    1.1651E+05 -1.7738E+03   1.1828E+05  0.000E+00  0.000E+00  0.000E+00  4.22161E+01  1.593E-01  2.000E+01  2.000E+04 -8.869E-02
   1   13   15     1    15    1.1828E+05 -2.0996E+03   1.2038E+05  0.000E+00  0.000E+00  0.000E+00  4.17404E+01  1.608E-01  2.000E+01  2.000E+04 -1.050E-01
   1   12   16     1    16    1.2038E+05 -2.8972E+03   1.2328E+05  0.000E+00  0.000E+00  0.000E+00  4.12651E+01  1.628E-01  2.000E+01  2.000E+04 -1.449E-01
   1   12   17     1    17    1.2328E+05 -1.7741E+03   1.2505E+05  0.000E+00  0.000E+00  0.000E+00  4.07897E+01  1.647E-01  2.000E+01  2.000E+04 -8.871E-02
   1   12   18     1    18    1.2505E+05 -1.6228E+03   1.2668E+05  0.000E+00  0.000E+00  0.000E+00  4.03138E+01  1.661E-01  2.000E+01  2.000E+04 -8.114E-02
   1   12   19     1    19    1.2668E+05 -2.1811E+03   1.2886E+05  0.000E+00  0.000E+00  0.000E+00  3.98380E+01  1.676E-01  2.000E+01  2.000E+04 -1.091E-01
   1   13   20     1    20    1.2886E+05 -7.3452E+02   1.2959E+05  0.000E+00  0.000E+00  0.000E+00  3.93619E+01  1.687E-01  2.000E+01  2.000E+04 -3.673E-02
   1   14   21     1    21    1.2959E+05  4.0960E+03   1.2550E+05  0.000E+00  0.000E+00  0.000E+00  3.88833E+01  1.674E-01  2.000E+01  2.000E+04  2.048E-01
   1   14   22     1    22    1.2550E+05  5.8207E+03   1.1968E+05  0.000E+00  0.000E+00  0.000E+00  3.84021E+01  1.635E-01  2.000E+01  2.000E+04  2.910E-01
   1    9   30     2     1    5.0000E+04  2.0578E+03   4.7942E+04  0.000E+00  0.000E+00  0.000E+00  4.02394E+01  1.144E-01  2.000E+01  2.000E+04  1.029E-01
   1    9   29     2     2    4.7942E+04  4.0064E+03   4.3936E+04  0.000E+00  0.000E+00  0.000E+00  3.99851E+01  1.101E-01  2.000E+01  2.000E+04  2.003E-01
   1    9   28     2     3    4.3936E+04  8.2651E+02   4.3109E+04  0.000E+00  0.000E+00  0.000E+00  3.97316E+01  1.066E-01  2.000E+01  2.000E+04  4.133E-02
   1    9   27     2     4    4.3109E+04 -1.6656E+03   4.4775E+04  0.000E+00  0.000E+00  0.000E+00  3.94822E+01  1.072E-01  2.000E+01  2.000E+04 -8.328E-02
   1   10   26     2     5    4.4775E+04 -4.9114E+02   4.5266E+04  0.000E+00  0.000E+00  0.000E+00  3.92338E+01  1.088E-01  2.000E+01  2.000E+04 -2.456E-02
   1   11   25     2     6    4.5266E+04 -8.3997E+02   4.6106E+04  0.000E+00  0.000E+00  0.000E+00  3.89848E+01  1.098E-01  2.000E+01  2.000E+04 -4.200E-02
   1   12   24     2     7    4.6106E+04 -1.3407E+03   4.7447E+04  0.000E+00  0.000E+00  0.000E+00  3.87363E+01  1.113E-01  2.000E+01  2.000E+04 -6.703E-02
   1   13   23     2     8    4.7447E+04 -2.5697E+02   4.7704E+04  0.000E+00  0.000E+00  0.000E+00  3.84875E+01  1.125E-01  2.000E+01  2.000E+04 -1.285E-02
   1   14   22     2     9    4.7704E+04  2.4962E+03   4.5207E+04  0.000E+00  0.000E+00  0.000E+00  3.82359E+01  1.109E-01  2.000E+01  2.000E+04  1.248E-01
   1   14   22     3     1    1.6488E+05 -7.8234E+03   1.7271E+05  0.000E+00  0.000E+00  0.000E+00  3.77199E+01  1.643E-01  2.000E+01  2.000E+04 -3.912E-01
   1   15   23     3     2    1.7271E+05  6.2788E+01   1.7264E+05  0.000E+00  0.000E+00  0.000E+00  3.68333E+01  1.666E-01  2.000E+01  2.000E+04  3.139E-03
   1   15   24     3     3    1.7264E+05 -1.8580E+02   1.7283E+05  0.000E+00  0.000E+00  0.000E+00  3.59444E+01  1.666E-01  2.000E+01  2.000E+04 -9.290E-03
   1   15   25     3     4    1.7283E+05 -1.9096E+02   1.7302E+05  0.000E+00  0.000E+00  0.000E+00  3.50556E+01  1.667E-01  2.000E+01  2.000E+04 -9.548E-03
   1   15   26     3     5    1.7302E+05 -1.2306E+02   1.7314E+05  0.000E+00  0.000E+00  0.000E+00  3.41668E+01  1.668E-01  2.000E+01  2.000E+04 -6.153E-03
   1   16   27     3     6    1.7314E+05  1.3969E+02   1.7300E+05  0.000E+00  0.000E+00  0.000E+00  3.32779E+01  1.668E-01  2.000E+01  2.000E+04  6.984E-03
   1   17   28     3     7    1.7300E+05  6.1425E+03   1.6686E+05  0.000E+00  0.000E+00  0.000E+00  3.23872E+01  1.650E-01  2.000E+01  2.000E+04  3.071E-01
   1   18   29     3     8    1.6686E+05  8.2546E+03   1.5861E+05  0.000E+00  0.000E+00  0.000E+00  3.14941E+01  1.608E-01  2.000E+01  2.000E+04  4.127E-01
   1   18   30     3     9    1.5861E+05  2.4578E+03   1.5615E+05  0.000E+00  0.000E+00  0.000E+00  3.06020E+01  1.576E-01  2.000E+01  2.000E+04  1.229E-01



1
              HEAD IN LAYER   1 AT END OF TIME STEP   1 IN STRESS PERIOD    8
  ---------------------------------------------------------------------------

          1      2      3      4      5      6      7      8      9     10
         11     12     13     14     15     16     17     18     19     20
         21     22     23     24     25     26     27     28     29     30
 .........................................................................
   1  ****** ****** ****** ****** ****** ****** ****** ****** ****** ******
      ****** ****** ****** ****** ****** ****** ****** ****** ****** ******
      ****** ****** ****** ****** ****** ****** ****** ****** ****** ******
   2  ****** ****** ****** ****** ****** ****** ****** ****** ****** ******
      ****** ****** ****** ****** ****** ****** ****** ****** ****** ******
      ****** ****** ****** ****** ****** ****** ****** ****** ****** ******
   3  ****** ****** ****** ****** ****** ****** ****** ****** ****** ******
      ****** ****** ****** ****** ****** ****** ****** ****** ****** ******
      ****** ****** ****** ****** ****** ****** ****** ****** ****** ******
   4  ****** ****** ****** ****** ****** ****** ****** ****** ****** ******
      ****** ****** ****** ****** ****** ****** ****** ****** ****** ******
      ****** ****** ****** ****** ****** ****** ****** ****** ****** ******
   5  ****** ****** ****** ****** ****** ****** ****** ****** ****** ******
      ****** ****** ****** ****** ****** ****** ****** ****** ****** ******
      ****** ****** ****** ****** ****** ****** ****** ****** ****** ******
   6  ****** ****** ****** ****** ****** ****** ****** ****** ****** ******
      ****** ****** ****** ****** ****** ****** ****** ****** ****** ******
      ****** ****** ****** ****** ****** ****** ****** ****** ****** ******
   7  ****** ****** ****** ****** ****** ****** ****** ****** ****** ******
      ****** ****** ****** ****** ****** ****** ****** ****** ****** ******
      ****** ****** ****** ****** ****** ****** ****** ****** ****** ******
   8  ****** ****** ****** ****** ****** ****** ****** ****** ****** ******
      ****** ****** ****** ****** ****** ****** ****** ****** ****** ******
      ****** ****** ****** ****** ****** ****** ****** ****** ****** ******
   9  ****** ****** ****** ****** ****** ****** ****** ****** ****** ******
      ****** ****** ****** ****** ****** ****** ****** ****** ****** ******
      ****** ****** ****** ****** ****** ****** ****** ****** ****** ******
  10  ****** ****** ****** ****** ****** ****** ****** ****** ****** ******
      ****** ****** ****** ****** ****** ****** ****** ****** ****** ******
      ****** ****** ****** ****** ****** ****** ****** ****** ****** ******
  11  ****** ****** ****** ****** ****** ****** ****** ****** ****** ******
      ****** ****** ****** ****** ****** ****** ****** ****** ****** ******
      ****** ****** ****** ****** ****** ****** ****** ****** ****** ******
  12  ****** ****** ****** ****** ****** ****** ****** ****** ****** ******
      ****** ****** ****** ****** ****** ****** ****** ****** ****** ******
      ****** ****** ****** ****** ****** ****** ****** ****** ****** ******
  13  ****** ****** ****** ****** ****** ****** ****** ****** ****** ******
      ****** ****** ****** ****** ****** ****** ****** ****** ****** ******
      ****** ****** ****** ****** ****** ****** ****** ****** ****** ******
  14  ****** ****** ****** ****** ****** ****** ****** ****** ****** ******
      ****** ****** ****** ****** ****** ****** ****** ****** ****** ******
      ****** ****** ****** ****** ****** ****** ****** ****** ****** ******
  15  ****** ****** ****** ****** ****** ****** ****** ****** ****** ******
      ****** ****** ****** ****** ****** ****** ****** ****** ****** ******
      ****** ****** ****** ****** ****** ****** ****** ****** ****** ******
  16  ****** ****** ****** ****** ****** ****** ****** ****** ****** ******
      ****** ****** ****** ****** ****** ****** ****** ****** ****** ******
      ****** ****** ****** ****** ****** ****** ****** ****** ****** ******
  17  ****** ****** ****** ****** ****** ****** ****** ****** ****** ******
      ****** ****** ****** ****** ****** ****** ****** ****** ****** ******
      ****** ****** ****** ****** ****** ****** ****** ****** ****** ******
  18  ****** ****** ****** ****** ****** ****** ****** ****** ****** ******
      ****** ****** ****** ****** ****** ****** ****** ****** ****** ******
      ****** ****** ****** ****** ****** ****** ****** ****** ****** ******
  19  ****** ****** ****** ****** ****** ****** ****** ****** ****** ******
      ****** ****** ****** ****** ****** ****** ****** ****** ****** ******
      ****** ****** ****** ****** ****** ****** ****** ****** ****** ******
  20  ****** ****** ****** ****** ****** ****** ****** ****** ****** ******
      ****** ****** ****** ****** ****** ****** ****** ****** ****** ******
      ****** ****** ****** ****** ****** ****** ****** ****** ****** ******
  21  ****** ****** ****** ****** ****** ****** ****** ****** ****** ******
      ****** ****** ****** ****** ****** ****** ****** ****** ****** ******
      ****** ****** ****** ****** ****** ****** ****** ****** ****** ******
  22  ****** ****** ****** ****** ****** ****** ****** ****** ****** ******
      ****** ****** ****** ****** ****** ****** ****** ****** ****** ******
      ****** ****** ****** ****** ****** ****** ****** ****** ****** ******
  23  ****** ****** ****** ****** ****** ****** ****** ****** ****** ******
      ****** ****** ****** ****** ****** ****** ****** ****** ****** ******
      ****** ****** ****** ****** ****** ****** ****** ****** ****** ******
  24  ****** ****** ****** ****** ****** ****** ****** ****** ****** ******
      ****** ****** ****** ****** ****** ****** ****** ****** ****** ******
      ****** ****** ****** ****** ****** ****** ****** ****** ****** ******
  25  ****** ****** ****** ****** ****** ****** ****** ****** ****** ******
      ****** ****** ****** ****** ****** ****** ****** ****** ****** ******
      ****** ****** ****** ****** ****** ****** ****** ****** ****** ******

 HEAD WILL BE SAVED ON UNIT   51 AT END OF TIME STEP    1, STRESS PERIOD    8
1
  VOLUMETRIC BUDGET FOR ENTIRE MODEL AT END OF TIME STEP    1, STRESS PERIOD   8
  ------------------------------------------------------------------------------

     CUMULATIVE VOLUMES      L**3       RATES FOR THIS TIME STEP      L**3/T
     ------------------                 ------------------------

           IN:                                      IN:
           ---                                      ---
             STORAGE =    32171391.8736               STORAGE =        1271.5388
       CONSTANT HEAD =    18387694.7354         CONSTANT HEAD =       31533.3733
               WELLS =           0.0000                 WELLS =           0.0000
            RECHARGE =    17608800.0000              RECHARGE =       27600.0000
      STREAM LEAKAGE =    21856718.8296        STREAM LEAKAGE =       36360.9785

            TOTAL IN =    90024605.4386              TOTAL IN =       96765.8906

          OUT:                                     OUT:
          ----                                     ----
             STORAGE =      987452.1871               STORAGE =        1590.5822
       CONSTANT HEAD =           0.0000         CONSTANT HEAD =           0.0000
               WELLS =    38445173.6523                 WELLS =       52664.6214
            RECHARGE =           0.0000              RECHARGE =           0.0000
      STREAM LEAKAGE =    50591981.3293        STREAM LEAKAGE =       42510.6786

           TOTAL OUT =    90024607.1687             TOTAL OUT =       96765.8822

            IN - OUT =          -1.7300              IN - OUT =       8.4037E-03

 PERCENT DISCREPANCY =          -0.00     PERCENT DISCREPANCY =           0.00






         TIME SUMMARY AT END OF TIME STEP    1 IN STRESS PERIOD    8
                    SECONDS     MINUTES      HOURS       DAYS        YEARS
                    -----------------------------------------------------------
   TIME STEP LENGTH 7.86240E+06 1.31040E+05  2184.0      91.000     0.24914    
 STRESS PERIOD TIME 7.86240E+06 1.31040E+05  2184.0      91.000     0.24914    
         TOTAL TIME 6.30720E+07 1.05120E+06  17520.      730.00      1.9986    
1
1
                            STRESS PERIOD NO.    9, LENGTH =   92.00000    
                            -----------------------------------------------

                              NUMBER OF TIME STEPS =     1

                               MULTIPLIER FOR DELT =     1.500

                            INITIAL TIME STEP SIZE =   92.00000    

 WELL NO.  LAYER   ROW   COL   STRESS RATE         
 --------------------------------------------------
      1      1     14      6       0.000    
      2      1      3      9       0.000    
      3      1     20     10       0.000    
      4      1     14     20       0.000    
      5      1     10     29     -0.1299E+05
      6      1     15     21     -0.1317E+05
      7      1     19     29     -0.1184E+05
      8      1     17     29     -0.1466E+05

      8 WELLS

                 RECHARGE =  5.000000E-04

 REUSING STREAM SEGMENT DATA FROM LAST STRESS PERIOD
 
 SOLVING FOR HEAD 


     6 CALLS TO PCG ROUTINE FOR TIME STEP   1 IN STRESS PERIOD    9
    23 TOTAL ITERATIONS

 OUTPUT CONTROL FOR STRESS PERIOD    9   TIME STEP    1
    SAVE BUDGET
    SAVE HEAD FOR ALL LAYERS
    PRINT HEAD FOR ALL LAYERS
 UBDSV2 SAVING "STREAMFLOW OUT  " ON UNIT  50 AT TIME STEP  1, STRESS PERIOD   9



 STREAM LISTING     PERIOD      9   STEP        1

 LAYER ROW COL. STREAM  RCH.  FLOW INTO     FLOW TO   FLOW OUT OF   OVRLND.     DIRECT     STREAM       STREAM     STREAM     STREAM   STREAMBED  STREAMBED
                SEG.NO.  NO.  STRM. RCH.    AQUIFER    STRM. RCH.    RUNOFF     PRECIP       ET          HEAD       DEPTH      WIDTH   CONDCTNC.   GRADIENT

   1   13    1     1     1    1.0000E+05 -1.6932E+03   1.0169E+05  0.000E+00  0.000E+00  0.000E+00  4.84067E+01  1.454E-01  2.000E+01  2.000E+04 -8.466E-02
   1   13    2     1     2    1.0169E+05 -2.6411E+03   1.0433E+05  0.000E+00  0.000E+00  0.000E+00  4.79313E+01  1.473E-01  2.000E+01  2.000E+04 -1.321E-01
   1   14    3     1     3    1.0433E+05 -4.1081E+02   1.0475E+05  0.000E+00  0.000E+00  0.000E+00  4.74554E+01  1.486E-01  2.000E+01  2.000E+04 -2.054E-02
   1   15    4     1     4    1.0475E+05 -3.7972E+02   1.0512E+05  0.000E+00  0.000E+00  0.000E+00  4.69784E+01  1.489E-01  2.000E+01  2.000E+04 -1.899E-02
   1   16    5     1     5    1.0512E+05 -1.4517E+03   1.0658E+05  0.000E+00  0.000E+00  0.000E+00  4.65019E+01  1.497E-01  2.000E+01  2.000E+04 -7.259E-02
   1   16    6     1     6    1.0658E+05 -9.2895E+02   1.0751E+05  0.000E+00  0.000E+00  0.000E+00  4.60257E+01  1.507E-01  2.000E+01  2.000E+04 -4.645E-02
   1   16    7     1     7    1.0751E+05 -9.1417E+02   1.0842E+05  0.000E+00  0.000E+00  0.000E+00  4.55492E+01  1.515E-01  2.000E+01  2.000E+04 -4.571E-02
   1   16    8     1     8    1.0842E+05 -9.0864E+02   1.0933E+05  0.000E+00  0.000E+00  0.000E+00  4.50727E+01  1.522E-01  2.000E+01  2.000E+04 -4.543E-02
   1   16    9     1     9    1.0933E+05 -8.9624E+02   1.1022E+05  0.000E+00  0.000E+00  0.000E+00  4.45962E+01  1.530E-01  2.000E+01  2.000E+04 -4.481E-02
   1   16   10     1    10    1.1022E+05 -8.7545E+02   1.1110E+05  0.000E+00  0.000E+00  0.000E+00  4.41196E+01  1.537E-01  2.000E+01  2.000E+04 -4.377E-02
   1   16   11     1    11    1.1110E+05 -8.5906E+02   1.1196E+05  0.000E+00  0.000E+00  0.000E+00  4.36431E+01  1.544E-01  2.000E+01  2.000E+04 -4.295E-02
   1   16   12     1    12    1.1196E+05 -1.3913E+03   1.1335E+05  0.000E+00  0.000E+00  0.000E+00  4.31667E+01  1.554E-01  2.000E+01  2.000E+04 -6.957E-02
   1   15   13     1    13    1.1335E+05 -1.3026E+03   1.1465E+05  0.000E+00  0.000E+00  0.000E+00  4.26906E+01  1.565E-01  2.000E+01  2.000E+04 -6.513E-02
   1   14   14     1    14    1.1465E+05 -1.5535E+03   1.1621E+05  0.000E+00  0.000E+00  0.000E+00  4.22145E+01  1.577E-01  2.000E+01  2.000E+04 -7.767E-02
   1   13   15     1    15    1.1621E+05 -1.8743E+03   1.1808E+05  0.000E+00  0.000E+00  0.000E+00  4.17386E+01  1.591E-01  2.000E+01  2.000E+04 -9.371E-02
   1   12   16     1    16    1.1808E+05 -2.6651E+03   1.2075E+05  0.000E+00  0.000E+00  0.000E+00  4.12632E+01  1.609E-01  2.000E+01  2.000E+04 -1.333E-01
   1   12   17     1    17    1.2075E+05 -1.6139E+03   1.2236E+05  0.000E+00  0.000E+00  0.000E+00  4.07876E+01  1.626E-01  2.000E+01  2.000E+04 -8.069E-02
   1   12   18     1    18    1.2236E+05 -1.4696E+03   1.2383E+05  0.000E+00  0.000E+00  0.000E+00  4.03116E+01  1.639E-01  2.000E+01  2.000E+04 -7.348E-02
   1   12   19     1    19    1.2383E+05 -1.9967E+03   1.2583E+05  0.000E+00  0.000E+00  0.000E+00  3.98357E+01  1.652E-01  2.000E+01  2.000E+04 -9.984E-02
   1   13   20     1    20    1.2583E+05 -5.6183E+02   1.2639E+05  0.000E+00  0.000E+00  0.000E+00  3.93594E+01  1.663E-01  2.000E+01  2.000E+04 -2.809E-02
   1   14   21     1    21    1.2639E+05  4.2678E+03   1.2212E+05  0.000E+00  0.000E+00  0.000E+00  3.88807E+01  1.648E-01  2.000E+01  2.000E+04  2.134E-01
   1   14   22     1    22    1.2212E+05  5.8602E+03   1.1626E+05  0.000E+00  0.000E+00  0.000E+00  3.83994E+01  1.607E-01  2.000E+01  2.000E+04  2.930E-01
   1    9   30     2     1    5.0000E+04  2.1804E+03   4.7820E+04  0.000E+00  0.000E+00  0.000E+00  4.02393E+01  1.143E-01  2.000E+01  2.000E+04  1.090E-01
   1    9   29     2     2    4.7820E+04  4.1292E+03   4.3690E+04  0.000E+00  0.000E+00  0.000E+00  3.99849E+01  1.099E-01  2.000E+01  2.000E+04  2.065E-01
   1    9   28     2     3    4.3690E+04  9.5104E+02   4.2739E+04  0.000E+00  0.000E+00  0.000E+00  3.97312E+01  1.062E-01  2.000E+01  2.000E+04  4.755E-02
   1    9   27     2     4    4.2739E+04 -1.4910E+03   4.4230E+04  0.000E+00  0.000E+00  0.000E+00  3.94816E+01  1.066E-01  2.000E+01  2.000E+04 -7.455E-02
   1   10   26     2     5    4.4230E+04 -3.1903E+02   4.4549E+04  0.000E+00  0.000E+00  0.000E+00  3.92329E+01  1.079E-01  2.000E+01  2.000E+04 -1.595E-02
   1   11   25     2     6    4.4549E+04 -6.7524E+02   4.5225E+04  0.000E+00  0.000E+00  0.000E+00  3.89836E+01  1.086E-01  2.000E+01  2.000E+04 -3.376E-02
   1   12   24     2     7    4.5225E+04 -1.1893E+03   4.6414E+04  0.000E+00  0.000E+00  0.000E+00  3.87350E+01  1.100E-01  2.000E+01  2.000E+04 -5.947E-02
   1   13   23     2     8    4.6414E+04 -2.1010E+02   4.6624E+04  0.000E+00  0.000E+00  0.000E+00  3.84860E+01  1.110E-01  2.000E+01  2.000E+04 -1.050E-02
   1   14   22     2     9    4.6624E+04  2.5585E+03   4.4066E+04  0.000E+00  0.000E+00  0.000E+00  3.82343E+01  1.093E-01  2.000E+01  2.000E+04  1.279E-01
   1   14   22     3     1    1.6033E+05 -7.7829E+03   1.6811E+05  0.000E+00  0.000E+00  0.000E+00  3.77172E+01  1.616E-01  2.000E+01  2.000E+04 -3.891E-01
   1   15   23     3     2    1.6811E+05  1.1550E+02   1.6799E+05  0.000E+00  0.000E+00  0.000E+00  3.68306E+01  1.639E-01  2.000E+01  2.000E+04  5.775E-03
   1   15   24     3     3    1.6799E+05 -1.4268E+02   1.6814E+05  0.000E+00  0.000E+00  0.000E+00  3.59417E+01  1.639E-01  2.000E+01  2.000E+04 -7.134E-03
   1   15   25     3     4    1.6814E+05 -1.4760E+02   1.6828E+05  0.000E+00  0.000E+00  0.000E+00  3.50529E+01  1.640E-01  2.000E+01  2.000E+04 -7.380E-03
   1   15   26     3     5    1.6828E+05 -7.5406E+01   1.6836E+05  0.000E+00  0.000E+00  0.000E+00  3.41641E+01  1.641E-01  2.000E+01  2.000E+04 -3.770E-03
   1   16   27     3     6    1.6836E+05  1.9581E+02   1.6816E+05  0.000E+00  0.000E+00  0.000E+00  3.32751E+01  1.640E-01  2.000E+01  2.000E+04  9.791E-03
   1   17   28     3     7    1.6816E+05  6.2965E+03   1.6187E+05  0.000E+00  0.000E+00  0.000E+00  3.23843E+01  1.621E-01  2.000E+01  2.000E+04  3.148E-01
   1   18   29     3     8    1.6187E+05  8.4314E+03   1.5343E+05  0.000E+00  0.000E+00  0.000E+00  3.14911E+01  1.577E-01  2.000E+01  2.000E+04  4.216E-01
   1   18   30     3     9    1.5343E+05  2.5905E+03   1.5084E+05  0.000E+00  0.000E+00  0.000E+00  3.05988E+01  1.544E-01  2.000E+01  2.000E+04  1.295E-01



1
              HEAD IN LAYER   1 AT END OF TIME STEP   1 IN STRESS PERIOD    9
  ---------------------------------------------------------------------------

          1      2      3      4      5      6      7      8      9     10
         11     12     13     14     15     16     17     18     19     20
         21     22     23     24     25     26     27     28     29     30
 .........................................................................
   1  ****** ****** ****** ****** ****** ****** ****** ****** ****** ******
      ****** ****** ****** ****** ****** ****** ****** ****** ****** ******
      ****** ****** ****** ****** ****** ****** ****** ****** ****** ******
   2  ****** ****** ****** ****** ****** ****** ****** ****** ****** ******
      ****** ****** ****** ****** ****** ****** ****** ****** ****** ******
      ****** ****** ****** ****** ****** ****** ****** ****** ****** ******
   3  ****** ****** ****** ****** ****** ****** ****** ****** ****** ******
      ****** ****** ****** ****** ****** ****** ****** ****** ****** ******
      ****** ****** ****** ****** ****** ****** ****** ****** ****** ******
   4  ****** ****** ****** ****** ****** ****** ****** ****** ****** ******
      ****** ****** ****** ****** ****** ****** ****** ****** ****** ******
      ****** ****** ****** ****** ****** ****** ****** ****** ****** ******
   5  ****** ****** ****** ****** ****** ****** ****** ****** ****** ******
      ****** ****** ****** ****** ****** ****** ****** ****** ****** ******
      ****** ****** ****** ****** ****** ****** ****** ****** ****** ******
   6  ****** ****** ****** ****** ****** ****** ****** ****** ****** ******
      ****** ****** ****** ****** ****** ****** ****** ****** ****** ******
      ****** ****** ****** ****** ****** ****** ****** ****** ****** ******
   7  ****** ****** ****** ****** ****** ****** ****** ****** ****** ******
      ****** ****** ****** ****** ****** ****** ****** ****** ****** ******
      ****** ****** ****** ****** ****** ****** ****** ****** ****** ******
   8  ****** ****** ****** ****** ****** ****** ****** ****** ****** ******
      ****** ****** ****** ****** ****** ****** ****** ****** ****** ******
      ****** ****** ****** ****** ****** ****** ****** ****** ****** ******
   9  ****** ****** ****** ****** ****** ****** ****** ****** ****** ******
      ****** ****** ****** ****** ****** ****** ****** ****** ****** ******
      ****** ****** ****** ****** ****** ****** ****** ****** ****** ******
  10  ****** ****** ****** ****** ****** ****** ****** ****** ****** ******
      ****** ****** ****** ****** ****** ****** ****** ****** ****** ******
      ****** ****** ****** ****** ****** ****** ****** ****** ****** ******
  11  ****** ****** ****** ****** ****** ****** ****** ****** ****** ******
      ****** ****** ****** ****** ****** ****** ****** ****** ****** ******
      ****** ****** ****** ****** ****** ****** ****** ****** ****** ******
  12  ****** ****** ****** ****** ****** ****** ****** ****** ****** ******
      ****** ****** ****** ****** ****** ****** ****** ****** ****** ******
      ****** ****** ****** ****** ****** ****** ****** ****** ****** ******
  13  ****** ****** ****** ****** ****** ****** ****** ****** ****** ******
      ****** ****** ****** ****** ****** ****** ****** ****** ****** ******
      ****** ****** ****** ****** ****** ****** ****** ****** ****** ******
  14  ****** ****** ****** ****** ****** ****** ****** ****** ****** ******
      ****** ****** ****** ****** ****** ****** ****** ****** ****** ******
      ****** ****** ****** ****** ****** ****** ****** ****** ****** ******
  15  ****** ****** ****** ****** ****** ****** ****** ****** ****** ******
      ****** ****** ****** ****** ****** ****** ****** ****** ****** ******
      ****** ****** ****** ****** ****** ****** ****** ****** ****** ******
  16  ****** ****** ****** ****** ****** ****** ****** ****** ****** ******
      ****** ****** ****** ****** ****** ****** ****** ****** ****** ******
      ****** ****** ****** ****** ****** ****** ****** ****** ****** ******
  17  ****** ****** ****** ****** ****** ****** ****** ****** ****** ******
      ****** ****** ****** ****** ****** ****** ****** ****** ****** ******
      ****** ****** ****** ****** ****** ****** ****** ****** ****** ******
  18  ****** ****** ****** ****** ****** ****** ****** ****** ****** ******
      ****** ****** ****** ****** ****** ****** ****** ****** ****** ******
      ****** ****** ****** ****** ****** ****** ****** ****** ****** ******
  19  ****** ****** ****** ****** ****** ****** ****** ****** ****** ******
      ****** ****** ****** ****** ****** ****** ****** ****** ****** ******
      ****** ****** ****** ****** ****** ****** ****** ****** ****** ******
  20  ****** ****** ****** ****** ****** ****** ****** ****** ****** ******
      ****** ****** ****** ****** ****** ****** ****** ****** ****** ******
      ****** ****** ****** ****** ****** ****** ****** ****** ****** ******
  21  ****** ****** ****** ****** ****** ****** ****** ****** ****** ******
      ****** ****** ****** ****** ****** ****** ****** ****** ****** ******
      ****** ****** ****** ****** ****** ****** ****** ****** ****** ******
  22  ****** ****** ****** ****** ****** ****** ****** ****** ****** ******
      ****** ****** ****** ****** ****** ****** ****** ****** ****** ******
      ****** ****** ****** ****** ****** ****** ****** ****** ****** ******
  23  ****** ****** ****** ****** ****** ****** ****** ****** ****** ******
      ****** ****** ****** ****** ****** ****** ****** ****** ****** ******
      ****** ****** ****** ****** ****** ****** ****** ****** ****** ******
  24  ****** ****** ****** ****** ****** ****** ****** ****** ****** ******
      ****** ****** ****** ****** ****** ****** ****** ****** ****** ******
      ****** ****** ****** ****** ****** ****** ****** ****** ****** ******
  25  ****** ****** ****** ****** ****** ****** ****** ****** ****** ******
      ****** ****** ****** ****** ****** ****** ****** ****** ****** ******
      ****** ****** ****** ****** ****** ****** ****** ****** ****** ******

 HEAD WILL BE SAVED ON UNIT   51 AT END OF TIME STEP    1, STRESS PERIOD    9
1
  VOLUMETRIC BUDGET FOR ENTIRE MODEL AT END OF TIME STEP    1, STRESS PERIOD   9
  ------------------------------------------------------------------------------

     CUMULATIVE VOLUMES      L**3       RATES FOR THIS TIME STEP      L**3/T
     ------------------                 ------------------------

           IN:                                      IN:
           ---                                      ---
             STORAGE =    32818087.0540               STORAGE =        7029.2954
       CONSTANT HEAD =    21394220.1434         CONSTANT HEAD =       32679.6240
               WELLS =           0.0000                 WELLS =           0.0000
            RECHARGE =    18878400.0000              RECHARGE =       13800.0000
      STREAM LEAKAGE =    25313791.6580        STREAM LEAKAGE =       37576.8786

            TOTAL IN =    98404498.8554              TOTAL IN =       91085.7980

          OUT:                                     OUT:
          ----                                     ----
             STORAGE =      987452.1871               STORAGE =           0.0000
       CONSTANT HEAD =           0.0000         CONSTANT HEAD =           0.0000
               WELLS =    43290318.8249                 WELLS =       52664.6214
            RECHARGE =           0.0000              RECHARGE =           0.0000
      STREAM LEAKAGE =    54126729.6401        STREAM LEAKAGE =       38421.1773

           TOTAL OUT =    98404500.6520             TOTAL OUT =       91085.7987

            IN - OUT =          -1.7966              IN - OUT =      -7.2366E-04

 PERCENT DISCREPANCY =          -0.00     PERCENT DISCREPANCY =          -0.00






         TIME SUMMARY AT END OF TIME STEP    1 IN STRESS PERIOD    9
                    SECONDS     MINUTES      HOURS       DAYS        YEARS
                    -----------------------------------------------------------
   TIME STEP LENGTH 7.94880E+06 1.32480E+05  2208.0      92.000     0.25188    
 STRESS PERIOD TIME 7.94880E+06 1.32480E+05  2208.0      92.000     0.25188    
         TOTAL TIME 7.10208E+07 1.18368E+06  19728.      822.00      2.2505    
1
1
                            STRESS PERIOD NO.   10, LENGTH =   91.00000    
                            -----------------------------------------------

                              NUMBER OF TIME STEPS =     1

                               MULTIPLIER FOR DELT =     1.500

                            INITIAL TIME STEP SIZE =   91.00000    

 WELL NO.  LAYER   ROW   COL   STRESS RATE         
 --------------------------------------------------
      1      1     14      6       0.000    
      2      1      3      9       0.000    
      3      1     20     10       0.000    
      4      1     14     20       0.000    
      5      1     10     29     -0.1299E+05
      6      1     15     21     -0.1317E+05
      7      1     19     29     -0.1184E+05
      8      1     17     29     -0.1466E+05

      8 WELLS

                 RECHARGE =  2.000000E-03

 REUSING STREAM SEGMENT DATA FROM LAST STRESS PERIOD
 
 SOLVING FOR HEAD 


     7 CALLS TO PCG ROUTINE FOR TIME STEP   1 IN STRESS PERIOD   10
    26 TOTAL ITERATIONS

 OUTPUT CONTROL FOR STRESS PERIOD   10   TIME STEP    1
    SAVE BUDGET
    SAVE HEAD FOR ALL LAYERS
    PRINT HEAD FOR ALL LAYERS
 UBDSV2 SAVING "STREAMFLOW OUT  " ON UNIT  50 AT TIME STEP  1, STRESS PERIOD  10



 STREAM LISTING     PERIOD     10   STEP        1

 LAYER ROW COL. STREAM  RCH.  FLOW INTO     FLOW TO   FLOW OUT OF   OVRLND.     DIRECT     STREAM       STREAM     STREAM     STREAM   STREAMBED  STREAMBED
                SEG.NO.  NO.  STRM. RCH.    AQUIFER    STRM. RCH.    RUNOFF     PRECIP       ET          HEAD       DEPTH      WIDTH   CONDCTNC.   GRADIENT

   1   13    1     1     1    1.0000E+05 -2.1495E+03   1.0215E+05  0.000E+00  0.000E+00  0.000E+00  4.84069E+01  1.456E-01  2.000E+01  2.000E+04 -1.075E-01
   1   13    2     1     2    1.0215E+05 -3.1470E+03   1.0530E+05  0.000E+00  0.000E+00  0.000E+00  4.79320E+01  1.479E-01  2.000E+01  2.000E+04 -1.573E-01
   1   14    3     1     3    1.0530E+05 -5.9799E+02   1.0589E+05  0.000E+00  0.000E+00  0.000E+00  4.74563E+01  1.495E-01  2.000E+01  2.000E+04 -2.990E-02
   1   15    4     1     4    1.0589E+05 -5.7968E+02   1.0647E+05  0.000E+00  0.000E+00  0.000E+00  4.69795E+01  1.500E-01  2.000E+01  2.000E+04 -2.898E-02
   1   16    5     1     5    1.0647E+05 -2.0711E+03   1.0855E+05  0.000E+00  0.000E+00  0.000E+00  4.65033E+01  1.511E-01  2.000E+01  2.000E+04 -1.036E-01
   1   16    6     1     6    1.0855E+05 -1.2917E+03   1.0984E+05  0.000E+00  0.000E+00  0.000E+00  4.60275E+01  1.525E-01  2.000E+01  2.000E+04 -6.458E-02
   1   16    7     1     7    1.0984E+05 -1.2591E+03   1.1110E+05  0.000E+00  0.000E+00  0.000E+00  4.55513E+01  1.536E-01  2.000E+01  2.000E+04 -6.296E-02
   1   16    8     1     8    1.1110E+05 -1.2481E+03   1.1234E+05  0.000E+00  0.000E+00  0.000E+00  4.50751E+01  1.546E-01  2.000E+01  2.000E+04 -6.241E-02
   1   16    9     1     9    1.1234E+05 -1.2341E+03   1.1358E+05  0.000E+00  0.000E+00  0.000E+00  4.45988E+01  1.556E-01  2.000E+01  2.000E+04 -6.171E-02
   1   16   10     1    10    1.1358E+05 -1.2134E+03   1.1479E+05  0.000E+00  0.000E+00  0.000E+00  4.41225E+01  1.566E-01  2.000E+01  2.000E+04 -6.067E-02
   1   16   11     1    11    1.1479E+05 -1.2003E+03   1.1599E+05  0.000E+00  0.000E+00  0.000E+00  4.36463E+01  1.576E-01  2.000E+01  2.000E+04 -6.002E-02
   1   16   12     1    12    1.1599E+05 -1.9611E+03   1.1795E+05  0.000E+00  0.000E+00  0.000E+00  4.31703E+01  1.589E-01  2.000E+01  2.000E+04 -9.806E-02
   1   15   13     1    13    1.1795E+05 -1.8904E+03   1.1984E+05  0.000E+00  0.000E+00  0.000E+00  4.26946E+01  1.605E-01  2.000E+01  2.000E+04 -9.452E-02
   1   14   14     1    14    1.1984E+05 -2.1492E+03   1.2199E+05  0.000E+00  0.000E+00  0.000E+00  4.22189E+01  1.621E-01  2.000E+01  2.000E+04 -1.075E-01
   1   13   15     1    15    1.2199E+05 -2.4605E+03   1.2445E+05  0.000E+00  0.000E+00  0.000E+00  4.17435E+01  1.640E-01  2.000E+01  2.000E+04 -1.230E-01
   1   12   16     1    16    1.2445E+05 -3.2310E+03   1.2768E+05  0.000E+00  0.000E+00  0.000E+00  4.12685E+01  1.662E-01  2.000E+01  2.000E+04 -1.615E-01
   1   12   17     1    17    1.2768E+05 -2.0413E+03   1.2973E+05  0.000E+00  0.000E+00  0.000E+00  4.07933E+01  1.683E-01  2.000E+01  2.000E+04 -1.021E-01
   1   12   18     1    18    1.2973E+05 -1.8927E+03   1.3162E+05  0.000E+00  0.000E+00  0.000E+00  4.03176E+01  1.698E-01  2.000E+01  2.000E+04 -9.463E-02
   1   12   19     1    19    1.3162E+05 -2.5173E+03   1.3414E+05  0.000E+00  0.000E+00  0.000E+00  3.98420E+01  1.716E-01  2.000E+01  2.000E+04 -1.259E-01
   1   13   20     1    20    1.3414E+05 -1.0840E+03   1.3522E+05  0.000E+00  0.000E+00  0.000E+00  3.93661E+01  1.729E-01  2.000E+01  2.000E+04 -5.420E-02
   1   14   21     1    21    1.3522E+05  3.7426E+03   1.3148E+05  0.000E+00  0.000E+00  0.000E+00  3.88878E+01  1.719E-01  2.000E+01  2.000E+04  1.871E-01
   1   14   22     1    22    1.3148E+05  5.7298E+03   1.2575E+05  0.000E+00  0.000E+00  0.000E+00  3.84069E+01  1.682E-01  2.000E+01  2.000E+04  2.865E-01
   1    9   30     2     1    5.0000E+04  1.7657E+03   4.8234E+04  0.000E+00  0.000E+00  0.000E+00  4.02396E+01  1.146E-01  2.000E+01  2.000E+04  8.828E-02
   1    9   29     2     2    4.8234E+04  3.7167E+03   4.4518E+04  0.000E+00  0.000E+00  0.000E+00  3.99858E+01  1.108E-01  2.000E+01  2.000E+04  1.858E-01
   1    9   28     2     3    4.4518E+04  5.3932E+02   4.3978E+04  0.000E+00  0.000E+00  0.000E+00  3.97327E+01  1.077E-01  2.000E+01  2.000E+04  2.697E-02
   1    9   27     2     4    4.3978E+04 -2.0451E+03   4.6023E+04  0.000E+00  0.000E+00  0.000E+00  3.94838E+01  1.088E-01  2.000E+01  2.000E+04 -1.023E-01
   1   10   26     2     5    4.6023E+04 -8.7297E+02   4.6896E+04  0.000E+00  0.000E+00  0.000E+00  3.92359E+01  1.109E-01  2.000E+01  2.000E+04 -4.365E-02
   1   11   25     2     6    4.6896E+04 -1.2046E+03   4.8101E+04  0.000E+00  0.000E+00  0.000E+00  3.89874E+01  1.124E-01  2.000E+01  2.000E+04 -6.023E-02
   1   12   24     2     7    4.8101E+04 -1.6684E+03   4.9769E+04  0.000E+00  0.000E+00  0.000E+00  3.87394E+01  1.144E-01  2.000E+01  2.000E+04 -8.342E-02
   1   13   23     2     8    4.9769E+04 -3.5890E+02   5.0128E+04  0.000E+00  0.000E+00  0.000E+00  3.84908E+01  1.158E-01  2.000E+01  2.000E+04 -1.794E-02
   1   14   22     2     9    5.0128E+04  2.3802E+03   4.7748E+04  0.000E+00  0.000E+00  0.000E+00  3.82394E+01  1.144E-01  2.000E+01  2.000E+04  1.190E-01
   1   14   22     3     1    1.7350E+05 -7.9096E+03   1.8140E+05  0.000E+00  0.000E+00  0.000E+00  3.77249E+01  1.693E-01  2.000E+01  2.000E+04 -3.955E-01
   1   15   23     3     2    1.8140E+05 -4.6949E+01   1.8145E+05  0.000E+00  0.000E+00  0.000E+00  3.68383E+01  1.716E-01  2.000E+01  2.000E+04 -2.347E-03
   1   15   24     3     3    1.8145E+05 -2.7980E+02   1.8173E+05  0.000E+00  0.000E+00  0.000E+00  3.59495E+01  1.717E-01  2.000E+01  2.000E+04 -1.399E-02
   1   15   25     3     4    1.8173E+05 -2.8813E+02   1.8202E+05  0.000E+00  0.000E+00  0.000E+00  3.50607E+01  1.719E-01  2.000E+01  2.000E+04 -1.441E-02
   1   15   26     3     5    1.8202E+05 -2.3761E+02   1.8226E+05  0.000E+00  0.000E+00  0.000E+00  3.41720E+01  1.720E-01  2.000E+01  2.000E+04 -1.188E-02
   1   16   27     3     6    1.8226E+05  1.0012E+01   1.8225E+05  0.000E+00  0.000E+00  0.000E+00  3.32832E+01  1.721E-01  2.000E+01  2.000E+04  5.006E-04
   1   17   28     3     7    1.8225E+05  5.7760E+03   1.7647E+05  0.000E+00  0.000E+00  0.000E+00  3.23926E+01  1.704E-01  2.000E+01  2.000E+04  2.888E-01
   1   18   29     3     8    1.7647E+05  7.8805E+03   1.6859E+05  0.000E+00  0.000E+00  0.000E+00  3.14998E+01  1.665E-01  2.000E+01  2.000E+04  3.940E-01
   1   18   30     3     9    1.6859E+05  2.1657E+03   1.6642E+05  0.000E+00  0.000E+00  0.000E+00  3.06080E+01  1.636E-01  2.000E+01  2.000E+04  1.083E-01



1
              HEAD IN LAYER   1 AT END OF TIME STEP   1 IN STRESS PERIOD   10
  ---------------------------------------------------------------------------

          1      2      3      4      5      6      7      8      9     10
         11     12     13     14     15     16     17     18     19     20
         21     22     23     24     25     26     27     28     29     30
 .........................................................................
   1  ****** ****** ****** ****** ****** ****** ****** ****** ****** ******
      ****** ****** ****** ****** ****** ****** ****** ****** ****** ******
      ****** ****** ****** ****** ****** ****** ****** ****** ****** ******
   2  ****** ****** ****** ****** ****** ****** ****** ****** ****** ******
      ****** ****** ****** ****** ****** ****** ****** ****** ****** ******
      ****** ****** ****** ****** ****** ****** ****** ****** ****** ******
   3  ****** ****** ****** ****** ****** ****** ****** ****** ****** ******
      ****** ****** ****** ****** ****** ****** ****** ****** ****** ******
      ****** ****** ****** ****** ****** ****** ****** ****** ****** ******
   4  ****** ****** ****** ****** ****** ****** ****** ****** ****** ******
      ****** ****** ****** ****** ****** ****** ****** ****** ****** ******
      ****** ****** ****** ****** ****** ****** ****** ****** ****** ******
   5  ****** ****** ****** ****** ****** ****** ****** ****** ****** ******
      ****** ****** ****** ****** ****** ****** ****** ****** ****** ******
      ****** ****** ****** ****** ****** ****** ****** ****** ****** ******
   6  ****** ****** ****** ****** ****** ****** ****** ****** ****** ******
      ****** ****** ****** ****** ****** ****** ****** ****** ****** ******
      ****** ****** ****** ****** ****** ****** ****** ****** ****** ******
   7  ****** ****** ****** ****** ****** ****** ****** ****** ****** ******
      ****** ****** ****** ****** ****** ****** ****** ****** ****** ******
      ****** ****** ****** ****** ****** ****** ****** ****** ****** ******
   8  ****** ****** ****** ****** ****** ****** ****** ****** ****** ******
      ****** ****** ****** ****** ****** ****** ****** ****** ****** ******
      ****** ****** ****** ****** ****** ****** ****** ****** ****** ******
   9  ****** ****** ****** ****** ****** ****** ****** ****** ****** ******
      ****** ****** ****** ****** ****** ****** ****** ****** ****** ******
      ****** ****** ****** ****** ****** ****** ****** ****** ****** ******
  10  ****** ****** ****** ****** ****** ****** ****** ****** ****** ******
      ****** ****** ****** ****** ****** ****** ****** ****** ****** ******
      ****** ****** ****** ****** ****** ****** ****** ****** ****** ******
  11  ****** ****** ****** ****** ****** ****** ****** ****** ****** ******
      ****** ****** ****** ****** ****** ****** ****** ****** ****** ******
      ****** ****** ****** ****** ****** ****** ****** ****** ****** ******
  12  ****** ****** ****** ****** ****** ****** ****** ****** ****** ******
      ****** ****** ****** ****** ****** ****** ****** ****** ****** ******
      ****** ****** ****** ****** ****** ****** ****** ****** ****** ******
  13  ****** ****** ****** ****** ****** ****** ****** ****** ****** ******
      ****** ****** ****** ****** ****** ****** ****** ****** ****** ******
      ****** ****** ****** ****** ****** ****** ****** ****** ****** ******
  14  ****** ****** ****** ****** ****** ****** ****** ****** ****** ******
      ****** ****** ****** ****** ****** ****** ****** ****** ****** ******
      ****** ****** ****** ****** ****** ****** ****** ****** ****** ******
  15  ****** ****** ****** ****** ****** ****** ****** ****** ****** ******
      ****** ****** ****** ****** ****** ****** ****** ****** ****** ******
      ****** ****** ****** ****** ****** ****** ****** ****** ****** ******
  16  ****** ****** ****** ****** ****** ****** ****** ****** ****** ******
      ****** ****** ****** ****** ****** ****** ****** ****** ****** ******
      ****** ****** ****** ****** ****** ****** ****** ****** ****** ******
  17  ****** ****** ****** ****** ****** ****** ****** ****** ****** ******
      ****** ****** ****** ****** ****** ****** ****** ****** ****** ******
      ****** ****** ****** ****** ****** ****** ****** ****** ****** ******
  18  ****** ****** ****** ****** ****** ****** ****** ****** ****** ******
      ****** ****** ****** ****** ****** ****** ****** ****** ****** ******
      ****** ****** ****** ****** ****** ****** ****** ****** ****** ******
  19  ****** ****** ****** ****** ****** ****** ****** ****** ****** ******
      ****** ****** ****** ****** ****** ****** ****** ****** ****** ******
      ****** ****** ****** ****** ****** ****** ****** ****** ****** ******
  20  ****** ****** ****** ****** ****** ****** ****** ****** ****** ******
      ****** ****** ****** ****** ****** ****** ****** ****** ****** ******
      ****** ****** ****** ****** ****** ****** ****** ****** ****** ******
  21  ****** ****** ****** ****** ****** ****** ****** ****** ****** ******
      ****** ****** ****** ****** ****** ****** ****** ****** ****** ******
      ****** ****** ****** ****** ****** ****** ****** ****** ****** ******
  22  ****** ****** ****** ****** ****** ****** ****** ****** ****** ******
      ****** ****** ****** ****** ****** ****** ****** ****** ****** ******
      ****** ****** ****** ****** ****** ****** ****** ****** ****** ******
  23  ****** ****** ****** ****** ****** ****** ****** ****** ****** ******
      ****** ****** ****** ****** ****** ****** ****** ****** ****** ******
      ****** ****** ****** ****** ****** ****** ****** ****** ****** ******
  24  ****** ****** ****** ****** ****** ****** ****** ****** ****** ******
      ****** ****** ****** ****** ****** ****** ****** ****** ****** ******
      ****** ****** ****** ****** ****** ****** ****** ****** ****** ******
  25  ****** ****** ****** ****** ****** ****** ****** ****** ****** ******
      ****** ****** ****** ****** ****** ****** ****** ****** ****** ******
      ****** ****** ****** ****** ****** ****** ****** ****** ****** ******

 HEAD WILL BE SAVED ON UNIT   51 AT END OF TIME STEP    1, STRESS PERIOD   10
1
  VOLUMETRIC BUDGET FOR ENTIRE MODEL AT END OF TIME STEP    1, STRESS PERIOD  10
  ------------------------------------------------------------------------------

     CUMULATIVE VOLUMES      L**3       RATES FOR THIS TIME STEP      L**3/T
     ------------------                 ------------------------

           IN:                                      IN:
           ---                                      ---
             STORAGE =    32818087.0540               STORAGE =           0.0000
       CONSTANT HEAD =    24097988.5157         CONSTANT HEAD =       29711.7404
               WELLS =           0.0000                 WELLS =           0.0000
            RECHARGE =    23901600.0000              RECHARGE =       55200.0000
      STREAM LEAKAGE =    28381085.6727        STREAM LEAKAGE =       33706.5276

            TOTAL IN =   109198761.2424              TOTAL IN =      118618.2680

          OUT:                                     OUT:
          ----                                     ----
             STORAGE =     2427266.4643               STORAGE =       15822.1349
       CONSTANT HEAD =           0.0000         CONSTANT HEAD =           0.0000
               WELLS =    48082799.3761                 WELLS =       52664.6214
            RECHARGE =           0.0000              RECHARGE =           0.0000
      STREAM LEAKAGE =    58688696.9274        STREAM LEAKAGE =       50131.5087

           TOTAL OUT =   109198762.7677             TOTAL OUT =      118618.2650

            IN - OUT =          -1.5253              IN - OUT =       2.9813E-03

 PERCENT DISCREPANCY =          -0.00     PERCENT DISCREPANCY =           0.00






         TIME SUMMARY AT END OF TIME STEP    1 IN STRESS PERIOD   10
                    SECONDS     MINUTES      HOURS       DAYS        YEARS
                    -----------------------------------------------------------
   TIME STEP LENGTH 7.86240E+06 1.31040E+05  2184.0      91.000     0.24914    
 STRESS PERIOD TIME 7.86240E+06 1.31040E+05  2184.0      91.000     0.24914    
         TOTAL TIME 7.88832E+07 1.31472E+06  21912.      913.00      2.4997    
1
1
                            STRESS PERIOD NO.   11, LENGTH =   91.00000    
                            -----------------------------------------------

                              NUMBER OF TIME STEPS =     1

                               MULTIPLIER FOR DELT =     1.500

                            INITIAL TIME STEP SIZE =   91.00000    

 WELL NO.  LAYER   ROW   COL   STRESS RATE         
 --------------------------------------------------
      1      1     14      6       0.000    
      2      1      3      9       0.000    
      3      1     20     10       0.000    
      4      1     14     20       0.000    
      5      1     10     29     -0.1299E+05
      6      1     15     21     -0.1317E+05
      7      1     19     29     -0.1184E+05
      8      1     17     29     -0.1466E+05

      8 WELLS

                 RECHARGE =   0.00000    

 REUSING STREAM SEGMENT DATA FROM LAST STRESS PERIOD
 
 SOLVING FOR HEAD 


     7 CALLS TO PCG ROUTINE FOR TIME STEP   1 IN STRESS PERIOD   11
    26 TOTAL ITERATIONS

 OUTPUT CONTROL FOR STRESS PERIOD   11   TIME STEP    1
    SAVE BUDGET
    SAVE HEAD FOR ALL LAYERS
    PRINT HEAD FOR ALL LAYERS
 UBDSV2 SAVING "STREAMFLOW OUT  " ON UNIT  50 AT TIME STEP  1, STRESS PERIOD  11



 STREAM LISTING     PERIOD     11   STEP        1

 LAYER ROW COL. STREAM  RCH.  FLOW INTO     FLOW TO   FLOW OUT OF   OVRLND.     DIRECT     STREAM       STREAM     STREAM     STREAM   STREAMBED  STREAMBED
                SEG.NO.  NO.  STRM. RCH.    AQUIFER    STRM. RCH.    RUNOFF     PRECIP       ET          HEAD       DEPTH      WIDTH   CONDCTNC.   GRADIENT

   1   13    1     1     1    1.0000E+05 -1.5845E+03   1.0158E+05  0.000E+00  0.000E+00  0.000E+00  4.84067E+01  1.453E-01  2.000E+01  2.000E+04 -7.923E-02
   1   13    2     1     2    1.0158E+05 -2.5181E+03   1.0410E+05  0.000E+00  0.000E+00  0.000E+00  4.79312E+01  1.471E-01  2.000E+01  2.000E+04 -1.259E-01
   1   14    3     1     3    1.0410E+05 -3.6760E+02   1.0447E+05  0.000E+00  0.000E+00  0.000E+00  4.74552E+01  1.483E-01  2.000E+01  2.000E+04 -1.838E-02
   1   15    4     1     4    1.0447E+05 -3.3818E+02   1.0481E+05  0.000E+00  0.000E+00  0.000E+00  4.69782E+01  1.486E-01  2.000E+01  2.000E+04 -1.691E-02
   1   16    5     1     5    1.0481E+05 -1.3836E+03   1.0619E+05  0.000E+00  0.000E+00  0.000E+00  4.65016E+01  1.494E-01  2.000E+01  2.000E+04 -6.918E-02
   1   16    6     1     6    1.0619E+05 -8.7775E+02   1.0707E+05  0.000E+00  0.000E+00  0.000E+00  4.60253E+01  1.503E-01  2.000E+01  2.000E+04 -4.389E-02
   1   16    7     1     7    1.0707E+05 -8.6284E+02   1.0793E+05  0.000E+00  0.000E+00  0.000E+00  4.55488E+01  1.511E-01  2.000E+01  2.000E+04 -4.314E-02
   1   16    8     1     8    1.0793E+05 -8.5735E+02   1.0879E+05  0.000E+00  0.000E+00  0.000E+00  4.50722E+01  1.518E-01  2.000E+01  2.000E+04 -4.287E-02
   1   16    9     1     9    1.0879E+05 -8.4552E+02   1.0964E+05  0.000E+00  0.000E+00  0.000E+00  4.45957E+01  1.525E-01  2.000E+01  2.000E+04 -4.228E-02
   1   16   10     1    10    1.0964E+05 -8.2579E+02   1.1046E+05  0.000E+00  0.000E+00  0.000E+00  4.41191E+01  1.532E-01  2.000E+01  2.000E+04 -4.129E-02
   1   16   11     1    11    1.1046E+05 -8.1078E+02   1.1127E+05  0.000E+00  0.000E+00  0.000E+00  4.36425E+01  1.539E-01  2.000E+01  2.000E+04 -4.054E-02
   1   16   12     1    12    1.1127E+05 -1.3158E+03   1.1259E+05  0.000E+00  0.000E+00  0.000E+00  4.31661E+01  1.548E-01  2.000E+01  2.000E+04 -6.579E-02
   1   15   13     1    13    1.1259E+05 -1.2028E+03   1.1379E+05  0.000E+00  0.000E+00  0.000E+00  4.26899E+01  1.558E-01  2.000E+01  2.000E+04 -6.014E-02
   1   14   14     1    14    1.1379E+05 -1.4443E+03   1.1524E+05  0.000E+00  0.000E+00  0.000E+00  4.22137E+01  1.569E-01  2.000E+01  2.000E+04 -7.222E-02
   1   13   15     1    15    1.1524E+05 -1.7617E+03   1.1700E+05  0.000E+00  0.000E+00  0.000E+00  4.17378E+01  1.582E-01  2.000E+01  2.000E+04 -8.808E-02
   1   12   16     1    16    1.1700E+05 -2.5563E+03   1.1955E+05  0.000E+00  0.000E+00  0.000E+00  4.12623E+01  1.600E-01  2.000E+01  2.000E+04 -1.278E-01
   1   12   17     1    17    1.1955E+05 -1.5359E+03   1.2109E+05  0.000E+00  0.000E+00  0.000E+00  4.07866E+01  1.616E-01  2.000E+01  2.000E+04 -7.680E-02
   1   12   18     1    18    1.2109E+05 -1.3947E+03   1.2248E+05  0.000E+00  0.000E+00  0.000E+00  4.03105E+01  1.628E-01  2.000E+01  2.000E+04 -6.973E-02
   1   12   19     1    19    1.2248E+05 -1.9059E+03   1.2439E+05  0.000E+00  0.000E+00  0.000E+00  3.98346E+01  1.641E-01  2.000E+01  2.000E+04 -9.530E-02
   1   13   20     1    20    1.2439E+05 -4.7202E+02   1.2486E+05  0.000E+00  0.000E+00  0.000E+00  3.93583E+01  1.651E-01  2.000E+01  2.000E+04 -2.360E-02
   1   14   21     1    21    1.2486E+05  4.3396E+03   1.2052E+05  0.000E+00  0.000E+00  0.000E+00  3.88794E+01  1.635E-01  2.000E+01  2.000E+04  2.170E-01
   1   14   22     1    22    1.2052E+05  5.8807E+03   1.1464E+05  0.000E+00  0.000E+00  0.000E+00  3.83981E+01  1.594E-01  2.000E+01  2.000E+04  2.940E-01
   1    9   30     2     1    5.0000E+04  2.2534E+03   4.7747E+04  0.000E+00  0.000E+00  0.000E+00  4.02393E+01  1.143E-01  2.000E+01  2.000E+04  1.127E-01
   1    9   29     2     2    4.7747E+04  4.2013E+03   4.3545E+04  0.000E+00  0.000E+00  0.000E+00  3.99847E+01  1.097E-01  2.000E+01  2.000E+04  2.101E-01
   1    9   28     2     3    4.3545E+04  1.0217E+03   4.2524E+04  0.000E+00  0.000E+00  0.000E+00  3.97309E+01  1.059E-01  2.000E+01  2.000E+04  5.108E-02
   1    9   27     2     4    4.2524E+04 -1.4064E+03   4.3930E+04  0.000E+00  0.000E+00  0.000E+00  3.94812E+01  1.062E-01  2.000E+01  2.000E+04 -7.032E-02
   1   10   26     2     5    4.3930E+04 -2.1968E+02   4.4150E+04  0.000E+00  0.000E+00  0.000E+00  3.92324E+01  1.074E-01  2.000E+01  2.000E+04 -1.098E-02
   1   11   25     2     6    4.4150E+04 -5.7508E+02   4.4725E+04  0.000E+00  0.000E+00  0.000E+00  3.89829E+01  1.079E-01  2.000E+01  2.000E+04 -2.875E-02
   1   12   24     2     7    4.4725E+04 -1.0960E+03   4.5821E+04  0.000E+00  0.000E+00  0.000E+00  3.87342E+01  1.092E-01  2.000E+01  2.000E+04 -5.480E-02
   1   13   23     2     8    4.5821E+04 -1.7322E+02   4.5994E+04  0.000E+00  0.000E+00  0.000E+00  3.84851E+01  1.101E-01  2.000E+01  2.000E+04 -8.661E-03
   1   14   22     2     9    4.5994E+04  2.5863E+03   4.3408E+04  0.000E+00  0.000E+00  0.000E+00  3.82333E+01  1.083E-01  2.000E+01  2.000E+04  1.293E-01
   1   14   22     3     1    1.5805E+05 -7.7635E+03   1.6581E+05  0.000E+00  0.000E+00  0.000E+00  3.77158E+01  1.603E-01  2.000E+01  2.000E+04 -3.882E-01
   1   15   23     3     2    1.6581E+05  1.4511E+02   1.6567E+05  0.000E+00  0.000E+00  0.000E+00  3.68292E+01  1.625E-01  2.000E+01  2.000E+04  7.255E-03
   1   15   24     3     3    1.6567E+05 -1.1466E+02   1.6578E+05  0.000E+00  0.000E+00  0.000E+00  3.59403E+01  1.625E-01  2.000E+01  2.000E+04 -5.733E-03
   1   15   25     3     4    1.6578E+05 -1.1916E+02   1.6590E+05  0.000E+00  0.000E+00  0.000E+00  3.50515E+01  1.626E-01  2.000E+01  2.000E+04 -5.958E-03
   1   15   26     3     5    1.6590E+05 -4.1919E+01   1.6594E+05  0.000E+00  0.000E+00  0.000E+00  3.41626E+01  1.626E-01  2.000E+01  2.000E+04 -2.096E-03
   1   16   27     3     6    1.6594E+05  2.3304E+02   1.6571E+05  0.000E+00  0.000E+00  0.000E+00  3.32737E+01  1.626E-01  2.000E+01  2.000E+04  1.165E-02
   1   17   28     3     7    1.6571E+05  6.3858E+03   1.5932E+05  0.000E+00  0.000E+00  0.000E+00  3.23829E+01  1.606E-01  2.000E+01  2.000E+04  3.193E-01
   1   18   29     3     8    1.5932E+05  8.5025E+03   1.5082E+05  0.000E+00  0.000E+00  0.000E+00  3.14895E+01  1.562E-01  2.000E+01  2.000E+04  4.251E-01
   1   18   30     3     9    1.5082E+05  2.6546E+03   1.4817E+05  0.000E+00  0.000E+00  0.000E+00  3.05972E+01  1.528E-01  2.000E+01  2.000E+04  1.327E-01



1
              HEAD IN LAYER   1 AT END OF TIME STEP   1 IN STRESS PERIOD   11
  ---------------------------------------------------------------------------

          1      2      3      4      5      6      7      8      9     10
         11     12     13     14     15     16     17     18     19     20
         21     22     23     24     25     26     27     28     29     30
 .........................................................................
   1  ****** ****** ****** ****** ****** ****** ****** ****** ****** ******
      ****** ****** ****** ****** ****** ****** ****** ****** ****** ******
      ****** ****** ****** ****** ****** ****** ****** ****** ****** ******
   2  ****** ****** ****** ****** ****** ****** ****** ****** ****** ******
      ****** ****** ****** ****** ****** ****** ****** ****** ****** ******
      ****** ****** ****** ****** ****** ****** ****** ****** ****** ******
   3  ****** ****** ****** ****** ****** ****** ****** ****** ****** ******
      ****** ****** ****** ****** ****** ****** ****** ****** ****** ******
      ****** ****** ****** ****** ****** ****** ****** ****** ****** ******
   4  ****** ****** ****** ****** ****** ****** ****** ****** ****** ******
      ****** ****** ****** ****** ****** ****** ****** ****** ****** ******
      ****** ****** ****** ****** ****** ****** ****** ****** ****** ******
   5  ****** ****** ****** ****** ****** ****** ****** ****** ****** ******
      ****** ****** ****** ****** ****** ****** ****** ****** ****** ******
      ****** ****** ****** ****** ****** ****** ****** ****** ****** ******
   6  ****** ****** ****** ****** ****** ****** ****** ****** ****** ******
      ****** ****** ****** ****** ****** ****** ****** ****** ****** ******
      ****** ****** ****** ****** ****** ****** ****** ****** ****** ******
   7  ****** ****** ****** ****** ****** ****** ****** ****** ****** ******
      ****** ****** ****** ****** ****** ****** ****** ****** ****** ******
      ****** ****** ****** ****** ****** ****** ****** ****** ****** ******
   8  ****** ****** ****** ****** ****** ****** ****** ****** ****** ******
      ****** ****** ****** ****** ****** ****** ****** ****** ****** ******
      ****** ****** ****** ****** ****** ****** ****** ****** ****** ******
   9  ****** ****** ****** ****** ****** ****** ****** ****** ****** ******
      ****** ****** ****** ****** ****** ****** ****** ****** ****** ******
      ****** ****** ****** ****** ****** ****** ****** ****** ****** ******
  10  ****** ****** ****** ****** ****** ****** ****** ****** ****** ******
      ****** ****** ****** ****** ****** ****** ****** ****** ****** ******
      ****** ****** ****** ****** ****** ****** ****** ****** ****** ******
  11  ****** ****** ****** ****** ****** ****** ****** ****** ****** ******
      ****** ****** ****** ****** ****** ****** ****** ****** ****** ******
      ****** ****** ****** ****** ****** ****** ****** ****** ****** ******
  12  ****** ****** ****** ****** ****** ****** ****** ****** ****** ******
      ****** ****** ****** ****** ****** ****** ****** ****** ****** ******
      ****** ****** ****** ****** ****** ****** ****** ****** ****** ******
  13  ****** ****** ****** ****** ****** ****** ****** ****** ****** ******
      ****** ****** ****** ****** ****** ****** ****** ****** ****** ******
      ****** ****** ****** ****** ****** ****** ****** ****** ****** ******
  14  ****** ****** ****** ****** ****** ****** ****** ****** ****** ******
      ****** ****** ****** ****** ****** ****** ****** ****** ****** ******
      ****** ****** ****** ****** ****** ****** ****** ****** ****** ******
  15  ****** ****** ****** ****** ****** ****** ****** ****** ****** ******
      ****** ****** ****** ****** ****** ****** ****** ****** ****** ******
      ****** ****** ****** ****** ****** ****** ****** ****** ****** ******
  16  ****** ****** ****** ****** ****** ****** ****** ****** ****** ******
      ****** ****** ****** ****** ****** ****** ****** ****** ****** ******
      ****** ****** ****** ****** ****** ****** ****** ****** ****** ******
  17  ****** ****** ****** ****** ****** ****** ****** ****** ****** ******
      ****** ****** ****** ****** ****** ****** ****** ****** ****** ******
      ****** ****** ****** ****** ****** ****** ****** ****** ****** ******
  18  ****** ****** ****** ****** ****** ****** ****** ****** ****** ******
      ****** ****** ****** ****** ****** ****** ****** ****** ****** ******
      ****** ****** ****** ****** ****** ****** ****** ****** ****** ******
  19  ****** ****** ****** ****** ****** ****** ****** ****** ****** ******
      ****** ****** ****** ****** ****** ****** ****** ****** ****** ******
      ****** ****** ****** ****** ****** ****** ****** ****** ****** ******
  20  ****** ****** ****** ****** ****** ****** ****** ****** ****** ******
      ****** ****** ****** ****** ****** ****** ****** ****** ****** ******
      ****** ****** ****** ****** ****** ****** ****** ****** ****** ******
  21  ****** ****** ****** ****** ****** ****** ****** ****** ****** ******
      ****** ****** ****** ****** ****** ****** ****** ****** ****** ******
      ****** ****** ****** ****** ****** ****** ****** ****** ****** ******
  22  ****** ****** ****** ****** ****** ****** ****** ****** ****** ******
      ****** ****** ****** ****** ****** ****** ****** ****** ****** ******
      ****** ****** ****** ****** ****** ****** ****** ****** ****** ******
  23  ****** ****** ****** ****** ****** ****** ****** ****** ****** ******
      ****** ****** ****** ****** ****** ****** ****** ****** ****** ******
      ****** ****** ****** ****** ****** ****** ****** ****** ****** ******
  24  ****** ****** ****** ****** ****** ****** ****** ****** ****** ******
      ****** ****** ****** ****** ****** ****** ****** ****** ****** ******
      ****** ****** ****** ****** ****** ****** ****** ****** ****** ******
  25  ****** ****** ****** ****** ****** ****** ****** ****** ****** ******
      ****** ****** ****** ****** ****** ****** ****** ****** ****** ******
      ****** ****** ****** ****** ****** ****** ****** ****** ****** ******

 HEAD WILL BE SAVED ON UNIT   51 AT END OF TIME STEP    1, STRESS PERIOD   11
1
  VOLUMETRIC BUDGET FOR ENTIRE MODEL AT END OF TIME STEP    1, STRESS PERIOD  11
  ------------------------------------------------------------------------------

     CUMULATIVE VOLUMES      L**3       RATES FOR THIS TIME STEP      L**3/T
     ------------------                 ------------------------

           IN:                                      IN:
           ---                                      ---
             STORAGE =    34441970.3510               STORAGE =       17844.8714
       CONSTANT HEAD =    27099793.3043         CONSTANT HEAD =       32986.8658
               WELLS =           0.0000                 WELLS =           0.0000
            RECHARGE =    23901600.0000              RECHARGE =           0.0000
      STREAM LEAKAGE =    31857656.0893        STREAM LEAKAGE =       38204.0705

            TOTAL IN =   117301019.7447              TOTAL IN =       89035.8077

          OUT:                                     OUT:
          ----                                     ----
             STORAGE =     2427266.4643               STORAGE =           0.0000
       CONSTANT HEAD =           0.0000         CONSTANT HEAD =           0.0000
               WELLS =    52875279.9272                 WELLS =       52664.6214
            RECHARGE =           0.0000              RECHARGE =           0.0000
      STREAM LEAKAGE =    61998475.3018        STREAM LEAKAGE =       36371.1909

           TOTAL OUT =   117301021.6933             TOTAL OUT =       89035.8124

            IN - OUT =          -1.9486              IN - OUT =      -4.6517E-03

 PERCENT DISCREPANCY =          -0.00     PERCENT DISCREPANCY =          -0.00






         TIME SUMMARY AT END OF TIME STEP    1 IN STRESS PERIOD   11
                    SECONDS     MINUTES      HOURS       DAYS        YEARS
                    -----------------------------------------------------------
   TIME STEP LENGTH 7.86240E+06 1.31040E+05  2184.0      91.000     0.24914    
 STRESS PERIOD TIME 7.86240E+06 1.31040E+05  2184.0      91.000     0.24914    
         TOTAL TIME 8.67456E+07 1.44576E+06  24096.      1004.0      2.7488    
1
1
                            STRESS PERIOD NO.   12, LENGTH =   91.00000    
                            -----------------------------------------------

                              NUMBER OF TIME STEPS =     1

                               MULTIPLIER FOR DELT =     1.500

                            INITIAL TIME STEP SIZE =   91.00000    

 WELL NO.  LAYER   ROW   COL   STRESS RATE         
 --------------------------------------------------
      1      1     14      6       0.000    
      2      1      3      9       0.000    
      3      1     20     10       0.000    
      4      1     14     20       0.000    
      5      1     10     29     -0.1299E+05
      6      1     15     21     -0.1317E+05
      7      1     19     29     -0.1184E+05
      8      1     17     29     -0.1466E+05

      8 WELLS

                 RECHARGE =  1.000000E-03

 REUSING STREAM SEGMENT DATA FROM LAST STRESS PERIOD
 
 SOLVING FOR HEAD 


     7 CALLS TO PCG ROUTINE FOR TIME STEP   1 IN STRESS PERIOD   12
    24 TOTAL ITERATIONS

 OUTPUT CONTROL FOR STRESS PERIOD   12   TIME STEP    1
    SAVE BUDGET
    SAVE HEAD FOR ALL LAYERS
    PRINT HEAD FOR ALL LAYERS
 UBDSV2 SAVING "STREAMFLOW OUT  " ON UNIT  50 AT TIME STEP  1, STRESS PERIOD  12



 STREAM LISTING     PERIOD     12   STEP        1

 LAYER ROW COL. STREAM  RCH.  FLOW INTO     FLOW TO   FLOW OUT OF   OVRLND.     DIRECT     STREAM       STREAM     STREAM     STREAM   STREAMBED  STREAMBED
                SEG.NO.  NO.  STRM. RCH.    AQUIFER    STRM. RCH.    RUNOFF     PRECIP       ET          HEAD       DEPTH      WIDTH   CONDCTNC.   GRADIENT

   1   13    1     1     1    1.0000E+05 -1.7308E+03   1.0173E+05  0.000E+00  0.000E+00  0.000E+00  4.84068E+01  1.454E-01  2.000E+01  2.000E+04 -8.654E-02
   1   13    2     1     2    1.0173E+05 -2.6756E+03   1.0441E+05  0.000E+00  0.000E+00  0.000E+00  4.79314E+01  1.473E-01  2.000E+01  2.000E+04 -1.338E-01
   1   14    3     1     3    1.0441E+05 -4.4652E+02   1.0485E+05  0.000E+00  0.000E+00  0.000E+00  4.74555E+01  1.486E-01  2.000E+01  2.000E+04 -2.233E-02
   1   15    4     1     4    1.0485E+05 -4.2084E+02   1.0527E+05  0.000E+00  0.000E+00  0.000E+00  4.69785E+01  1.490E-01  2.000E+01  2.000E+04 -2.104E-02
   1   16    5     1     5    1.0527E+05 -1.5936E+03   1.0687E+05  0.000E+00  0.000E+00  0.000E+00  4.65021E+01  1.499E-01  2.000E+01  2.000E+04 -7.968E-02
   1   16    6     1     6    1.0687E+05 -1.0085E+03   1.0788E+05  0.000E+00  0.000E+00  0.000E+00  4.60260E+01  1.510E-01  2.000E+01  2.000E+04 -5.042E-02
   1   16    7     1     7    1.0788E+05 -9.8852E+02   1.0886E+05  0.000E+00  0.000E+00  0.000E+00  4.55495E+01  1.518E-01  2.000E+01  2.000E+04 -4.943E-02
   1   16    8     1     8    1.0886E+05 -9.8197E+02   1.0985E+05  0.000E+00  0.000E+00  0.000E+00  4.50731E+01  1.526E-01  2.000E+01  2.000E+04 -4.910E-02
   1   16    9     1     9    1.0985E+05 -9.7053E+02   1.1082E+05  0.000E+00  0.000E+00  0.000E+00  4.45966E+01  1.534E-01  2.000E+01  2.000E+04 -4.853E-02
   1   16   10     1    10    1.1082E+05 -9.5205E+02   1.1177E+05  0.000E+00  0.000E+00  0.000E+00  4.41202E+01  1.542E-01  2.000E+01  2.000E+04 -4.760E-02
   1   16   11     1    11    1.1177E+05 -9.3918E+02   1.1271E+05  0.000E+00  0.000E+00  0.000E+00  4.36437E+01  1.550E-01  2.000E+01  2.000E+04 -4.696E-02
   1   16   12     1    12    1.1271E+05 -1.5178E+03   1.1423E+05  0.000E+00  0.000E+00  0.000E+00  4.31674E+01  1.560E-01  2.000E+01  2.000E+04 -7.589E-02
   1   15   13     1    13    1.1423E+05 -1.4205E+03   1.1565E+05  0.000E+00  0.000E+00  0.000E+00  4.26913E+01  1.573E-01  2.000E+01  2.000E+04 -7.103E-02
   1   14   14     1    14    1.1565E+05 -1.6630E+03   1.1731E+05  0.000E+00  0.000E+00  0.000E+00  4.22153E+01  1.585E-01  2.000E+01  2.000E+04 -8.315E-02
   1   13   15     1    15    1.1731E+05 -1.9733E+03   1.1928E+05  0.000E+00  0.000E+00  0.000E+00  4.17395E+01  1.600E-01  2.000E+01  2.000E+04 -9.867E-02
   1   12   16     1    16    1.1928E+05 -2.7420E+03   1.2202E+05  0.000E+00  0.000E+00  0.000E+00  4.12642E+01  1.619E-01  2.000E+01  2.000E+04 -1.371E-01
   1   12   17     1    17    1.2202E+05 -1.6905E+03   1.2372E+05  0.000E+00  0.000E+00  0.000E+00  4.07887E+01  1.637E-01  2.000E+01  2.000E+04 -8.452E-02
   1   12   18     1    18    1.2372E+05 -1.5512E+03   1.2527E+05  0.000E+00  0.000E+00  0.000E+00  4.03127E+01  1.650E-01  2.000E+01  2.000E+04 -7.756E-02
   1   12   19     1    19    1.2527E+05 -2.0995E+03   1.2737E+05  0.000E+00  0.000E+00  0.000E+00  3.98369E+01  1.664E-01  2.000E+01  2.000E+04 -1.050E-01
   1   13   20     1    20    1.2737E+05 -6.8289E+02   1.2805E+05  0.000E+00  0.000E+00  0.000E+00  3.93607E+01  1.675E-01  2.000E+01  2.000E+04 -3.414E-02
   1   14   21     1    21    1.2805E+05  4.1454E+03   1.2390E+05  0.000E+00  0.000E+00  0.000E+00  3.88821E+01  1.661E-01  2.000E+01  2.000E+04  2.073E-01
   1   14   22     1    22    1.2390E+05  5.8262E+03   1.1808E+05  0.000E+00  0.000E+00  0.000E+00  3.84008E+01  1.622E-01  2.000E+01  2.000E+04  2.913E-01
   1    9   30     2     1    5.0000E+04  2.0768E+03   4.7923E+04  0.000E+00  0.000E+00  0.000E+00  4.02394E+01  1.144E-01  2.000E+01  2.000E+04  1.038E-01
   1    9   29     2     2    4.7923E+04  4.0267E+03   4.3897E+04  0.000E+00  0.000E+00  0.000E+00  3.99851E+01  1.101E-01  2.000E+01  2.000E+04  2.013E-01
   1    9   28     2     3    4.3897E+04  8.5053E+02   4.3046E+04  0.000E+00  0.000E+00  0.000E+00  3.97315E+01  1.065E-01  2.000E+01  2.000E+04  4.253E-02
   1    9   27     2     4    4.3046E+04 -1.6162E+03   4.4662E+04  0.000E+00  0.000E+00  0.000E+00  3.94821E+01  1.071E-01  2.000E+01  2.000E+04 -8.081E-02
   1   10   26     2     5    4.4662E+04 -4.5000E+02   4.5112E+04  0.000E+00  0.000E+00  0.000E+00  3.92336E+01  1.086E-01  2.000E+01  2.000E+04 -2.250E-02
   1   11   25     2     6    4.5112E+04 -8.0145E+02   4.5914E+04  0.000E+00  0.000E+00  0.000E+00  3.89845E+01  1.095E-01  2.000E+01  2.000E+04 -4.007E-02
   1   12   24     2     7    4.5914E+04 -1.3026E+03   4.7216E+04  0.000E+00  0.000E+00  0.000E+00  3.87360E+01  1.110E-01  2.000E+01  2.000E+04 -6.513E-02
   1   13   23     2     8    4.7216E+04 -2.5090E+02   4.7467E+04  0.000E+00  0.000E+00  0.000E+00  3.84871E+01  1.121E-01  2.000E+01  2.000E+04 -1.255E-02
   1   14   22     2     9    4.7467E+04  2.5202E+03   4.4947E+04  0.000E+00  0.000E+00  0.000E+00  3.82355E+01  1.105E-01  2.000E+01  2.000E+04  1.260E-01
   1   14   22     3     1    1.6302E+05 -7.8141E+03   1.7084E+05  0.000E+00  0.000E+00  0.000E+00  3.77188E+01  1.632E-01  2.000E+01  2.000E+04 -3.907E-01
   1   15   23     3     2    1.7084E+05  7.3094E+01   1.7077E+05  0.000E+00  0.000E+00  0.000E+00  3.68322E+01  1.655E-01  2.000E+01  2.000E+04  3.655E-03
   1   15   24     3     3    1.7077E+05 -1.7973E+02   1.7094E+05  0.000E+00  0.000E+00  0.000E+00  3.59433E+01  1.655E-01  2.000E+01  2.000E+04 -8.987E-03
   1   15   25     3     4    1.7094E+05 -1.8551E+02   1.7113E+05  0.000E+00  0.000E+00  0.000E+00  3.50545E+01  1.656E-01  2.000E+01  2.000E+04 -9.275E-03
   1   15   26     3     5    1.7113E+05 -1.1939E+02   1.7125E+05  0.000E+00  0.000E+00  0.000E+00  3.41657E+01  1.657E-01  2.000E+01  2.000E+04 -5.970E-03
   1   16   27     3     6    1.7125E+05  1.4627E+02   1.7110E+05  0.000E+00  0.000E+00  0.000E+00  3.32768E+01  1.657E-01  2.000E+01  2.000E+04  7.314E-03
   1   17   28     3     7    1.7110E+05  6.1651E+03   1.6494E+05  0.000E+00  0.000E+00  0.000E+00  3.23861E+01  1.639E-01  2.000E+01  2.000E+04  3.083E-01
   1   18   29     3     8    1.6494E+05  8.3020E+03   1.5664E+05  0.000E+00  0.000E+00  0.000E+00  3.14929E+01  1.596E-01  2.000E+01  2.000E+04  4.151E-01
   1   18   30     3     9    1.5664E+05  2.4866E+03   1.5415E+05  0.000E+00  0.000E+00  0.000E+00  3.06008E+01  1.564E-01  2.000E+01  2.000E+04  1.243E-01



1
              HEAD IN LAYER   1 AT END OF TIME STEP   1 IN STRESS PERIOD   12
  ---------------------------------------------------------------------------

          1      2      3      4      5      6      7      8      9     10
         11     12     13     14     15     16     17     18     19     20
         21     22     23     24     25     26     27     28     29     30
 .........................................................................
   1  ****** ****** ****** ****** ****** ****** ****** ****** ****** ******
      ****** ****** ****** ****** ****** ****** ****** ****** ****** ******
      ****** ****** ****** ****** ****** ****** ****** ****** ****** ******
   2  ****** ****** ****** ****** ****** ****** ****** ****** ****** ******
      ****** ****** ****** ****** ****** ****** ****** ****** ****** ******
      ****** ****** ****** ****** ****** ****** ****** ****** ****** ******
   3  ****** ****** ****** ****** ****** ****** ****** ****** ****** ******
      ****** ****** ****** ****** ****** ****** ****** ****** ****** ******
      ****** ****** ****** ****** ****** ****** ****** ****** ****** ******
   4  ****** ****** ****** ****** ****** ****** ****** ****** ****** ******
      ****** ****** ****** ****** ****** ****** ****** ****** ****** ******
      ****** ****** ****** ****** ****** ****** ****** ****** ****** ******
   5  ****** ****** ****** ****** ****** ****** ****** ****** ****** ******
      ****** ****** ****** ****** ****** ****** ****** ****** ****** ******
      ****** ****** ****** ****** ****** ****** ****** ****** ****** ******
   6  ****** ****** ****** ****** ****** ****** ****** ****** ****** ******
      ****** ****** ****** ****** ****** ****** ****** ****** ****** ******
      ****** ****** ****** ****** ****** ****** ****** ****** ****** ******
   7  ****** ****** ****** ****** ****** ****** ****** ****** ****** ******
      ****** ****** ****** ****** ****** ****** ****** ****** ****** ******
      ****** ****** ****** ****** ****** ****** ****** ****** ****** ******
   8  ****** ****** ****** ****** ****** ****** ****** ****** ****** ******
      ****** ****** ****** ****** ****** ****** ****** ****** ****** ******
      ****** ****** ****** ****** ****** ****** ****** ****** ****** ******
   9  ****** ****** ****** ****** ****** ****** ****** ****** ****** ******
      ****** ****** ****** ****** ****** ****** ****** ****** ****** ******
      ****** ****** ****** ****** ****** ****** ****** ****** ****** ******
  10  ****** ****** ****** ****** ****** ****** ****** ****** ****** ******
      ****** ****** ****** ****** ****** ****** ****** ****** ****** ******
      ****** ****** ****** ****** ****** ****** ****** ****** ****** ******
  11  ****** ****** ****** ****** ****** ****** ****** ****** ****** ******
      ****** ****** ****** ****** ****** ****** ****** ****** ****** ******
      ****** ****** ****** ****** ****** ****** ****** ****** ****** ******
  12  ****** ****** ****** ****** ****** ****** ****** ****** ****** ******
      ****** ****** ****** ****** ****** ****** ****** ****** ****** ******
      ****** ****** ****** ****** ****** ****** ****** ****** ****** ******
  13  ****** ****** ****** ****** ****** ****** ****** ****** ****** ******
      ****** ****** ****** ****** ****** ****** ****** ****** ****** ******
      ****** ****** ****** ****** ****** ****** ****** ****** ****** ******
  14  ****** ****** ****** ****** ****** ****** ****** ****** ****** ******
      ****** ****** ****** ****** ****** ****** ****** ****** ****** ******
      ****** ****** ****** ****** ****** ****** ****** ****** ****** ******
  15  ****** ****** ****** ****** ****** ****** ****** ****** ****** ******
      ****** ****** ****** ****** ****** ****** ****** ****** ****** ******
      ****** ****** ****** ****** ****** ****** ****** ****** ****** ******
  16  ****** ****** ****** ****** ****** ****** ****** ****** ****** ******
      ****** ****** ****** ****** ****** ****** ****** ****** ****** ******
      ****** ****** ****** ****** ****** ****** ****** ****** ****** ******
  17  ****** ****** ****** ****** ****** ****** ****** ****** ****** ******
      ****** ****** ****** ****** ****** ****** ****** ****** ****** ******
      ****** ****** ****** ****** ****** ****** ****** ****** ****** ******
  18  ****** ****** ****** ****** ****** ****** ****** ****** ****** ******
      ****** ****** ****** ****** ****** ****** ****** ****** ****** ******
      ****** ****** ****** ****** ****** ****** ****** ****** ****** ******
  19  ****** ****** ****** ****** ****** ****** ****** ****** ****** ******
      ****** ****** ****** ****** ****** ****** ****** ****** ****** ******
      ****** ****** ****** ****** ****** ****** ****** ****** ****** ******
  20  ****** ****** ****** ****** ****** ****** ****** ****** ****** ******
      ****** ****** ****** ****** ****** ****** ****** ****** ****** ******
      ****** ****** ****** ****** ****** ****** ****** ****** ****** ******
  21  ****** ****** ****** ****** ****** ****** ****** ****** ****** ******
      ****** ****** ****** ****** ****** ****** ****** ****** ****** ******
      ****** ****** ****** ****** ****** ****** ****** ****** ****** ******
  22  ****** ****** ****** ****** ****** ****** ****** ****** ****** ******
      ****** ****** ****** ****** ****** ****** ****** ****** ****** ******
      ****** ****** ****** ****** ****** ****** ****** ****** ****** ******
  23  ****** ****** ****** ****** ****** ****** ****** ****** ****** ******
      ****** ****** ****** ****** ****** ****** ****** ****** ****** ******
      ****** ****** ****** ****** ****** ****** ****** ****** ****** ******
  24  ****** ****** ****** ****** ****** ****** ****** ****** ****** ******
      ****** ****** ****** ****** ****** ****** ****** ****** ****** ******
      ****** ****** ****** ****** ****** ****** ****** ****** ****** ******
  25  ****** ****** ****** ****** ****** ****** ****** ****** ****** ******
      ****** ****** ****** ****** ****** ****** ****** ****** ****** ******
      ****** ****** ****** ****** ****** ****** ****** ****** ****** ******

 HEAD WILL BE SAVED ON UNIT   51 AT END OF TIME STEP    1, STRESS PERIOD   12
1
  VOLUMETRIC BUDGET FOR ENTIRE MODEL AT END OF TIME STEP    1, STRESS PERIOD  12
  ------------------------------------------------------------------------------

     CUMULATIVE VOLUMES      L**3       RATES FOR THIS TIME STEP      L**3/T
     ------------------                 ------------------------

           IN:                                      IN:
           ---                                      ---
             STORAGE =    34442407.2689               STORAGE =           4.8013
       CONSTANT HEAD =    30037560.2343         CONSTANT HEAD =       32283.1531
               WELLS =           0.0000                 WELLS =           0.0000
            RECHARGE =    26413200.0000              RECHARGE =       27600.0000
      STREAM LEAKAGE =    35189974.9614        STREAM LEAKAGE =       36618.8887

            TOTAL IN =   126083142.4645              TOTAL IN =       96506.8431

          OUT:                                     OUT:
          ----                                     ----
             STORAGE =     2706950.2022               STORAGE =        3073.4477
       CONSTANT HEAD =           0.0000         CONSTANT HEAD =           0.0000
               WELLS =    57667760.4784                 WELLS =       52664.6214
            RECHARGE =           0.0000              RECHARGE =           0.0000
      STREAM LEAKAGE =    65708433.6529        STREAM LEAKAGE =       40768.7731

           TOTAL OUT =   126083144.3334             TOTAL OUT =       96506.8422

            IN - OUT =          -1.8689              IN - OUT =       8.7585E-04

 PERCENT DISCREPANCY =          -0.00     PERCENT DISCREPANCY =           0.00






         TIME SUMMARY AT END OF TIME STEP    1 IN STRESS PERIOD   12
                    SECONDS     MINUTES      HOURS       DAYS        YEARS
                    -----------------------------------------------------------
   TIME STEP LENGTH 7.86240E+06 1.31040E+05  2184.0      91.000     0.24914    
 STRESS PERIOD TIME 7.86240E+06 1.31040E+05  2184.0      91.000     0.24914    
         TOTAL TIME 9.46080E+07 1.57680E+06  26280.      1095.0      2.9979    
1

 Run end date and time (yyyy/mm/dd hh:mm:ss): 2018/11/13 23:33:07
 Elapsed run time:  0.059 Seconds

