                                  MODFLOW-2005     
      U.S. GEOLOGICAL SURVEY MODULAR FINITE-DIFFERENCE GROUND-WATER FLOW MODEL
                            VERSION 1.11.00 8/8/2013

 LIST FILE: supply2.lst
                         UNIT   10

 OPENING ..\data\supply.dis
 FILE TYPE:DIS   UNIT   11   STATUS:OLD    
 FORMAT:FORMATTED              ACCESS:SEQUENTIAL          

 OPENING ..\data\supply.ba6
 FILE TYPE:BAS6   UNIT   12   STATUS:OLD    
 FORMAT:FORMATTED              ACCESS:SEQUENTIAL          

 OPENING ..\data\supply_het.bc6
 FILE TYPE:BCF6   UNIT   13   STATUS:OLD    
 FORMAT:FORMATTED              ACCESS:SEQUENTIAL          

 OPENING ..\data\supply.rch
 FILE TYPE:RCH   UNIT   15   STATUS:OLD    
 FORMAT:FORMATTED              ACCESS:SEQUENTIAL          

 OPENING ..\data\supply2.sfr
 FILE TYPE:SFR   UNIT   16   STATUS:OLD    
 FORMAT:FORMATTED              ACCESS:SEQUENTIAL          

 OPENING ..\data\supply.oc
 FILE TYPE:OC   UNIT   17   STATUS:OLD    
 FORMAT:FORMATTED              ACCESS:SEQUENTIAL          

 OPENING ..\data\supply.pcg
 FILE TYPE:PCG   UNIT   18   STATUS:OLD    
 FORMAT:FORMATTED              ACCESS:SEQUENTIAL          

 OPENING supply2.wel
 FILE TYPE:WEL   UNIT   19   STATUS:OLD    
 FORMAT:FORMATTED              ACCESS:SEQUENTIAL          

 OPENING supply2sf.cbc
 FILE TYPE:DATA(BINARY)   UNIT   50   STATUS:UNKNOWN
 FORMAT:BINARY                 ACCESS:SEQUENTIAL          

 OPENING supply2hd.bhd
 FILE TYPE:DATA(BINARY)   UNIT   51   STATUS:UNKNOWN
 FORMAT:BINARY                 ACCESS:SEQUENTIAL          

 BAS -- BASIC PACKAGE, VERSION 7, 5/2/2005 INPUT READ FROM UNIT   12
 
 MODFLOW was compiled using uniform precision
 Precision of REAL and DOUBLE PRECISION variables:          15

 DISCRETIZATION INPUT DATA READ FROM UNIT   11
    1 LAYERS        25 ROWS        30 COLUMNS
   12 STRESS PERIOD(S) IN SIMULATION
 MODEL TIME UNIT IS DAYS
 MODEL LENGTH UNIT IS UNDEFINED
  Confining bed flag for each layer:
   0

                     DELR =   200.000    

                     DELC =   200.000    

 TOP ELEVATION OF LAYER 1 =  100.0000    

   MODEL LAYER BOTTOM EL. =   0.00000     FOR LAYER   1


 STRESS PERIOD     LENGTH       TIME STEPS     MULTIPLIER FOR DELT    SS FLAG
 ----------------------------------------------------------------------------
        1         92.00000          1                    1.500         TR
        2         91.00000          1                    1.500         TR
        3         91.00000          1                    1.500         TR
        4         91.00000          1                    1.500         TR
        5         92.00000          1                    1.500         TR
        6         91.00000          1                    1.500         TR
        7         91.00000          1                    1.500         TR
        8         91.00000          1                    1.500         TR
        9         92.00000          1                    1.500         TR
       10         91.00000          1                    1.500         TR
       11         91.00000          1                    1.500         TR
       12         91.00000          1                    1.500         TR

 TRANSIENT SIMULATION



 
 #MODOFC transient water supply sample problem                                   
 #                                                                               
 THE FREE FORMAT OPTION HAS BEEN SELECTED



                     BOUNDARY ARRAY FOR LAYER   1
 READING ON UNIT   12 WITH FORMAT: (20I4)              

 AQUIFER HEAD WILL BE SET TO   0.0000     AT ALL NO-FLOW NODES (IBOUND=0).



                       INITIAL HEAD FOR LAYER   1
 READING ON UNIT   12 WITH FORMAT: (10F13.0)           

 OUTPUT CONTROL IS SPECIFIED ONLY AT TIME STEPS FOR WHICH OUTPUT IS DESIRED
 COMPACT CELL-BY-CELL BUDGET FILES WILL BE WRITTEN
 HEAD PRINT FORMAT CODE IS  18    DRAWDOWN PRINT FORMAT CODE IS   0
 HEADS WILL BE SAVED ON UNIT   51    DRAWDOWNS WILL BE SAVED ON UNIT    0

 BCF -- BLOCK-CENTERED FLOW PACKAGE, VERSION 7, 5/2/2005
         INPUT READ FROM UNIT 13
 TRANSIENT SIMULATION
 HEAD AT CELLS THAT CONVERT TO DRY=   0.0000    
 WETTING CAPABILITY IS NOT ACTIVE
      LAYER  LAYER-TYPE CODE     INTERBLOCK T
      --------------------------------------------
         1            0          0 -- HARMONIC    

 COLUMN TO ROW ANISOTROPY =  1.000000    

     PRIMARY STORAGE COEF =  5.000000E-02 FOR LAYER   1



               TRANSMIS. ALONG ROWS FOR LAYER   1
 READING ON UNIT   13 WITH FORMAT: (FREE)              

 WEL -- WELL PACKAGE, VERSION 7, 5/2/2005 INPUT READ FROM UNIT   19
 # Well package input file written by MMProc
 No named parameters
 MAXIMUM OF      4 ACTIVE WELLS AT ONE TIME


     0 Well parameters

 RCH -- RECHARGE PACKAGE, VERSION 7, 5/2/2005 INPUT READ FROM UNIT   15
 No named parameters
 OPTION 1 -- RECHARGE TO TOP LAYER


     0 Recharge parameters

 SFR7 -- STREAMFLOW ROUTING PACKAGE, VERSION 1.0.7, 2013-01-15
         INPUT READ FROM UNIT  16
 #  Supply2 test problem for GWM-VI
 #  The eighth entry in the first data line is ISTCB2 -
 #    Setting this to a negative number indicates that
 #    streamflows out of the reach will be saved to a
 #    binary file.  The absolute value of ISTCB2 is the
 #    unit to which unformatted flows will be written.
 #
 No named parameters
 Segment information will not be 
 read by reach
 No named parameters
 No specifed inflow files


 NUMBER OF STREAM REACHES IS   40

 NUMBER OF STREAM SEGMENTS IS    3

 NUMBER OF STREAM PARAMETERS IS    0

 NUMBER OF STREAM SEGMENTS DEFINED USING PARAMETERS IS              0

 MAXIMUM ERROR FOR STREAM LEAKAGE RATES IS  1.00E-04

 CONSTANT FOR MANNINGS EQUATION IS  1.2839E+05





   STREAM NETWORK DESCRIPTION: 

   LAYER    ROW    COL   SEGMENT   REACH     LENGTH
                          NUMBER   NUMBER    IN CELL        
   --------------------------------------------------
      1     13      1       1        1    2.0000E+02
      1     13      2       1        2    2.0000E+02
      1     14      3       1        3    2.0000E+02
      1     15      4       1        4    2.0000E+02
      1     16      5       1        5    2.0000E+02
      1     16      6       1        6    2.0000E+02
      1     16      7       1        7    2.0000E+02
      1     16      8       1        8    2.0000E+02
      1     16      9       1        9    2.0000E+02
      1     16     10       1       10    2.0000E+02
      1     16     11       1       11    2.0000E+02
      1     16     12       1       12    2.0000E+02
      1     15     13       1       13    2.0000E+02
      1     14     14       1       14    2.0000E+02
      1     13     15       1       15    2.0000E+02
      1     12     16       1       16    2.0000E+02
      1     12     17       1       17    2.0000E+02
      1     12     18       1       18    2.0000E+02
      1     12     19       1       19    2.0000E+02
      1     13     20       1       20    2.0000E+02
      1     14     21       1       21    2.0000E+02
      1     14     22       1       22    2.0000E+02
      1      9     30       2        1    2.0000E+02
      1      9     29       2        2    2.0000E+02
      1      9     28       2        3    2.0000E+02
      1      9     27       2        4    2.0000E+02
      1     10     26       2        5    2.0000E+02
      1     11     25       2        6    2.0000E+02
      1     12     24       2        7    2.0000E+02
      1     13     23       2        8    2.0000E+02
      1     14     22       2        9    2.0000E+02
      1     14     22       3        1    2.0000E+02
      1     15     23       3        2    2.0000E+02
      1     15     24       3        3    2.0000E+02
      1     15     25       3        4    2.0000E+02
      1     15     26       3        5    2.0000E+02
      1     16     27       3        6    2.0000E+02
      1     17     28       3        7    2.0000E+02
      1     18     29       3        8    2.0000E+02
      1     18     30       3        9    2.0000E+02




 PCG -- CONJUGATE-GRADIENT SOLUTION PACKAGE, VERSION 7, 5/2/2005
 MAXIMUM OF    500 CALLS OF SOLUTION ROUTINE
 MAXIMUM OF      5 INTERNAL ITERATIONS PER CALL TO SOLUTION ROUTINE
 MATRIX PRECONDITIONING TYPE :    1



                                    SOLUTION BY THE CONJUGATE-GRADIENT METHOD
                                   -------------------------------------------
                    MAXIMUM NUMBER OF CALLS TO PCG ROUTINE =      500
                        MAXIMUM ITERATIONS PER CALL TO PCG =        5
                               MATRIX PRECONDITIONING TYPE =        1
        RELAXATION FACTOR (ONLY USED WITH PRECOND. TYPE 1) =    0.10000E+01
 PARAMETER OF POLYNOMIAL PRECOND. = 2 (2) OR IS CALCULATED :        0
                         HEAD CHANGE CRITERION FOR CLOSURE =    0.10000E-05
                     RESIDUAL CHANGE CRITERION FOR CLOSURE =    0.10000E+01
            PCG HEAD AND RESIDUAL CHANGE PRINTOUT INTERVAL =        1
     PRINTING FROM SOLVER IS LIMITED(1) OR SUPPRESSED (>1) =        1
                            STEADY-STATE DAMPING PARAMETER =    0.10000E+01
                               TRANSIENT DAMPING PARAMETER =    0.10000E+01
1
                            STRESS PERIOD NO.    1, LENGTH =   92.00000    
                            -----------------------------------------------

                              NUMBER OF TIME STEPS =     1

                               MULTIPLIER FOR DELT =     1.500

                            INITIAL TIME STEP SIZE =   92.00000    

 WELL NO.  LAYER   ROW   COL   STRESS RATE         
 --------------------------------------------------
      1      1     11     27     -0.1170E+05
      2      1     10     14      -9990.    
      3      1     22      2      -5731.    
      4      1     21     17      -8441.    

      4 WELLS

                 RECHARGE =  5.000000E-04



 CLASSIFICATION & COUNT OF STREAM SEGMENTS BASED ON SOURCE OF INFLOW:

                HEADWATER     DIVERSION     RECEIVES TRIBUTARY FLOW
                ---------     ---------     -----------------------
                     2              0               1



                    INPUT DATA FOR EACH STREAM SEGMENT
 ---------------------------------------------------------------------------------------------

 SEGMENT    SEG.     INFLOW   OVERLAND   STREAM    STREAM   ICALC  OUTFLOW  DIVERSION PRIORITY
    NO.    LENGTH     RATE     RUNOFF      ET       PPT.    METH.  TO SEG.  FROM SEG.    NO.

      1  4.400E+03 1.000E+05 0.000E+00 0.000E+00 0.000E+00    1        3        0        0
      2  1.800E+03 5.000E+04 0.000E+00 0.000E+00 0.000E+00    1        3        0        0
      3  1.800E+03 0.000E+00 0.000E+00 0.000E+00 0.000E+00    1        0        0        0


         STREAMBED PROPERTIES AND STREAM DIMENSIONS

 SEGMENT     BED HYD. COND.      BED THICKNESS     ELEV.-TOP OF BED     WIDTH OF STREAM     DEPTH OF STREAM    STREAM ROUGHNESS
    No.     UPPER     LOWER     UPPER     LOWER     UPPER     LOWER     UPPER     LOWER     UPPER     LOWER   CHANNEL      BANK

     1  5.000E+00 5.000E+00 1.000E+00 1.000E+00 4.850E+01 3.800E+01 2.000E+01 2.000E+01                     5.000E-02
     2  5.000E+00 5.000E+00 1.000E+00 1.000E+00 4.025E+01 3.800E+01 2.000E+01 2.000E+01                     5.000E-02
     3  5.000E+00 5.000E+00 1.000E+00 1.000E+00 3.800E+01 3.000E+01 2.000E+01 2.000E+01                     5.000E-02



 
 SOLVING FOR HEAD 


     9 CALLS TO PCG ROUTINE FOR TIME STEP   1 IN STRESS PERIOD    1
    36 TOTAL ITERATIONS

 OUTPUT CONTROL FOR STRESS PERIOD    1   TIME STEP    1
    SAVE BUDGET
    SAVE HEAD FOR ALL LAYERS
    PRINT HEAD FOR ALL LAYERS
 UBDSV2 SAVING "STREAMFLOW OUT  " ON UNIT  50 AT TIME STEP  1, STRESS PERIOD   1



 STREAM LISTING     PERIOD      1   STEP        1

 LAYER ROW COL. STREAM  RCH.  FLOW INTO     FLOW TO   FLOW OUT OF   OVRLND.     DIRECT     STREAM       STREAM     STREAM     STREAM   STREAMBED  STREAMBED
                SEG.NO.  NO.  STRM. RCH.    AQUIFER    STRM. RCH.    RUNOFF     PRECIP       ET          HEAD       DEPTH      WIDTH   CONDCTNC.   GRADIENT

   1   13    1     1     1    1.0000E+05 -5.9521E+03   1.0595E+05  0.000E+00  0.000E+00  0.000E+00  4.84086E+01  1.472E-01  2.000E+01  2.000E+04 -2.976E-01
   1   13    2     1     2    1.0595E+05 -7.4309E+03   1.1338E+05  0.000E+00  0.000E+00  0.000E+00  4.79370E+01  1.529E-01  2.000E+01  2.000E+04 -3.715E-01
   1   14    3     1     3    1.1338E+05 -2.1458E+03   1.1553E+05  0.000E+00  0.000E+00  0.000E+00  4.74637E+01  1.569E-01  2.000E+01  2.000E+04 -1.073E-01
   1   15    4     1     4    1.1553E+05 -2.1881E+03   1.1772E+05  0.000E+00  0.000E+00  0.000E+00  4.69882E+01  1.586E-01  2.000E+01  2.000E+04 -1.094E-01
   1   16    5     1     5    1.1772E+05 -6.5718E+03   1.2429E+05  0.000E+00  0.000E+00  0.000E+00  4.65145E+01  1.622E-01  2.000E+01  2.000E+04 -3.286E-01
   1   16    6     1     6    1.2429E+05 -4.0576E+03   1.2835E+05  0.000E+00  0.000E+00  0.000E+00  4.60414E+01  1.664E-01  2.000E+01  2.000E+04 -2.029E-01
   1   16    7     1     7    1.2835E+05 -3.9523E+03   1.3230E+05  0.000E+00  0.000E+00  0.000E+00  4.55673E+01  1.696E-01  2.000E+01  2.000E+04 -1.976E-01
   1   16    8     1     8    1.3230E+05 -3.9413E+03   1.3624E+05  0.000E+00  0.000E+00  0.000E+00  4.50931E+01  1.726E-01  2.000E+01  2.000E+04 -1.971E-01
   1   16    9     1     9    1.3624E+05 -3.9414E+03   1.4018E+05  0.000E+00  0.000E+00  0.000E+00  4.46188E+01  1.757E-01  2.000E+01  2.000E+04 -1.971E-01
   1   16   10     1    10    1.4018E+05 -3.9305E+03   1.4411E+05  0.000E+00  0.000E+00  0.000E+00  4.41445E+01  1.786E-01  2.000E+01  2.000E+04 -1.965E-01
   1   16   11     1    11    1.4411E+05 -3.9302E+03   1.4804E+05  0.000E+00  0.000E+00  0.000E+00  4.36702E+01  1.816E-01  2.000E+01  2.000E+04 -1.965E-01
   1   16   12     1    12    1.4804E+05 -6.5356E+03   1.5458E+05  0.000E+00  0.000E+00  0.000E+00  4.31968E+01  1.855E-01  2.000E+01  2.000E+04 -3.268E-01
   1   15   13     1    13    1.5458E+05 -6.7230E+03   1.6130E+05  0.000E+00  0.000E+00  0.000E+00  4.27244E+01  1.903E-01  2.000E+01  2.000E+04 -3.361E-01
   1   14   14     1    14    1.6130E+05 -6.9651E+03   1.6827E+05  0.000E+00  0.000E+00  0.000E+00  4.22520E+01  1.952E-01  2.000E+01  2.000E+04 -3.483E-01
   1   13   15     1    15    1.6827E+05 -6.9759E+03   1.7524E+05  0.000E+00  0.000E+00  0.000E+00  4.17797E+01  2.001E-01  2.000E+01  2.000E+04 -3.488E-01
   1   12   16     1    16    1.7524E+05 -7.4153E+03   1.8266E+05  0.000E+00  0.000E+00  0.000E+00  4.13074E+01  2.051E-01  2.000E+01  2.000E+04 -3.708E-01
   1   12   17     1    17    1.8266E+05 -5.7845E+03   1.8844E+05  0.000E+00  0.000E+00  0.000E+00  4.08346E+01  2.096E-01  2.000E+01  2.000E+04 -2.892E-01
   1   12   18     1    18    1.8844E+05 -5.8310E+03   1.9427E+05  0.000E+00  0.000E+00  0.000E+00  4.03612E+01  2.135E-01  2.000E+01  2.000E+04 -2.916E-01
   1   12   19     1    19    1.9427E+05 -7.5102E+03   2.0178E+05  0.000E+00  0.000E+00  0.000E+00  3.98884E+01  2.180E-01  2.000E+01  2.000E+04 -3.755E-01
   1   13   20     1    20    2.0178E+05 -6.6605E+03   2.0844E+05  0.000E+00  0.000E+00  0.000E+00  3.94158E+01  2.226E-01  2.000E+01  2.000E+04 -3.330E-01
   1   14   21     1    21    2.0844E+05 -6.1658E+03   2.1461E+05  0.000E+00  0.000E+00  0.000E+00  3.89427E+01  2.267E-01  2.000E+01  2.000E+04 -3.083E-01
   1   14   22     1    22    2.1461E+05  3.7463E+03   2.1086E+05  0.000E+00  0.000E+00  0.000E+00  3.84662E+01  2.275E-01  2.000E+01  2.000E+04  1.873E-01
   1    9   30     2     1    5.0000E+04 -4.3033E+03   5.4303E+04  0.000E+00  0.000E+00  0.000E+00  4.02438E+01  1.188E-01  2.000E+01  2.000E+04 -2.152E-01
   1    9   29     2     2    5.4303E+04 -4.4243E+03   5.8728E+04  0.000E+00  0.000E+00  0.000E+00  3.99997E+01  1.247E-01  2.000E+01  2.000E+04 -2.212E-01
   1    9   28     2     3    5.8728E+04 -4.3456E+03   6.3073E+04  0.000E+00  0.000E+00  0.000E+00  3.97554E+01  1.304E-01  2.000E+01  2.000E+04 -2.173E-01
   1    9   27     2     4    6.3073E+04 -6.8223E+03   6.9895E+04  0.000E+00  0.000E+00  0.000E+00  3.95125E+01  1.375E-01  2.000E+01  2.000E+04 -3.411E-01
   1   10   26     2     5    6.9895E+04 -4.4012E+03   7.4297E+04  0.000E+00  0.000E+00  0.000E+00  3.92693E+01  1.443E-01  2.000E+01  2.000E+04 -2.201E-01
   1   11   25     2     6    7.4297E+04 -4.7698E+03   7.9067E+04  0.000E+00  0.000E+00  0.000E+00  3.90248E+01  1.498E-01  2.000E+01  2.000E+04 -2.385E-01
   1   12   24     2     7    7.9067E+04 -5.7499E+03   8.4816E+04  0.000E+00  0.000E+00  0.000E+00  3.87808E+01  1.558E-01  2.000E+01  2.000E+04 -2.875E-01
   1   13   23     2     8    8.4816E+04 -1.6362E+03   8.6453E+04  0.000E+00  0.000E+00  0.000E+00  3.85350E+01  1.600E-01  2.000E+01  2.000E+04 -8.181E-02
   1   14   22     2     9    8.6453E+04  1.4010E+02   8.6313E+04  0.000E+00  0.000E+00  0.000E+00  3.82859E+01  1.609E-01  2.000E+01  2.000E+04  7.005E-03
   1   14   22     3     1    2.9718E+05 -9.8057E+03   3.0698E+05  0.000E+00  0.000E+00  0.000E+00  3.77886E+01  2.330E-01  2.000E+01  2.000E+04 -4.903E-01
   1   15   23     3     2    3.0698E+05 -1.9428E+03   3.0892E+05  0.000E+00  0.000E+00  0.000E+00  3.69024E+01  2.357E-01  2.000E+01  2.000E+04 -9.714E-02
   1   15   24     3     3    3.0892E+05 -1.5145E+03   3.1044E+05  0.000E+00  0.000E+00  0.000E+00  3.60143E+01  2.365E-01  2.000E+01  2.000E+04 -7.573E-02
   1   15   25     3     4    3.1044E+05 -1.5549E+03   3.1199E+05  0.000E+00  0.000E+00  0.000E+00  3.51261E+01  2.372E-01  2.000E+01  2.000E+04 -7.774E-02
   1   15   26     3     5    3.1199E+05 -1.8096E+03   3.1380E+05  0.000E+00  0.000E+00  0.000E+00  3.42380E+01  2.380E-01  2.000E+01  2.000E+04 -9.048E-02
   1   16   27     3     6    3.1380E+05 -2.0864E+03   3.1589E+05  0.000E+00  0.000E+00  0.000E+00  3.33500E+01  2.389E-01  2.000E+01  2.000E+04 -1.043E-01
   1   17   28     3     7    3.1589E+05 -6.2274E+03   3.2212E+05  0.000E+00  0.000E+00  0.000E+00  3.24630E+01  2.408E-01  2.000E+01  2.000E+04 -3.114E-01
   1   18   29     3     8    3.2212E+05 -7.8345E+03   3.2995E+05  0.000E+00  0.000E+00  0.000E+00  3.15773E+01  2.439E-01  2.000E+01  2.000E+04 -3.917E-01
   1   18   30     3     9    3.2995E+05 -7.0135E+03   3.3696E+05  0.000E+00  0.000E+00  0.000E+00  3.06917E+01  2.472E-01  2.000E+01  2.000E+04 -3.507E-01



1
              HEAD IN LAYER   1 AT END OF TIME STEP   1 IN STRESS PERIOD    1
  ---------------------------------------------------------------------------

          1      2      3      4      5      6      7      8      9     10
         11     12     13     14     15     16     17     18     19     20
         21     22     23     24     25     26     27     28     29     30
 .........................................................................
   1  ****** ****** ****** ****** ****** ****** ****** ****** ****** ******
      ****** ****** ****** ****** ****** ****** ****** ****** ****** ******
      ****** ****** ****** ****** ****** ****** ****** ****** ****** ******
   2  ****** ****** ****** ****** ****** ****** ****** ****** ****** ******
      ****** ****** ****** ****** ****** ****** ****** ****** ****** ******
      ****** ****** ****** ****** ****** ****** ****** ****** ****** ******
   3  ****** ****** ****** ****** ****** ****** ****** ****** ****** ******
      ****** ****** ****** ****** ****** ****** ****** ****** ****** ******
      ****** ****** ****** ****** ****** ****** ****** ****** ****** ******
   4  ****** ****** ****** ****** ****** ****** ****** ****** ****** ******
      ****** ****** ****** ****** ****** ****** ****** ****** ****** ******
      ****** ****** ****** ****** ****** ****** ****** ****** ****** ******
   5  ****** ****** ****** ****** ****** ****** ****** ****** ****** ******
      ****** ****** ****** ****** ****** ****** ****** ****** ****** ******
      ****** ****** ****** ****** ****** ****** ****** ****** ****** ******
   6  ****** ****** ****** ****** ****** ****** ****** ****** ****** ******
      ****** ****** ****** ****** ****** ****** ****** ****** ****** ******
      ****** ****** ****** ****** ****** ****** ****** ****** ****** ******
   7  ****** ****** ****** ****** ****** ****** ****** ****** ****** ******
      ****** ****** ****** ****** ****** ****** ****** ****** ****** ******
      ****** ****** ****** ****** ****** ****** ****** ****** ****** ******
   8  ****** ****** ****** ****** ****** ****** ****** ****** ****** ******
      ****** ****** ****** ****** ****** ****** ****** ****** ****** ******
      ****** ****** ****** ****** ****** ****** ****** ****** ****** ******
   9  ****** ****** ****** ****** ****** ****** ****** ****** ****** ******
      ****** ****** ****** ****** ****** ****** ****** ****** ****** ******
      ****** ****** ****** ****** ****** ****** ****** ****** ****** ******
  10  ****** ****** ****** ****** ****** ****** ****** ****** ****** ******
      ****** ****** ****** ****** ****** ****** ****** ****** ****** ******
      ****** ****** ****** ****** ****** ****** ****** ****** ****** ******
  11  ****** ****** ****** ****** ****** ****** ****** ****** ****** ******
      ****** ****** ****** ****** ****** ****** ****** ****** ****** ******
      ****** ****** ****** ****** ****** ****** ****** ****** ****** ******
  12  ****** ****** ****** ****** ****** ****** ****** ****** ****** ******
      ****** ****** ****** ****** ****** ****** ****** ****** ****** ******
      ****** ****** ****** ****** ****** ****** ****** ****** ****** ******
  13  ****** ****** ****** ****** ****** ****** ****** ****** ****** ******
      ****** ****** ****** ****** ****** ****** ****** ****** ****** ******
      ****** ****** ****** ****** ****** ****** ****** ****** ****** ******
  14  ****** ****** ****** ****** ****** ****** ****** ****** ****** ******
      ****** ****** ****** ****** ****** ****** ****** ****** ****** ******
      ****** ****** ****** ****** ****** ****** ****** ****** ****** ******
  15  ****** ****** ****** ****** ****** ****** ****** ****** ****** ******
      ****** ****** ****** ****** ****** ****** ****** ****** ****** ******
      ****** ****** ****** ****** ****** ****** ****** ****** ****** ******
  16  ****** ****** ****** ****** ****** ****** ****** ****** ****** ******
      ****** ****** ****** ****** ****** ****** ****** ****** ****** ******
      ****** ****** ****** ****** ****** ****** ****** ****** ****** ******
  17  ****** ****** ****** ****** ****** ****** ****** ****** ****** ******
      ****** ****** ****** ****** ****** ****** ****** ****** ****** ******
      ****** ****** ****** ****** ****** ****** ****** ****** ****** ******
  18  ****** ****** ****** ****** ****** ****** ****** ****** ****** ******
      ****** ****** ****** ****** ****** ****** ****** ****** ****** ******
      ****** ****** ****** ****** ****** ****** ****** ****** ****** ******
  19  ****** ****** ****** ****** ****** ****** ****** ****** ****** ******
      ****** ****** ****** ****** ****** ****** ****** ****** ****** ******
      ****** ****** ****** ****** ****** ****** ****** ****** ****** ******
  20  ****** ****** ****** ****** ****** ****** ****** ****** ****** ******
      ****** ****** ****** ****** ****** ****** ****** ****** ****** ******
      ****** ****** ****** ****** ****** ****** ****** ****** ****** ******
  21  ****** ****** ****** ****** ****** ****** ****** ****** ****** ******
      ****** ****** ****** ****** ****** ****** ****** ****** ****** ******
      ****** ****** ****** ****** ****** ****** ****** ****** ****** ******
  22  ****** ****** ****** ****** ****** ****** ****** ****** ****** ******
      ****** ****** ****** ****** ****** ****** ****** ****** ****** ******
      ****** ****** ****** ****** ****** ****** ****** ****** ****** ******
  23  ****** ****** ****** ****** ****** ****** ****** ****** ****** ******
      ****** ****** ****** ****** ****** ****** ****** ****** ****** ******
      ****** ****** ****** ****** ****** ****** ****** ****** ****** ******
  24  ****** ****** ****** ****** ****** ****** ****** ****** ****** ******
      ****** ****** ****** ****** ****** ****** ****** ****** ****** ******
      ****** ****** ****** ****** ****** ****** ****** ****** ****** ******
  25  ****** ****** ****** ****** ****** ****** ****** ****** ****** ******
      ****** ****** ****** ****** ****** ****** ****** ****** ****** ******
      ****** ****** ****** ****** ****** ****** ****** ****** ****** ******

 HEAD WILL BE SAVED ON UNIT   51 AT END OF TIME STEP    1, STRESS PERIOD    1
1
  VOLUMETRIC BUDGET FOR ENTIRE MODEL AT END OF TIME STEP    1, STRESS PERIOD   1
  ------------------------------------------------------------------------------

     CUMULATIVE VOLUMES      L**3       RATES FOR THIS TIME STEP      L**3/T
     ------------------                 ------------------------

           IN:                                      IN:
           ---                                      ---
             STORAGE =    18030492.4598               STORAGE =      195983.6137
       CONSTANT HEAD =     1200017.2626         CONSTANT HEAD =       13043.6659
               WELLS =           0.0000                 WELLS =           0.0000
            RECHARGE =     1269600.0000              RECHARGE =       13800.0000
      STREAM LEAKAGE =      357545.3467        STREAM LEAKAGE =        3886.3625

            TOTAL IN =    20857655.0692              TOTAL IN =      226713.6421

          OUT:                                     OUT:
          ----                                     ----
             STORAGE =           0.0000               STORAGE =           0.0000
       CONSTANT HEAD =           0.0000         CONSTANT HEAD =           0.0000
               WELLS =     3299383.6039                 WELLS =       35862.8653
            RECHARGE =           0.0000              RECHARGE =           0.0000
      STREAM LEAKAGE =    17558271.7586        STREAM LEAKAGE =      190850.7800

           TOTAL OUT =    20857655.3625             TOTAL OUT =      226713.6452

            IN - OUT =          -0.2933              IN - OUT =      -3.1877E-03

 PERCENT DISCREPANCY =          -0.00     PERCENT DISCREPANCY =          -0.00






         TIME SUMMARY AT END OF TIME STEP    1 IN STRESS PERIOD    1
                    SECONDS     MINUTES      HOURS       DAYS        YEARS
                    -----------------------------------------------------------
   TIME STEP LENGTH 7.94880E+06 1.32480E+05  2208.0      92.000     0.25188    
 STRESS PERIOD TIME 7.94880E+06 1.32480E+05  2208.0      92.000     0.25188    
         TOTAL TIME 7.94880E+06 1.32480E+05  2208.0      92.000     0.25188    
1
1
                            STRESS PERIOD NO.    2, LENGTH =   91.00000    
                            -----------------------------------------------

                              NUMBER OF TIME STEPS =     1

                               MULTIPLIER FOR DELT =     1.500

                            INITIAL TIME STEP SIZE =   91.00000    

 WELL NO.  LAYER   ROW   COL   STRESS RATE         
 --------------------------------------------------
      1      1     11     27     -0.1170E+05
      2      1     10     14      -9990.    
      3      1     22      2      -5731.    
      4      1     21     17      -8441.    

      4 WELLS

                 RECHARGE =  2.000000E-03

 REUSING STREAM SEGMENT DATA FROM LAST STRESS PERIOD
 
 SOLVING FOR HEAD 


     7 CALLS TO PCG ROUTINE FOR TIME STEP   1 IN STRESS PERIOD    2
    27 TOTAL ITERATIONS

 OUTPUT CONTROL FOR STRESS PERIOD    2   TIME STEP    1
    SAVE BUDGET
    SAVE HEAD FOR ALL LAYERS
    PRINT HEAD FOR ALL LAYERS
 UBDSV2 SAVING "STREAMFLOW OUT  " ON UNIT  50 AT TIME STEP  1, STRESS PERIOD   2



 STREAM LISTING     PERIOD      2   STEP        1

 LAYER ROW COL. STREAM  RCH.  FLOW INTO     FLOW TO   FLOW OUT OF   OVRLND.     DIRECT     STREAM       STREAM     STREAM     STREAM   STREAMBED  STREAMBED
                SEG.NO.  NO.  STRM. RCH.    AQUIFER    STRM. RCH.    RUNOFF     PRECIP       ET          HEAD       DEPTH      WIDTH   CONDCTNC.   GRADIENT

   1   13    1     1     1    1.0000E+05 -3.7070E+03   1.0371E+05  0.000E+00  0.000E+00  0.000E+00  4.84076E+01  1.463E-01  2.000E+01  2.000E+04 -1.853E-01
   1   13    2     1     2    1.0371E+05 -4.9836E+03   1.0869E+05  0.000E+00  0.000E+00  0.000E+00  4.79341E+01  1.500E-01  2.000E+01  2.000E+04 -2.492E-01
   1   14    3     1     3    1.0869E+05 -1.0232E+03   1.0971E+05  0.000E+00  0.000E+00  0.000E+00  4.74593E+01  1.525E-01  2.000E+01  2.000E+04 -5.116E-02
   1   15    4     1     4    1.0971E+05 -1.0042E+03   1.1072E+05  0.000E+00  0.000E+00  0.000E+00  4.69829E+01  1.533E-01  2.000E+01  2.000E+04 -5.021E-02
   1   16    5     1     5    1.1072E+05 -3.2314E+03   1.1395E+05  0.000E+00  0.000E+00  0.000E+00  4.65074E+01  1.551E-01  2.000E+01  2.000E+04 -1.616E-01
   1   16    6     1     6    1.1395E+05 -2.0871E+03   1.1604E+05  0.000E+00  0.000E+00  0.000E+00  4.60323E+01  1.573E-01  2.000E+01  2.000E+04 -1.044E-01
   1   16    7     1     7    1.1604E+05 -2.0854E+03   1.1812E+05  0.000E+00  0.000E+00  0.000E+00  4.55567E+01  1.590E-01  2.000E+01  2.000E+04 -1.043E-01
   1   16    8     1     8    1.1812E+05 -2.1018E+03   1.2022E+05  0.000E+00  0.000E+00  0.000E+00  4.50812E+01  1.607E-01  2.000E+01  2.000E+04 -1.051E-01
   1   16    9     1     9    1.2022E+05 -2.0978E+03   1.2232E+05  0.000E+00  0.000E+00  0.000E+00  4.46056E+01  1.624E-01  2.000E+01  2.000E+04 -1.049E-01
   1   16   10     1    10    1.2232E+05 -2.0624E+03   1.2438E+05  0.000E+00  0.000E+00  0.000E+00  4.41300E+01  1.641E-01  2.000E+01  2.000E+04 -1.031E-01
   1   16   11     1    11    1.2438E+05 -2.0180E+03   1.2640E+05  0.000E+00  0.000E+00  0.000E+00  4.36543E+01  1.657E-01  2.000E+01  2.000E+04 -1.009E-01
   1   16   12     1    12    1.2640E+05 -3.3819E+03   1.2978E+05  0.000E+00  0.000E+00  0.000E+00  4.31792E+01  1.678E-01  2.000E+01  2.000E+04 -1.691E-01
   1   15   13     1    13    1.2978E+05 -3.2294E+03   1.3301E+05  0.000E+00  0.000E+00  0.000E+00  4.27045E+01  1.704E-01  2.000E+01  2.000E+04 -1.615E-01
   1   14   14     1    14    1.3301E+05 -3.3333E+03   1.3635E+05  0.000E+00  0.000E+00  0.000E+00  4.22298E+01  1.729E-01  2.000E+01  2.000E+04 -1.667E-01
   1   13   15     1    15    1.3635E+05 -3.3373E+03   1.3968E+05  0.000E+00  0.000E+00  0.000E+00  4.17550E+01  1.755E-01  2.000E+01  2.000E+04 -1.669E-01
   1   12   16     1    16    1.3968E+05 -3.9745E+03   1.4366E+05  0.000E+00  0.000E+00  0.000E+00  4.12805E+01  1.783E-01  2.000E+01  2.000E+04 -1.987E-01
   1   12   17     1    17    1.4366E+05 -3.1504E+03   1.4681E+05  0.000E+00  0.000E+00  0.000E+00  4.08060E+01  1.810E-01  2.000E+01  2.000E+04 -1.575E-01
   1   12   18     1    18    1.4681E+05 -3.2323E+03   1.5004E+05  0.000E+00  0.000E+00  0.000E+00  4.03311E+01  1.833E-01  2.000E+01  2.000E+04 -1.616E-01
   1   12   19     1    19    1.5004E+05 -4.3272E+03   1.5437E+05  0.000E+00  0.000E+00  0.000E+00  3.98566E+01  1.861E-01  2.000E+01  2.000E+04 -2.164E-01
   1   13   20     1    20    1.5437E+05 -3.4688E+03   1.5784E+05  0.000E+00  0.000E+00  0.000E+00  3.93821E+01  1.890E-01  2.000E+01  2.000E+04 -1.734E-01
   1   14   21     1    21    1.5784E+05 -3.2908E+03   1.6113E+05  0.000E+00  0.000E+00  0.000E+00  3.89073E+01  1.914E-01  2.000E+01  2.000E+04 -1.645E-01
   1   14   22     1    22    1.6113E+05  4.5288E+03   1.5660E+05  0.000E+00  0.000E+00  0.000E+00  3.84296E+01  1.910E-01  2.000E+01  2.000E+04  2.264E-01
   1    9   30     2     1    5.0000E+04 -1.4739E+03   5.1474E+04  0.000E+00  0.000E+00  0.000E+00  4.02419E+01  1.169E-01  2.000E+01  2.000E+04 -7.370E-02
   1    9   29     2     2    5.1474E+04 -1.6032E+03   5.3077E+04  0.000E+00  0.000E+00  0.000E+00  3.99940E+01  1.190E-01  2.000E+01  2.000E+04 -8.016E-02
   1    9   28     2     3    5.3077E+04 -1.5386E+03   5.4616E+04  0.000E+00  0.000E+00  0.000E+00  3.97461E+01  1.211E-01  2.000E+01  2.000E+04 -7.693E-02
   1    9   27     2     4    5.4616E+04 -3.2675E+03   5.7883E+04  0.000E+00  0.000E+00  0.000E+00  3.94993E+01  1.243E-01  2.000E+01  2.000E+04 -1.634E-01
   1   10   26     2     5    5.7883E+04 -5.9476E+02   5.8478E+04  0.000E+00  0.000E+00  0.000E+00  3.92519E+01  1.269E-01  2.000E+01  2.000E+04 -2.974E-02
   1   11   25     2     6    5.8478E+04 -1.1529E+03   5.9631E+04  0.000E+00  0.000E+00  0.000E+00  3.90030E+01  1.280E-01  2.000E+01  2.000E+04 -5.764E-02
   1   12   24     2     7    5.9631E+04 -2.5936E+03   6.2224E+04  0.000E+00  0.000E+00  0.000E+00  3.87555E+01  1.305E-01  2.000E+01  2.000E+04 -1.297E-01
   1   13   23     2     8    6.2224E+04 -5.8963E+02   6.2814E+04  0.000E+00  0.000E+00  0.000E+00  3.85075E+01  1.325E-01  2.000E+01  2.000E+04 -2.948E-02
   1   14   22     2     9    6.2814E+04  1.0804E+03   6.1734E+04  0.000E+00  0.000E+00  0.000E+00  3.82572E+01  1.322E-01  2.000E+01  2.000E+04  5.402E-02
   1   14   22     3     1    2.1833E+05 -9.0691E+03   2.2740E+05  0.000E+00  0.000E+00  0.000E+00  3.77497E+01  1.941E-01  2.000E+01  2.000E+04 -4.535E-01
   1   15   23     3     2    2.2740E+05 -9.7034E+02   2.2837E+05  0.000E+00  0.000E+00  0.000E+00  3.68634E+01  1.968E-01  2.000E+01  2.000E+04 -4.852E-02
   1   15   24     3     3    2.2837E+05 -6.3552E+02   2.2901E+05  0.000E+00  0.000E+00  0.000E+00  3.59750E+01  1.972E-01  2.000E+01  2.000E+04 -3.178E-02
   1   15   25     3     4    2.2901E+05 -6.3029E+02   2.2964E+05  0.000E+00  0.000E+00  0.000E+00  3.50864E+01  1.975E-01  2.000E+01  2.000E+04 -3.151E-02
   1   15   26     3     5    2.2964E+05 -6.6443E+02   2.3030E+05  0.000E+00  0.000E+00  0.000E+00  3.41978E+01  1.978E-01  2.000E+01  2.000E+04 -3.322E-02
   1   16   27     3     6    2.3030E+05 -7.8399E+02   2.3109E+05  0.000E+00  0.000E+00  0.000E+00  3.33093E+01  1.982E-01  2.000E+01  2.000E+04 -3.920E-02
   1   17   28     3     7    2.3109E+05 -2.7489E+03   2.3384E+05  0.000E+00  0.000E+00  0.000E+00  3.24213E+01  1.991E-01  2.000E+01  2.000E+04 -1.374E-01
   1   18   29     3     8    2.3384E+05 -4.7846E+03   2.3862E+05  0.000E+00  0.000E+00  0.000E+00  3.15344E+01  2.010E-01  2.000E+01  2.000E+04 -2.392E-01
   1   18   30     3     9    2.3862E+05 -4.4297E+03   2.4305E+05  0.000E+00  0.000E+00  0.000E+00  3.06478E+01  2.034E-01  2.000E+01  2.000E+04 -2.215E-01



1
              HEAD IN LAYER   1 AT END OF TIME STEP   1 IN STRESS PERIOD    2
  ---------------------------------------------------------------------------

          1      2      3      4      5      6      7      8      9     10
         11     12     13     14     15     16     17     18     19     20
         21     22     23     24     25     26     27     28     29     30
 .........................................................................
   1  ****** ****** ****** ****** ****** ****** ****** ****** ****** ******
      ****** ****** ****** ****** ****** ****** ****** ****** ****** ******
      ****** ****** ****** ****** ****** ****** ****** ****** ****** ******
   2  ****** ****** ****** ****** ****** ****** ****** ****** ****** ******
      ****** ****** ****** ****** ****** ****** ****** ****** ****** ******
      ****** ****** ****** ****** ****** ****** ****** ****** ****** ******
   3  ****** ****** ****** ****** ****** ****** ****** ****** ****** ******
      ****** ****** ****** ****** ****** ****** ****** ****** ****** ******
      ****** ****** ****** ****** ****** ****** ****** ****** ****** ******
   4  ****** ****** ****** ****** ****** ****** ****** ****** ****** ******
      ****** ****** ****** ****** ****** ****** ****** ****** ****** ******
      ****** ****** ****** ****** ****** ****** ****** ****** ****** ******
   5  ****** ****** ****** ****** ****** ****** ****** ****** ****** ******
      ****** ****** ****** ****** ****** ****** ****** ****** ****** ******
      ****** ****** ****** ****** ****** ****** ****** ****** ****** ******
   6  ****** ****** ****** ****** ****** ****** ****** ****** ****** ******
      ****** ****** ****** ****** ****** ****** ****** ****** ****** ******
      ****** ****** ****** ****** ****** ****** ****** ****** ****** ******
   7  ****** ****** ****** ****** ****** ****** ****** ****** ****** ******
      ****** ****** ****** ****** ****** ****** ****** ****** ****** ******
      ****** ****** ****** ****** ****** ****** ****** ****** ****** ******
   8  ****** ****** ****** ****** ****** ****** ****** ****** ****** ******
      ****** ****** ****** ****** ****** ****** ****** ****** ****** ******
      ****** ****** ****** ****** ****** ****** ****** ****** ****** ******
   9  ****** ****** ****** ****** ****** ****** ****** ****** ****** ******
      ****** ****** ****** ****** ****** ****** ****** ****** ****** ******
      ****** ****** ****** ****** ****** ****** ****** ****** ****** ******
  10  ****** ****** ****** ****** ****** ****** ****** ****** ****** ******
      ****** ****** ****** ****** ****** ****** ****** ****** ****** ******
      ****** ****** ****** ****** ****** ****** ****** ****** ****** ******
  11  ****** ****** ****** ****** ****** ****** ****** ****** ****** ******
      ****** ****** ****** ****** ****** ****** ****** ****** ****** ******
      ****** ****** ****** ****** ****** ****** ****** ****** ****** ******
  12  ****** ****** ****** ****** ****** ****** ****** ****** ****** ******
      ****** ****** ****** ****** ****** ****** ****** ****** ****** ******
      ****** ****** ****** ****** ****** ****** ****** ****** ****** ******
  13  ****** ****** ****** ****** ****** ****** ****** ****** ****** ******
      ****** ****** ****** ****** ****** ****** ****** ****** ****** ******
      ****** ****** ****** ****** ****** ****** ****** ****** ****** ******
  14  ****** ****** ****** ****** ****** ****** ****** ****** ****** ******
      ****** ****** ****** ****** ****** ****** ****** ****** ****** ******
      ****** ****** ****** ****** ****** ****** ****** ****** ****** ******
  15  ****** ****** ****** ****** ****** ****** ****** ****** ****** ******
      ****** ****** ****** ****** ****** ****** ****** ****** ****** ******
      ****** ****** ****** ****** ****** ****** ****** ****** ****** ******
  16  ****** ****** ****** ****** ****** ****** ****** ****** ****** ******
      ****** ****** ****** ****** ****** ****** ****** ****** ****** ******
      ****** ****** ****** ****** ****** ****** ****** ****** ****** ******
  17  ****** ****** ****** ****** ****** ****** ****** ****** ****** ******
      ****** ****** ****** ****** ****** ****** ****** ****** ****** ******
      ****** ****** ****** ****** ****** ****** ****** ****** ****** ******
  18  ****** ****** ****** ****** ****** ****** ****** ****** ****** ******
      ****** ****** ****** ****** ****** ****** ****** ****** ****** ******
      ****** ****** ****** ****** ****** ****** ****** ****** ****** ******
  19  ****** ****** ****** ****** ****** ****** ****** ****** ****** ******
      ****** ****** ****** ****** ****** ****** ****** ****** ****** ******
      ****** ****** ****** ****** ****** ****** ****** ****** ****** ******
  20  ****** ****** ****** ****** ****** ****** ****** ****** ****** ******
      ****** ****** ****** ****** ****** ****** ****** ****** ****** ******
      ****** ****** ****** ****** ****** ****** ****** ****** ****** ******
  21  ****** ****** ****** ****** ****** ****** ****** ****** ****** ******
      ****** ****** ****** ****** ****** ****** ****** ****** ****** ******
      ****** ****** ****** ****** ****** ****** ****** ****** ****** ******
  22  ****** ****** ****** ****** ****** ****** ****** ****** ****** ******
      ****** ****** ****** ****** ****** ****** ****** ****** ****** ******
      ****** ****** ****** ****** ****** ****** ****** ****** ****** ******
  23  ****** ****** ****** ****** ****** ****** ****** ****** ****** ******
      ****** ****** ****** ****** ****** ****** ****** ****** ****** ******
      ****** ****** ****** ****** ****** ****** ****** ****** ****** ******
  24  ****** ****** ****** ****** ****** ****** ****** ****** ****** ******
      ****** ****** ****** ****** ****** ****** ****** ****** ****** ******
      ****** ****** ****** ****** ****** ****** ****** ****** ****** ******
  25  ****** ****** ****** ****** ****** ****** ****** ****** ****** ******
      ****** ****** ****** ****** ****** ****** ****** ****** ****** ******
      ****** ****** ****** ****** ****** ****** ****** ****** ****** ******

 HEAD WILL BE SAVED ON UNIT   51 AT END OF TIME STEP    1, STRESS PERIOD    2
1
  VOLUMETRIC BUDGET FOR ENTIRE MODEL AT END OF TIME STEP    1, STRESS PERIOD   2
  ------------------------------------------------------------------------------

     CUMULATIVE VOLUMES      L**3       RATES FOR THIS TIME STEP      L**3/T
     ------------------                 ------------------------

           IN:                                      IN:
           ---                                      ---
             STORAGE =    23107415.1774               STORAGE =       55790.3595
       CONSTANT HEAD =     2830905.1967         CONSTANT HEAD =       17921.8454
               WELLS =           0.0000                 WELLS =           0.0000
            RECHARGE =     6292800.0000              RECHARGE =       55200.0000
      STREAM LEAKAGE =      867979.0308        STREAM LEAKAGE =        5609.1614

            TOTAL IN =    33099099.4050              TOTAL IN =      134521.3663

          OUT:                                     OUT:
          ----                                     ----
             STORAGE =           0.0000               STORAGE =           0.0000
       CONSTANT HEAD =           0.0000         CONSTANT HEAD =           0.0000
               WELLS =     6562904.3425                 WELLS =       35862.8653
            RECHARGE =           0.0000              RECHARGE =           0.0000
      STREAM LEAKAGE =    26536196.3737        STREAM LEAKAGE =       98658.5123

           TOTAL OUT =    33099100.7162             TOTAL OUT =      134521.3775

            IN - OUT =          -1.3112              IN - OUT =      -1.1186E-02

 PERCENT DISCREPANCY =          -0.00     PERCENT DISCREPANCY =          -0.00






         TIME SUMMARY AT END OF TIME STEP    1 IN STRESS PERIOD    2
                    SECONDS     MINUTES      HOURS       DAYS        YEARS
                    -----------------------------------------------------------
   TIME STEP LENGTH 7.86240E+06 1.31040E+05  2184.0      91.000     0.24914    
 STRESS PERIOD TIME 7.86240E+06 1.31040E+05  2184.0      91.000     0.24914    
         TOTAL TIME 1.58112E+07 2.63520E+05  4392.0      183.00     0.50103    
1
1
                            STRESS PERIOD NO.    3, LENGTH =   91.00000    
                            -----------------------------------------------

                              NUMBER OF TIME STEPS =     1

                               MULTIPLIER FOR DELT =     1.500

                            INITIAL TIME STEP SIZE =   91.00000    

 WELL NO.  LAYER   ROW   COL   STRESS RATE         
 --------------------------------------------------
      1      1     11     27     -0.1170E+05
      2      1     10     14      -9990.    
      3      1     22      2      -5731.    
      4      1     21     17      -8441.    

      4 WELLS

                 RECHARGE =   0.00000    

 REUSING STREAM SEGMENT DATA FROM LAST STRESS PERIOD
 
 SOLVING FOR HEAD 


     7 CALLS TO PCG ROUTINE FOR TIME STEP   1 IN STRESS PERIOD    3
    27 TOTAL ITERATIONS

 OUTPUT CONTROL FOR STRESS PERIOD    3   TIME STEP    1
    SAVE BUDGET
    SAVE HEAD FOR ALL LAYERS
    PRINT HEAD FOR ALL LAYERS
 UBDSV2 SAVING "STREAMFLOW OUT  " ON UNIT  50 AT TIME STEP  1, STRESS PERIOD   3



 STREAM LISTING     PERIOD      3   STEP        1

 LAYER ROW COL. STREAM  RCH.  FLOW INTO     FLOW TO   FLOW OUT OF   OVRLND.     DIRECT     STREAM       STREAM     STREAM     STREAM   STREAMBED  STREAMBED
                SEG.NO.  NO.  STRM. RCH.    AQUIFER    STRM. RCH.    RUNOFF     PRECIP       ET          HEAD       DEPTH      WIDTH   CONDCTNC.   GRADIENT

   1   13    1     1     1    1.0000E+05 -2.3841E+03   1.0238E+05  0.000E+00  0.000E+00  0.000E+00  4.84070E+01  1.457E-01  2.000E+01  2.000E+04 -1.192E-01
   1   13    2     1     2    1.0238E+05 -3.5091E+03   1.0589E+05  0.000E+00  0.000E+00  0.000E+00  4.79323E+01  1.482E-01  2.000E+01  2.000E+04 -1.755E-01
   1   14    3     1     3    1.0589E+05 -5.4047E+02   1.0643E+05  0.000E+00  0.000E+00  0.000E+00  4.74568E+01  1.499E-01  2.000E+01  2.000E+04 -2.702E-02
   1   15    4     1     4    1.0643E+05 -4.6853E+02   1.0690E+05  0.000E+00  0.000E+00  0.000E+00  4.69799E+01  1.504E-01  2.000E+01  2.000E+04 -2.343E-02
   1   16    5     1     5    1.0690E+05 -1.2259E+03   1.0813E+05  0.000E+00  0.000E+00  0.000E+00  4.65034E+01  1.511E-01  2.000E+01  2.000E+04 -6.129E-02
   1   16    6     1     6    1.0813E+05 -9.8995E+02   1.0912E+05  0.000E+00  0.000E+00  0.000E+00  4.60270E+01  1.520E-01  2.000E+01  2.000E+04 -4.950E-02
   1   16    7     1     7    1.0912E+05 -1.0607E+03   1.1018E+05  0.000E+00  0.000E+00  0.000E+00  4.55506E+01  1.529E-01  2.000E+01  2.000E+04 -5.303E-02
   1   16    8     1     8    1.1018E+05 -1.1018E+03   1.1128E+05  0.000E+00  0.000E+00  0.000E+00  4.50742E+01  1.538E-01  2.000E+01  2.000E+04 -5.509E-02
   1   16    9     1     9    1.1128E+05 -1.1051E+03   1.1239E+05  0.000E+00  0.000E+00  0.000E+00  4.45979E+01  1.547E-01  2.000E+01  2.000E+04 -5.525E-02
   1   16   10     1    10    1.1239E+05 -1.0698E+03   1.1346E+05  0.000E+00  0.000E+00  0.000E+00  4.41215E+01  1.556E-01  2.000E+01  2.000E+04 -5.349E-02
   1   16   11     1    11    1.1346E+05 -1.0152E+03   1.1447E+05  0.000E+00  0.000E+00  0.000E+00  4.36451E+01  1.565E-01  2.000E+01  2.000E+04 -5.076E-02
   1   16   12     1    12    1.1447E+05 -1.6344E+03   1.1610E+05  0.000E+00  0.000E+00  0.000E+00  4.31689E+01  1.575E-01  2.000E+01  2.000E+04 -8.172E-02
   1   15   13     1    13    1.1610E+05 -1.4632E+03   1.1757E+05  0.000E+00  0.000E+00  0.000E+00  4.26929E+01  1.588E-01  2.000E+01  2.000E+04 -7.316E-02
   1   14   14     1    14    1.1757E+05 -1.5258E+03   1.1909E+05  0.000E+00  0.000E+00  0.000E+00  4.22168E+01  1.600E-01  2.000E+01  2.000E+04 -7.629E-02
   1   13   15     1    15    1.1909E+05 -1.5344E+03   1.2063E+05  0.000E+00  0.000E+00  0.000E+00  4.17408E+01  1.613E-01  2.000E+01  2.000E+04 -7.672E-02
   1   12   16     1    16    1.2063E+05 -2.1241E+03   1.2275E+05  0.000E+00  0.000E+00  0.000E+00  4.12650E+01  1.627E-01  2.000E+01  2.000E+04 -1.062E-01
   1   12   17     1    17    1.2275E+05 -1.8235E+03   1.2458E+05  0.000E+00  0.000E+00  0.000E+00  4.07893E+01  1.643E-01  2.000E+01  2.000E+04 -9.117E-02
   1   12   18     1    18    1.2458E+05 -1.9334E+03   1.2651E+05  0.000E+00  0.000E+00  0.000E+00  4.03135E+01  1.658E-01  2.000E+01  2.000E+04 -9.667E-02
   1   12   19     1    19    1.2651E+05 -2.7156E+03   1.2922E+05  0.000E+00  0.000E+00  0.000E+00  3.98381E+01  1.676E-01  2.000E+01  2.000E+04 -1.358E-01
   1   13   20     1    20    1.2922E+05 -1.9721E+03   1.3120E+05  0.000E+00  0.000E+00  0.000E+00  3.93627E+01  1.695E-01  2.000E+01  2.000E+04 -9.861E-02
   1   14   21     1    21    1.3120E+05 -1.7367E+03   1.3293E+05  0.000E+00  0.000E+00  0.000E+00  3.88868E+01  1.709E-01  2.000E+01  2.000E+04 -8.683E-02
   1   14   22     1    22    1.3293E+05  4.8943E+03   1.2804E+05  0.000E+00  0.000E+00  0.000E+00  3.84083E+01  1.697E-01  2.000E+01  2.000E+04  2.447E-01
   1    9   30     2     1    5.0000E+04 -2.5679E+02   5.0257E+04  0.000E+00  0.000E+00  0.000E+00  4.02410E+01  1.160E-01  2.000E+01  2.000E+04 -1.284E-02
   1    9   29     2     2    5.0257E+04 -3.8878E+02   5.0646E+04  0.000E+00  0.000E+00  0.000E+00  3.99915E+01  1.165E-01  2.000E+01  2.000E+04 -1.944E-02
   1    9   28     2     3    5.0646E+04 -3.1366E+02   5.0959E+04  0.000E+00  0.000E+00  0.000E+00  3.97420E+01  1.170E-01  2.000E+01  2.000E+04 -1.568E-02
   1    9   27     2     4    5.0959E+04 -1.5189E+03   5.2478E+04  0.000E+00  0.000E+00  0.000E+00  3.94932E+01  1.182E-01  2.000E+01  2.000E+04 -7.595E-02
   1   10   26     2     5    5.2478E+04  1.0546E+03   5.1424E+04  0.000E+00  0.000E+00  0.000E+00  3.92436E+01  1.186E-01  2.000E+01  2.000E+04  5.273E-02
   1   11   25     2     6    5.1424E+04  3.8524E+02   5.1038E+04  0.000E+00  0.000E+00  0.000E+00  3.89926E+01  1.176E-01  2.000E+01  2.000E+04  1.926E-02
   1   12   24     2     7    5.1038E+04 -1.2263E+03   5.2265E+04  0.000E+00  0.000E+00  0.000E+00  3.87431E+01  1.181E-01  2.000E+01  2.000E+04 -6.131E-02
   1   13   23     2     8    5.2265E+04 -2.5197E+02   5.2517E+04  0.000E+00  0.000E+00  0.000E+00  3.84942E+01  1.192E-01  2.000E+01  2.000E+04 -1.260E-02
   1   14   22     2     9    5.2517E+04  1.5926E+03   5.0924E+04  0.000E+00  0.000E+00  0.000E+00  3.82432E+01  1.182E-01  2.000E+01  2.000E+04  7.963E-02
   1   14   22     3     1    1.7896E+05 -8.7077E+03   1.8767E+05  0.000E+00  0.000E+00  0.000E+00  3.77282E+01  1.727E-01  2.000E+01  2.000E+04 -4.354E-01
   1   15   23     3     2    1.8767E+05 -5.6095E+02   1.8823E+05  0.000E+00  0.000E+00  0.000E+00  3.68419E+01  1.753E-01  2.000E+01  2.000E+04 -2.805E-02
   1   15   24     3     3    1.8823E+05 -3.0578E+02   1.8854E+05  0.000E+00  0.000E+00  0.000E+00  3.59533E+01  1.755E-01  2.000E+01  2.000E+04 -1.529E-02
   1   15   25     3     4    1.8854E+05 -2.8398E+02   1.8882E+05  0.000E+00  0.000E+00  0.000E+00  3.50646E+01  1.757E-01  2.000E+01  2.000E+04 -1.420E-02
   1   15   26     3     5    1.8882E+05 -2.4863E+02   1.8907E+05  0.000E+00  0.000E+00  0.000E+00  3.41758E+01  1.758E-01  2.000E+01  2.000E+04 -1.243E-02
   1   16   27     3     6    1.8907E+05 -3.0579E+02   1.8938E+05  0.000E+00  0.000E+00  0.000E+00  3.32871E+01  1.760E-01  2.000E+01  2.000E+04 -1.529E-02
   1   17   28     3     7    1.8938E+05 -1.2838E+03   1.9066E+05  0.000E+00  0.000E+00  0.000E+00  3.23987E+01  1.764E-01  2.000E+01  2.000E+04 -6.419E-02
   1   18   29     3     8    1.9066E+05 -3.2116E+03   1.9387E+05  0.000E+00  0.000E+00  0.000E+00  3.15110E+01  1.777E-01  2.000E+01  2.000E+04 -1.606E-01
   1   18   30     3     9    1.9387E+05 -3.2522E+03   1.9712E+05  0.000E+00  0.000E+00  0.000E+00  3.06239E+01  1.795E-01  2.000E+01  2.000E+04 -1.626E-01



1
              HEAD IN LAYER   1 AT END OF TIME STEP   1 IN STRESS PERIOD    3
  ---------------------------------------------------------------------------

          1      2      3      4      5      6      7      8      9     10
         11     12     13     14     15     16     17     18     19     20
         21     22     23     24     25     26     27     28     29     30
 .........................................................................
   1  ****** ****** ****** ****** ****** ****** ****** ****** ****** ******
      ****** ****** ****** ****** ****** ****** ****** ****** ****** ******
      ****** ****** ****** ****** ****** ****** ****** ****** ****** ******
   2  ****** ****** ****** ****** ****** ****** ****** ****** ****** ******
      ****** ****** ****** ****** ****** ****** ****** ****** ****** ******
      ****** ****** ****** ****** ****** ****** ****** ****** ****** ******
   3  ****** ****** ****** ****** ****** ****** ****** ****** ****** ******
      ****** ****** ****** ****** ****** ****** ****** ****** ****** ******
      ****** ****** ****** ****** ****** ****** ****** ****** ****** ******
   4  ****** ****** ****** ****** ****** ****** ****** ****** ****** ******
      ****** ****** ****** ****** ****** ****** ****** ****** ****** ******
      ****** ****** ****** ****** ****** ****** ****** ****** ****** ******
   5  ****** ****** ****** ****** ****** ****** ****** ****** ****** ******
      ****** ****** ****** ****** ****** ****** ****** ****** ****** ******
      ****** ****** ****** ****** ****** ****** ****** ****** ****** ******
   6  ****** ****** ****** ****** ****** ****** ****** ****** ****** ******
      ****** ****** ****** ****** ****** ****** ****** ****** ****** ******
      ****** ****** ****** ****** ****** ****** ****** ****** ****** ******
   7  ****** ****** ****** ****** ****** ****** ****** ****** ****** ******
      ****** ****** ****** ****** ****** ****** ****** ****** ****** ******
      ****** ****** ****** ****** ****** ****** ****** ****** ****** ******
   8  ****** ****** ****** ****** ****** ****** ****** ****** ****** ******
      ****** ****** ****** ****** ****** ****** ****** ****** ****** ******
      ****** ****** ****** ****** ****** ****** ****** ****** ****** ******
   9  ****** ****** ****** ****** ****** ****** ****** ****** ****** ******
      ****** ****** ****** ****** ****** ****** ****** ****** ****** ******
      ****** ****** ****** ****** ****** ****** ****** ****** ****** ******
  10  ****** ****** ****** ****** ****** ****** ****** ****** ****** ******
      ****** ****** ****** ****** ****** ****** ****** ****** ****** ******
      ****** ****** ****** ****** ****** ****** ****** ****** ****** ******
  11  ****** ****** ****** ****** ****** ****** ****** ****** ****** ******
      ****** ****** ****** ****** ****** ****** ****** ****** ****** ******
      ****** ****** ****** ****** ****** ****** ****** ****** ****** ******
  12  ****** ****** ****** ****** ****** ****** ****** ****** ****** ******
      ****** ****** ****** ****** ****** ****** ****** ****** ****** ******
      ****** ****** ****** ****** ****** ****** ****** ****** ****** ******
  13  ****** ****** ****** ****** ****** ****** ****** ****** ****** ******
      ****** ****** ****** ****** ****** ****** ****** ****** ****** ******
      ****** ****** ****** ****** ****** ****** ****** ****** ****** ******
  14  ****** ****** ****** ****** ****** ****** ****** ****** ****** ******
      ****** ****** ****** ****** ****** ****** ****** ****** ****** ******
      ****** ****** ****** ****** ****** ****** ****** ****** ****** ******
  15  ****** ****** ****** ****** ****** ****** ****** ****** ****** ******
      ****** ****** ****** ****** ****** ****** ****** ****** ****** ******
      ****** ****** ****** ****** ****** ****** ****** ****** ****** ******
  16  ****** ****** ****** ****** ****** ****** ****** ****** ****** ******
      ****** ****** ****** ****** ****** ****** ****** ****** ****** ******
      ****** ****** ****** ****** ****** ****** ****** ****** ****** ******
  17  ****** ****** ****** ****** ****** ****** ****** ****** ****** ******
      ****** ****** ****** ****** ****** ****** ****** ****** ****** ******
      ****** ****** ****** ****** ****** ****** ****** ****** ****** ******
  18  ****** ****** ****** ****** ****** ****** ****** ****** ****** ******
      ****** ****** ****** ****** ****** ****** ****** ****** ****** ******
      ****** ****** ****** ****** ****** ****** ****** ****** ****** ******
  19  ****** ****** ****** ****** ****** ****** ****** ****** ****** ******
      ****** ****** ****** ****** ****** ****** ****** ****** ****** ******
      ****** ****** ****** ****** ****** ****** ****** ****** ****** ******
  20  ****** ****** ****** ****** ****** ****** ****** ****** ****** ******
      ****** ****** ****** ****** ****** ****** ****** ****** ****** ******
      ****** ****** ****** ****** ****** ****** ****** ****** ****** ******
  21  ****** ****** ****** ****** ****** ****** ****** ****** ****** ******
      ****** ****** ****** ****** ****** ****** ****** ****** ****** ******
      ****** ****** ****** ****** ****** ****** ****** ****** ****** ******
  22  ****** ****** ****** ****** ****** ****** ****** ****** ****** ******
      ****** ****** ****** ****** ****** ****** ****** ****** ****** ******
      ****** ****** ****** ****** ****** ****** ****** ****** ****** ******
  23  ****** ****** ****** ****** ****** ****** ****** ****** ****** ******
      ****** ****** ****** ****** ****** ****** ****** ****** ****** ******
      ****** ****** ****** ****** ****** ****** ****** ****** ****** ******
  24  ****** ****** ****** ****** ****** ****** ****** ****** ****** ******
      ****** ****** ****** ****** ****** ****** ****** ****** ****** ******
      ****** ****** ****** ****** ****** ****** ****** ****** ****** ******
  25  ****** ****** ****** ****** ****** ****** ****** ****** ****** ******
      ****** ****** ****** ****** ****** ****** ****** ****** ****** ******
      ****** ****** ****** ****** ****** ****** ****** ****** ****** ******

 HEAD WILL BE SAVED ON UNIT   51 AT END OF TIME STEP    1, STRESS PERIOD    3
1
  VOLUMETRIC BUDGET FOR ENTIRE MODEL AT END OF TIME STEP    1, STRESS PERIOD   3
  ------------------------------------------------------------------------------

     CUMULATIVE VOLUMES      L**3       RATES FOR THIS TIME STEP      L**3/T
     ------------------                 ------------------------

           IN:                                      IN:
           ---                                      ---
             STORAGE =    28229540.1613               STORAGE =       56287.0877
       CONSTANT HEAD =     5260549.8323         CONSTANT HEAD =       26699.3916
               WELLS =           0.0000                 WELLS =           0.0000
            RECHARGE =     6292800.0000              RECHARGE =           0.0000
      STREAM LEAKAGE =     1589315.2869        STREAM LEAKAGE =        7926.7720

            TOTAL IN =    41372205.2804              TOTAL IN =       90913.2514

          OUT:                                     OUT:
          ----                                     ----
             STORAGE =           0.0000               STORAGE =           0.0000
       CONSTANT HEAD =           0.0000         CONSTANT HEAD =           0.0000
               WELLS =     9826425.0811                 WELLS =       35862.8653
            RECHARGE =           0.0000              RECHARGE =           0.0000
      STREAM LEAKAGE =    31545782.2482        STREAM LEAKAGE =       55050.3942

           TOTAL OUT =    41372207.3293             TOTAL OUT =       90913.2595

            IN - OUT =          -2.0489              IN - OUT =      -8.1062E-03

 PERCENT DISCREPANCY =          -0.00     PERCENT DISCREPANCY =          -0.00






         TIME SUMMARY AT END OF TIME STEP    1 IN STRESS PERIOD    3
                    SECONDS     MINUTES      HOURS       DAYS        YEARS
                    -----------------------------------------------------------
   TIME STEP LENGTH 7.86240E+06 1.31040E+05  2184.0      91.000     0.24914    
 STRESS PERIOD TIME 7.86240E+06 1.31040E+05  2184.0      91.000     0.24914    
         TOTAL TIME 2.36736E+07 3.94560E+05  6576.0      274.00     0.75017    
1
1
                            STRESS PERIOD NO.    4, LENGTH =   91.00000    
                            -----------------------------------------------

                              NUMBER OF TIME STEPS =     1

                               MULTIPLIER FOR DELT =     1.500

                            INITIAL TIME STEP SIZE =   91.00000    

 WELL NO.  LAYER   ROW   COL   STRESS RATE         
 --------------------------------------------------
      1      1     11     27     -0.1170E+05
      2      1     10     14      -9990.    
      3      1     22      2      -5731.    
      4      1     21     17      -8441.    

      4 WELLS

                 RECHARGE =  1.000000E-03

 REUSING STREAM SEGMENT DATA FROM LAST STRESS PERIOD
 
 SOLVING FOR HEAD 


     6 CALLS TO PCG ROUTINE FOR TIME STEP   1 IN STRESS PERIOD    4
    23 TOTAL ITERATIONS

 OUTPUT CONTROL FOR STRESS PERIOD    4   TIME STEP    1
    SAVE BUDGET
    SAVE HEAD FOR ALL LAYERS
    PRINT HEAD FOR ALL LAYERS
 UBDSV2 SAVING "STREAMFLOW OUT  " ON UNIT  50 AT TIME STEP  1, STRESS PERIOD   4



 STREAM LISTING     PERIOD      4   STEP        1

 LAYER ROW COL. STREAM  RCH.  FLOW INTO     FLOW TO   FLOW OUT OF   OVRLND.     DIRECT     STREAM       STREAM     STREAM     STREAM   STREAMBED  STREAMBED
                SEG.NO.  NO.  STRM. RCH.    AQUIFER    STRM. RCH.    RUNOFF     PRECIP       ET          HEAD       DEPTH      WIDTH   CONDCTNC.   GRADIENT

   1   13    1     1     1    1.0000E+05 -2.1098E+03   1.0211E+05  0.000E+00  0.000E+00  0.000E+00  4.84069E+01  1.456E-01  2.000E+01  2.000E+04 -1.055E-01
   1   13    2     1     2    1.0211E+05 -3.1968E+03   1.0531E+05  0.000E+00  0.000E+00  0.000E+00  4.79319E+01  1.478E-01  2.000E+01  2.000E+04 -1.598E-01
   1   14    3     1     3    1.0531E+05 -5.0067E+02   1.0581E+05  0.000E+00  0.000E+00  0.000E+00  4.74562E+01  1.494E-01  2.000E+01  2.000E+04 -2.503E-02
   1   15    4     1     4    1.0581E+05 -4.1485E+02   1.0622E+05  0.000E+00  0.000E+00  0.000E+00  4.69794E+01  1.498E-01  2.000E+01  2.000E+04 -2.074E-02
   1   16    5     1     5    1.0622E+05 -8.2206E+02   1.0704E+05  0.000E+00  0.000E+00  0.000E+00  4.65026E+01  1.503E-01  2.000E+01  2.000E+04 -4.110E-02
   1   16    6     1     6    1.0704E+05 -7.9465E+02   1.0784E+05  0.000E+00  0.000E+00  0.000E+00  4.60260E+01  1.510E-01  2.000E+01  2.000E+04 -3.973E-02
   1   16    7     1     7    1.0784E+05 -8.8308E+02   1.0872E+05  0.000E+00  0.000E+00  0.000E+00  4.55495E+01  1.517E-01  2.000E+01  2.000E+04 -4.415E-02
   1   16    8     1     8    1.0872E+05 -9.3145E+02   1.0965E+05  0.000E+00  0.000E+00  0.000E+00  4.50729E+01  1.525E-01  2.000E+01  2.000E+04 -4.657E-02
   1   16    9     1     9    1.0965E+05 -9.3928E+02   1.1059E+05  0.000E+00  0.000E+00  0.000E+00  4.45964E+01  1.533E-01  2.000E+01  2.000E+04 -4.696E-02
   1   16   10     1    10    1.1059E+05 -9.0827E+02   1.1150E+05  0.000E+00  0.000E+00  0.000E+00  4.41199E+01  1.540E-01  2.000E+01  2.000E+04 -4.541E-02
   1   16   11     1    11    1.1150E+05 -8.5294E+02   1.1235E+05  0.000E+00  0.000E+00  0.000E+00  4.36434E+01  1.548E-01  2.000E+01  2.000E+04 -4.265E-02
   1   16   12     1    12    1.1235E+05 -1.3082E+03   1.1366E+05  0.000E+00  0.000E+00  0.000E+00  4.31670E+01  1.557E-01  2.000E+01  2.000E+04 -6.541E-02
   1   15   13     1    13    1.1366E+05 -1.1694E+03   1.1483E+05  0.000E+00  0.000E+00  0.000E+00  4.26908E+01  1.567E-01  2.000E+01  2.000E+04 -5.847E-02
   1   14   14     1    14    1.1483E+05 -1.2153E+03   1.1605E+05  0.000E+00  0.000E+00  0.000E+00  4.22145E+01  1.577E-01  2.000E+01  2.000E+04 -6.077E-02
   1   13   15     1    15    1.1605E+05 -1.2053E+03   1.1725E+05  0.000E+00  0.000E+00  0.000E+00  4.17382E+01  1.587E-01  2.000E+01  2.000E+04 -6.026E-02
   1   12   16     1    16    1.1725E+05 -1.7075E+03   1.1896E+05  0.000E+00  0.000E+00  0.000E+00  4.12621E+01  1.598E-01  2.000E+01  2.000E+04 -8.537E-02
   1   12   17     1    17    1.1896E+05 -1.5735E+03   1.2053E+05  0.000E+00  0.000E+00  0.000E+00  4.07862E+01  1.612E-01  2.000E+01  2.000E+04 -7.867E-02
   1   12   18     1    18    1.2053E+05 -1.7029E+03   1.2224E+05  0.000E+00  0.000E+00  0.000E+00  4.03102E+01  1.625E-01  2.000E+01  2.000E+04 -8.514E-02
   1   12   19     1    19    1.2224E+05 -2.4371E+03   1.2467E+05  0.000E+00  0.000E+00  0.000E+00  3.98346E+01  1.641E-01  2.000E+01  2.000E+04 -1.219E-01
   1   13   20     1    20    1.2467E+05 -1.7811E+03   1.2645E+05  0.000E+00  0.000E+00  0.000E+00  3.93590E+01  1.658E-01  2.000E+01  2.000E+04 -8.906E-02
   1   14   21     1    21    1.2645E+05 -1.4697E+03   1.2792E+05  0.000E+00  0.000E+00  0.000E+00  3.88830E+01  1.671E-01  2.000E+01  2.000E+04 -7.349E-02
   1   14   22     1    22    1.2792E+05  4.9321E+03   1.2299E+05  0.000E+00  0.000E+00  0.000E+00  3.84044E+01  1.657E-01  2.000E+01  2.000E+04  2.466E-01
   1    9   30     2     1    5.0000E+04 -1.6729E+02   5.0167E+04  0.000E+00  0.000E+00  0.000E+00  4.02410E+01  1.160E-01  2.000E+01  2.000E+04 -8.364E-03
   1    9   29     2     2    5.0167E+04 -2.9251E+02   5.0460E+04  0.000E+00  0.000E+00  0.000E+00  3.99913E+01  1.163E-01  2.000E+01  2.000E+04 -1.463E-02
   1    9   28     2     3    5.0460E+04 -1.9772E+02   5.0658E+04  0.000E+00  0.000E+00  0.000E+00  3.97416E+01  1.166E-01  2.000E+01  2.000E+04 -9.886E-03
   1    9   27     2     4    5.0658E+04 -1.2545E+03   5.1912E+04  0.000E+00  0.000E+00  0.000E+00  3.94926E+01  1.176E-01  2.000E+01  2.000E+04 -6.272E-02
   1   10   26     2     5    5.1912E+04  1.2128E+03   5.0699E+04  0.000E+00  0.000E+00  0.000E+00  3.92427E+01  1.177E-01  2.000E+01  2.000E+04  6.064E-02
   1   11   25     2     6    5.0699E+04  5.0450E+02   5.0195E+04  0.000E+00  0.000E+00  0.000E+00  3.89915E+01  1.165E-01  2.000E+01  2.000E+04  2.523E-02
   1   12   24     2     7    5.0195E+04 -1.1250E+03   5.1320E+04  0.000E+00  0.000E+00  0.000E+00  3.87419E+01  1.169E-01  2.000E+01  2.000E+04 -5.625E-02
   1   13   23     2     8    5.1320E+04 -2.7682E+02   5.1596E+04  0.000E+00  0.000E+00  0.000E+00  3.84929E+01  1.179E-01  2.000E+01  2.000E+04 -1.384E-02
   1   14   22     2     9    5.1596E+04  1.6829E+03   4.9914E+04  0.000E+00  0.000E+00  0.000E+00  3.82419E+01  1.169E-01  2.000E+01  2.000E+04  8.414E-02
   1   14   22     3     1    1.7291E+05 -8.6600E+03   1.8157E+05  0.000E+00  0.000E+00  0.000E+00  3.77248E+01  1.692E-01  2.000E+01  2.000E+04 -4.330E-01
   1   15   23     3     2    1.8157E+05 -5.2893E+02   1.8209E+05  0.000E+00  0.000E+00  0.000E+00  3.68385E+01  1.718E-01  2.000E+01  2.000E+04 -2.645E-02
   1   15   24     3     3    1.8209E+05 -3.0138E+02   1.8240E+05  0.000E+00  0.000E+00  0.000E+00  3.59498E+01  1.721E-01  2.000E+01  2.000E+04 -1.507E-02
   1   15   25     3     4    1.8240E+05 -2.7984E+02   1.8268E+05  0.000E+00  0.000E+00  0.000E+00  3.50611E+01  1.722E-01  2.000E+01  2.000E+04 -1.399E-02
   1   15   26     3     5    1.8268E+05 -2.5370E+02   1.8293E+05  0.000E+00  0.000E+00  0.000E+00  3.41724E+01  1.724E-01  2.000E+01  2.000E+04 -1.268E-02
   1   16   27     3     6    1.8293E+05 -3.0138E+02   1.8323E+05  0.000E+00  0.000E+00  0.000E+00  3.32836E+01  1.725E-01  2.000E+01  2.000E+04 -1.507E-02
   1   17   28     3     7    1.8323E+05 -1.2011E+03   1.8443E+05  0.000E+00  0.000E+00  0.000E+00  3.23952E+01  1.730E-01  2.000E+01  2.000E+04 -6.006E-02
   1   18   29     3     8    1.8443E+05 -2.9666E+03   1.8740E+05  0.000E+00  0.000E+00  0.000E+00  3.15075E+01  1.741E-01  2.000E+01  2.000E+04 -1.483E-01
   1   18   30     3     9    1.8740E+05 -3.1259E+03   1.9052E+05  0.000E+00  0.000E+00  0.000E+00  3.06203E+01  1.758E-01  2.000E+01  2.000E+04 -1.563E-01



1
              HEAD IN LAYER   1 AT END OF TIME STEP   1 IN STRESS PERIOD    4
  ---------------------------------------------------------------------------

          1      2      3      4      5      6      7      8      9     10
         11     12     13     14     15     16     17     18     19     20
         21     22     23     24     25     26     27     28     29     30
 .........................................................................
   1  ****** ****** ****** ****** ****** ****** ****** ****** ****** ******
      ****** ****** ****** ****** ****** ****** ****** ****** ****** ******
      ****** ****** ****** ****** ****** ****** ****** ****** ****** ******
   2  ****** ****** ****** ****** ****** ****** ****** ****** ****** ******
      ****** ****** ****** ****** ****** ****** ****** ****** ****** ******
      ****** ****** ****** ****** ****** ****** ****** ****** ****** ******
   3  ****** ****** ****** ****** ****** ****** ****** ****** ****** ******
      ****** ****** ****** ****** ****** ****** ****** ****** ****** ******
      ****** ****** ****** ****** ****** ****** ****** ****** ****** ******
   4  ****** ****** ****** ****** ****** ****** ****** ****** ****** ******
      ****** ****** ****** ****** ****** ****** ****** ****** ****** ******
      ****** ****** ****** ****** ****** ****** ****** ****** ****** ******
   5  ****** ****** ****** ****** ****** ****** ****** ****** ****** ******
      ****** ****** ****** ****** ****** ****** ****** ****** ****** ******
      ****** ****** ****** ****** ****** ****** ****** ****** ****** ******
   6  ****** ****** ****** ****** ****** ****** ****** ****** ****** ******
      ****** ****** ****** ****** ****** ****** ****** ****** ****** ******
      ****** ****** ****** ****** ****** ****** ****** ****** ****** ******
   7  ****** ****** ****** ****** ****** ****** ****** ****** ****** ******
      ****** ****** ****** ****** ****** ****** ****** ****** ****** ******
      ****** ****** ****** ****** ****** ****** ****** ****** ****** ******
   8  ****** ****** ****** ****** ****** ****** ****** ****** ****** ******
      ****** ****** ****** ****** ****** ****** ****** ****** ****** ******
      ****** ****** ****** ****** ****** ****** ****** ****** ****** ******
   9  ****** ****** ****** ****** ****** ****** ****** ****** ****** ******
      ****** ****** ****** ****** ****** ****** ****** ****** ****** ******
      ****** ****** ****** ****** ****** ****** ****** ****** ****** ******
  10  ****** ****** ****** ****** ****** ****** ****** ****** ****** ******
      ****** ****** ****** ****** ****** ****** ****** ****** ****** ******
      ****** ****** ****** ****** ****** ****** ****** ****** ****** ******
  11  ****** ****** ****** ****** ****** ****** ****** ****** ****** ******
      ****** ****** ****** ****** ****** ****** ****** ****** ****** ******
      ****** ****** ****** ****** ****** ****** ****** ****** ****** ******
  12  ****** ****** ****** ****** ****** ****** ****** ****** ****** ******
      ****** ****** ****** ****** ****** ****** ****** ****** ****** ******
      ****** ****** ****** ****** ****** ****** ****** ****** ****** ******
  13  ****** ****** ****** ****** ****** ****** ****** ****** ****** ******
      ****** ****** ****** ****** ****** ****** ****** ****** ****** ******
      ****** ****** ****** ****** ****** ****** ****** ****** ****** ******
  14  ****** ****** ****** ****** ****** ****** ****** ****** ****** ******
      ****** ****** ****** ****** ****** ****** ****** ****** ****** ******
      ****** ****** ****** ****** ****** ****** ****** ****** ****** ******
  15  ****** ****** ****** ****** ****** ****** ****** ****** ****** ******
      ****** ****** ****** ****** ****** ****** ****** ****** ****** ******
      ****** ****** ****** ****** ****** ****** ****** ****** ****** ******
  16  ****** ****** ****** ****** ****** ****** ****** ****** ****** ******
      ****** ****** ****** ****** ****** ****** ****** ****** ****** ******
      ****** ****** ****** ****** ****** ****** ****** ****** ****** ******
  17  ****** ****** ****** ****** ****** ****** ****** ****** ****** ******
      ****** ****** ****** ****** ****** ****** ****** ****** ****** ******
      ****** ****** ****** ****** ****** ****** ****** ****** ****** ******
  18  ****** ****** ****** ****** ****** ****** ****** ****** ****** ******
      ****** ****** ****** ****** ****** ****** ****** ****** ****** ******
      ****** ****** ****** ****** ****** ****** ****** ****** ****** ******
  19  ****** ****** ****** ****** ****** ****** ****** ****** ****** ******
      ****** ****** ****** ****** ****** ****** ****** ****** ****** ******
      ****** ****** ****** ****** ****** ****** ****** ****** ****** ******
  20  ****** ****** ****** ****** ****** ****** ****** ****** ****** ******
      ****** ****** ****** ****** ****** ****** ****** ****** ****** ******
      ****** ****** ****** ****** ****** ****** ****** ****** ****** ******
  21  ****** ****** ****** ****** ****** ****** ****** ****** ****** ******
      ****** ****** ****** ****** ****** ****** ****** ****** ****** ******
      ****** ****** ****** ****** ****** ****** ****** ****** ****** ******
  22  ****** ****** ****** ****** ****** ****** ****** ****** ****** ******
      ****** ****** ****** ****** ****** ****** ****** ****** ****** ******
      ****** ****** ****** ****** ****** ****** ****** ****** ****** ******
  23  ****** ****** ****** ****** ****** ****** ****** ****** ****** ******
      ****** ****** ****** ****** ****** ****** ****** ****** ****** ******
      ****** ****** ****** ****** ****** ****** ****** ****** ****** ******
  24  ****** ****** ****** ****** ****** ****** ****** ****** ****** ******
      ****** ****** ****** ****** ****** ****** ****** ****** ****** ******
      ****** ****** ****** ****** ****** ****** ****** ****** ****** ******
  25  ****** ****** ****** ****** ****** ****** ****** ****** ****** ******
      ****** ****** ****** ****** ****** ****** ****** ****** ****** ******
      ****** ****** ****** ****** ****** ****** ****** ****** ****** ******

 HEAD WILL BE SAVED ON UNIT   51 AT END OF TIME STEP    1, STRESS PERIOD    4
1
  VOLUMETRIC BUDGET FOR ENTIRE MODEL AT END OF TIME STEP    1, STRESS PERIOD   4
  ------------------------------------------------------------------------------

     CUMULATIVE VOLUMES      L**3       RATES FOR THIS TIME STEP      L**3/T
     ------------------                 ------------------------

           IN:                                      IN:
           ---                                      ---
             STORAGE =    29990556.6192               STORAGE =       19351.8292
       CONSTANT HEAD =     7939897.3472         CONSTANT HEAD =       29443.3793
               WELLS =           0.0000                 WELLS =           0.0000
            RECHARGE =     8804400.0000              RECHARGE =       27600.0000
      STREAM LEAKAGE =     2347552.3816        STREAM LEAKAGE =        8332.2758

            TOTAL IN =    49082406.3480              TOTAL IN =       84727.4843

          OUT:                                     OUT:
          ----                                     ----
             STORAGE =         741.1661               STORAGE =           8.1447
       CONSTANT HEAD =           0.0000         CONSTANT HEAD =           0.0000
               WELLS =    13089945.8197                 WELLS =       35862.8653
            RECHARGE =           0.0000              RECHARGE =           0.0000
      STREAM LEAKAGE =    35991721.4987        STREAM LEAKAGE =       48856.4753

           TOTAL OUT =    49082408.4845             TOTAL OUT =       84727.4852

            IN - OUT =          -2.1365              IN - OUT =      -9.6285E-04

 PERCENT DISCREPANCY =          -0.00     PERCENT DISCREPANCY =          -0.00






         TIME SUMMARY AT END OF TIME STEP    1 IN STRESS PERIOD    4
                    SECONDS     MINUTES      HOURS       DAYS        YEARS
                    -----------------------------------------------------------
   TIME STEP LENGTH 7.86240E+06 1.31040E+05  2184.0      91.000     0.24914    
 STRESS PERIOD TIME 7.86240E+06 1.31040E+05  2184.0      91.000     0.24914    
         TOTAL TIME 3.15360E+07 5.25600E+05  8760.0      365.00     0.99932    
1
1
                            STRESS PERIOD NO.    5, LENGTH =   92.00000    
                            -----------------------------------------------

                              NUMBER OF TIME STEPS =     1

                               MULTIPLIER FOR DELT =     1.500

                            INITIAL TIME STEP SIZE =   92.00000    

 WELL NO.  LAYER   ROW   COL   STRESS RATE         
 --------------------------------------------------
      1      1     11     27     -0.1170E+05
      2      1     10     14      -9990.    
      3      1     22      2      -5731.    
      4      1     21     17      -8441.    

      4 WELLS

                 RECHARGE =  5.000000E-04

 REUSING STREAM SEGMENT DATA FROM LAST STRESS PERIOD
 
 SOLVING FOR HEAD 


     7 CALLS TO PCG ROUTINE FOR TIME STEP   1 IN STRESS PERIOD    5
    26 TOTAL ITERATIONS

 OUTPUT CONTROL FOR STRESS PERIOD    5   TIME STEP    1
    SAVE BUDGET
    SAVE HEAD FOR ALL LAYERS
    PRINT HEAD FOR ALL LAYERS
 UBDSV2 SAVING "STREAMFLOW OUT  " ON UNIT  50 AT TIME STEP  1, STRESS PERIOD   5



 STREAM LISTING     PERIOD      5   STEP        1

 LAYER ROW COL. STREAM  RCH.  FLOW INTO     FLOW TO   FLOW OUT OF   OVRLND.     DIRECT     STREAM       STREAM     STREAM     STREAM   STREAMBED  STREAMBED
                SEG.NO.  NO.  STRM. RCH.    AQUIFER    STRM. RCH.    RUNOFF     PRECIP       ET          HEAD       DEPTH      WIDTH   CONDCTNC.   GRADIENT

   1   13    1     1     1    1.0000E+05 -1.6731E+03   1.0167E+05  0.000E+00  0.000E+00  0.000E+00  4.84067E+01  1.454E-01  2.000E+01  2.000E+04 -8.365E-02
   1   13    2     1     2    1.0167E+05 -2.7054E+03   1.0438E+05  0.000E+00  0.000E+00  0.000E+00  4.79314E+01  1.473E-01  2.000E+01  2.000E+04 -1.353E-01
   1   14    3     1     3    1.0438E+05 -3.7243E+02   1.0475E+05  0.000E+00  0.000E+00  0.000E+00  4.74554E+01  1.486E-01  2.000E+01  2.000E+04 -1.862E-02
   1   15    4     1     4    1.0475E+05 -2.7820E+02   1.0503E+05  0.000E+00  0.000E+00  0.000E+00  4.69784E+01  1.489E-01  2.000E+01  2.000E+04 -1.391E-02
   1   16    5     1     5    1.0503E+05 -3.4165E+02   1.0537E+05  0.000E+00  0.000E+00  0.000E+00  4.65014E+01  1.491E-01  2.000E+01  2.000E+04 -1.708E-02
   1   16    6     1     6    1.0537E+05 -5.1905E+02   1.0589E+05  0.000E+00  0.000E+00  0.000E+00  4.60245E+01  1.495E-01  2.000E+01  2.000E+04 -2.595E-02
   1   16    7     1     7    1.0589E+05 -6.2075E+02   1.0651E+05  0.000E+00  0.000E+00  0.000E+00  4.55477E+01  1.500E-01  2.000E+01  2.000E+04 -3.104E-02
   1   16    8     1     8    1.0651E+05 -6.7418E+02   1.0718E+05  0.000E+00  0.000E+00  0.000E+00  4.50710E+01  1.505E-01  2.000E+01  2.000E+04 -3.371E-02
   1   16    9     1     9    1.0718E+05 -6.8589E+02   1.0787E+05  0.000E+00  0.000E+00  0.000E+00  4.45943E+01  1.511E-01  2.000E+01  2.000E+04 -3.429E-02
   1   16   10     1    10    1.0787E+05 -6.5891E+02   1.0853E+05  0.000E+00  0.000E+00  0.000E+00  4.41176E+01  1.517E-01  2.000E+01  2.000E+04 -3.295E-02
   1   16   11     1    11    1.0853E+05 -6.0308E+02   1.0913E+05  0.000E+00  0.000E+00  0.000E+00  4.36408E+01  1.522E-01  2.000E+01  2.000E+04 -3.015E-02
   1   16   12     1    12    1.0913E+05 -8.6322E+02   1.1000E+05  0.000E+00  0.000E+00  0.000E+00  4.31642E+01  1.528E-01  2.000E+01  2.000E+04 -4.316E-02
   1   15   13     1    13    1.1000E+05 -7.0940E+02   1.1071E+05  0.000E+00  0.000E+00  0.000E+00  4.26875E+01  1.535E-01  2.000E+01  2.000E+04 -3.547E-02
   1   14   14     1    14    1.1071E+05 -7.3055E+02   1.1144E+05  0.000E+00  0.000E+00  0.000E+00  4.22109E+01  1.541E-01  2.000E+01  2.000E+04 -3.653E-02
   1   13   15     1    15    1.1144E+05 -7.0620E+02   1.1214E+05  0.000E+00  0.000E+00  0.000E+00  4.17342E+01  1.547E-01  2.000E+01  2.000E+04 -3.531E-02
   1   12   16     1    16    1.1214E+05 -1.1666E+03   1.1331E+05  0.000E+00  0.000E+00  0.000E+00  4.12577E+01  1.554E-01  2.000E+01  2.000E+04 -5.833E-02
   1   12   17     1    17    1.1331E+05 -1.2106E+03   1.1452E+05  0.000E+00  0.000E+00  0.000E+00  4.07814E+01  1.564E-01  2.000E+01  2.000E+04 -6.053E-02
   1   12   18     1    18    1.1452E+05 -1.3583E+03   1.1588E+05  0.000E+00  0.000E+00  0.000E+00  4.03052E+01  1.575E-01  2.000E+01  2.000E+04 -6.792E-02
   1   12   19     1    19    1.1588E+05 -2.0230E+03   1.1790E+05  0.000E+00  0.000E+00  0.000E+00  3.98293E+01  1.589E-01  2.000E+01  2.000E+04 -1.011E-01
   1   13   20     1    20    1.1790E+05 -1.4150E+03   1.1932E+05  0.000E+00  0.000E+00  0.000E+00  3.93534E+01  1.602E-01  2.000E+01  2.000E+04 -7.075E-02
   1   14   21     1    21    1.1932E+05 -1.0714E+03   1.2039E+05  0.000E+00  0.000E+00  0.000E+00  3.88772E+01  1.613E-01  2.000E+01  2.000E+04 -5.357E-02
   1   14   22     1    22    1.2039E+05  5.0133E+03   1.1537E+05  0.000E+00  0.000E+00  0.000E+00  3.83983E+01  1.597E-01  2.000E+01  2.000E+04  2.507E-01
   1    9   30     2     1    5.0000E+04  6.3147E+01   4.9937E+04  0.000E+00  0.000E+00  0.000E+00  4.02408E+01  1.158E-01  2.000E+01  2.000E+04  3.157E-03
   1    9   29     2     2    4.9937E+04 -5.8591E+01   4.9995E+04  0.000E+00  0.000E+00  0.000E+00  3.99908E+01  1.158E-01  2.000E+01  2.000E+04 -2.930E-03
   1    9   28     2     3    4.9995E+04  4.7904E+01   4.9948E+04  0.000E+00  0.000E+00  0.000E+00  3.97408E+01  1.158E-01  2.000E+01  2.000E+04  2.395E-03
   1    9   27     2     4    4.9948E+04 -8.6765E+02   5.0815E+04  0.000E+00  0.000E+00  0.000E+00  3.94914E+01  1.164E-01  2.000E+01  2.000E+04 -4.338E-02
   1   10   26     2     5    5.0815E+04  1.5520E+03   4.9263E+04  0.000E+00  0.000E+00  0.000E+00  3.92409E+01  1.159E-01  2.000E+01  2.000E+04  7.760E-02
   1   11   25     2     6    4.9263E+04  8.1649E+02   4.8447E+04  0.000E+00  0.000E+00  0.000E+00  3.89893E+01  1.143E-01  2.000E+01  2.000E+04  4.082E-02
   1   12   24     2     7    4.8447E+04 -8.3969E+02   4.9286E+04  0.000E+00  0.000E+00  0.000E+00  3.87393E+01  1.143E-01  2.000E+01  2.000E+04 -4.198E-02
   1   13   23     2     8    4.9286E+04 -2.0808E+02   4.9495E+04  0.000E+00  0.000E+00  0.000E+00  3.84900E+01  1.150E-01  2.000E+01  2.000E+04 -1.040E-02
   1   14   22     2     9    4.9495E+04  1.8250E+03   4.7669E+04  0.000E+00  0.000E+00  0.000E+00  3.82389E+01  1.139E-01  2.000E+01  2.000E+04  9.125E-02
   1   14   22     3     1    1.6304E+05 -8.5721E+03   1.7162E+05  0.000E+00  0.000E+00  0.000E+00  3.77190E+01  1.635E-01  2.000E+01  2.000E+04 -4.286E-01
   1   15   23     3     2    1.7162E+05 -4.2536E+02   1.7204E+05  0.000E+00  0.000E+00  0.000E+00  3.68328E+01  1.661E-01  2.000E+01  2.000E+04 -2.127E-02
   1   15   24     3     3    1.7204E+05 -2.2684E+02   1.7227E+05  0.000E+00  0.000E+00  0.000E+00  3.59441E+01  1.663E-01  2.000E+01  2.000E+04 -1.134E-02
   1   15   25     3     4    1.7227E+05 -2.0628E+02   1.7247E+05  0.000E+00  0.000E+00  0.000E+00  3.50553E+01  1.664E-01  2.000E+01  2.000E+04 -1.031E-02
   1   15   26     3     5    1.7247E+05 -1.7970E+02   1.7265E+05  0.000E+00  0.000E+00  0.000E+00  3.41665E+01  1.665E-01  2.000E+01  2.000E+04 -8.985E-03
   1   16   27     3     6    1.7265E+05 -2.0808E+02   1.7286E+05  0.000E+00  0.000E+00  0.000E+00  3.32777E+01  1.666E-01  2.000E+01  2.000E+04 -1.040E-02
   1   17   28     3     7    1.7286E+05 -9.2258E+02   1.7378E+05  0.000E+00  0.000E+00  0.000E+00  3.23892E+01  1.670E-01  2.000E+01  2.000E+04 -4.613E-02
   1   18   29     3     8    1.7378E+05 -2.5727E+03   1.7636E+05  0.000E+00  0.000E+00  0.000E+00  3.15013E+01  1.680E-01  2.000E+01  2.000E+04 -1.286E-01
   1   18   30     3     9    1.7636E+05 -2.8560E+03   1.7921E+05  0.000E+00  0.000E+00  0.000E+00  3.06140E+01  1.695E-01  2.000E+01  2.000E+04 -1.428E-01



1
              HEAD IN LAYER   1 AT END OF TIME STEP   1 IN STRESS PERIOD    5
  ---------------------------------------------------------------------------

          1      2      3      4      5      6      7      8      9     10
         11     12     13     14     15     16     17     18     19     20
         21     22     23     24     25     26     27     28     29     30
 .........................................................................
   1  ****** ****** ****** ****** ****** ****** ****** ****** ****** ******
      ****** ****** ****** ****** ****** ****** ****** ****** ****** ******
      ****** ****** ****** ****** ****** ****** ****** ****** ****** ******
   2  ****** ****** ****** ****** ****** ****** ****** ****** ****** ******
      ****** ****** ****** ****** ****** ****** ****** ****** ****** ******
      ****** ****** ****** ****** ****** ****** ****** ****** ****** ******
   3  ****** ****** ****** ****** ****** ****** ****** ****** ****** ******
      ****** ****** ****** ****** ****** ****** ****** ****** ****** ******
      ****** ****** ****** ****** ****** ****** ****** ****** ****** ******
   4  ****** ****** ****** ****** ****** ****** ****** ****** ****** ******
      ****** ****** ****** ****** ****** ****** ****** ****** ****** ******
      ****** ****** ****** ****** ****** ****** ****** ****** ****** ******
   5  ****** ****** ****** ****** ****** ****** ****** ****** ****** ******
      ****** ****** ****** ****** ****** ****** ****** ****** ****** ******
      ****** ****** ****** ****** ****** ****** ****** ****** ****** ******
   6  ****** ****** ****** ****** ****** ****** ****** ****** ****** ******
      ****** ****** ****** ****** ****** ****** ****** ****** ****** ******
      ****** ****** ****** ****** ****** ****** ****** ****** ****** ******
   7  ****** ****** ****** ****** ****** ****** ****** ****** ****** ******
      ****** ****** ****** ****** ****** ****** ****** ****** ****** ******
      ****** ****** ****** ****** ****** ****** ****** ****** ****** ******
   8  ****** ****** ****** ****** ****** ****** ****** ****** ****** ******
      ****** ****** ****** ****** ****** ****** ****** ****** ****** ******
      ****** ****** ****** ****** ****** ****** ****** ****** ****** ******
   9  ****** ****** ****** ****** ****** ****** ****** ****** ****** ******
      ****** ****** ****** ****** ****** ****** ****** ****** ****** ******
      ****** ****** ****** ****** ****** ****** ****** ****** ****** ******
  10  ****** ****** ****** ****** ****** ****** ****** ****** ****** ******
      ****** ****** ****** ****** ****** ****** ****** ****** ****** ******
      ****** ****** ****** ****** ****** ****** ****** ****** ****** ******
  11  ****** ****** ****** ****** ****** ****** ****** ****** ****** ******
      ****** ****** ****** ****** ****** ****** ****** ****** ****** ******
      ****** ****** ****** ****** ****** ****** ****** ****** ****** ******
  12  ****** ****** ****** ****** ****** ****** ****** ****** ****** ******
      ****** ****** ****** ****** ****** ****** ****** ****** ****** ******
      ****** ****** ****** ****** ****** ****** ****** ****** ****** ******
  13  ****** ****** ****** ****** ****** ****** ****** ****** ****** ******
      ****** ****** ****** ****** ****** ****** ****** ****** ****** ******
      ****** ****** ****** ****** ****** ****** ****** ****** ****** ******
  14  ****** ****** ****** ****** ****** ****** ****** ****** ****** ******
      ****** ****** ****** ****** ****** ****** ****** ****** ****** ******
      ****** ****** ****** ****** ****** ****** ****** ****** ****** ******
  15  ****** ****** ****** ****** ****** ****** ****** ****** ****** ******
      ****** ****** ****** ****** ****** ****** ****** ****** ****** ******
      ****** ****** ****** ****** ****** ****** ****** ****** ****** ******
  16  ****** ****** ****** ****** ****** ****** ****** ****** ****** ******
      ****** ****** ****** ****** ****** ****** ****** ****** ****** ******
      ****** ****** ****** ****** ****** ****** ****** ****** ****** ******
  17  ****** ****** ****** ****** ****** ****** ****** ****** ****** ******
      ****** ****** ****** ****** ****** ****** ****** ****** ****** ******
      ****** ****** ****** ****** ****** ****** ****** ****** ****** ******
  18  ****** ****** ****** ****** ****** ****** ****** ****** ****** ******
      ****** ****** ****** ****** ****** ****** ****** ****** ****** ******
      ****** ****** ****** ****** ****** ****** ****** ****** ****** ******
  19  ****** ****** ****** ****** ****** ****** ****** ****** ****** ******
      ****** ****** ****** ****** ****** ****** ****** ****** ****** ******
      ****** ****** ****** ****** ****** ****** ****** ****** ****** ******
  20  ****** ****** ****** ****** ****** ****** ****** ****** ****** ******
      ****** ****** ****** ****** ****** ****** ****** ****** ****** ******
      ****** ****** ****** ****** ****** ****** ****** ****** ****** ******
  21  ****** ****** ****** ****** ****** ****** ****** ****** ****** ******
      ****** ****** ****** ****** ****** ****** ****** ****** ****** ******
      ****** ****** ****** ****** ****** ****** ****** ****** ****** ******
  22  ****** ****** ****** ****** ****** ****** ****** ****** ****** ******
      ****** ****** ****** ****** ****** ****** ****** ****** ****** ******
      ****** ****** ****** ****** ****** ****** ****** ****** ****** ******
  23  ****** ****** ****** ****** ****** ****** ****** ****** ****** ******
      ****** ****** ****** ****** ****** ****** ****** ****** ****** ******
      ****** ****** ****** ****** ****** ****** ****** ****** ****** ******
  24  ****** ****** ****** ****** ****** ****** ****** ****** ****** ******
      ****** ****** ****** ****** ****** ****** ****** ****** ****** ******
      ****** ****** ****** ****** ****** ****** ****** ****** ****** ******
  25  ****** ****** ****** ****** ****** ****** ****** ****** ****** ******
      ****** ****** ****** ****** ****** ****** ****** ****** ****** ******
      ****** ****** ****** ****** ****** ****** ****** ****** ****** ******

 HEAD WILL BE SAVED ON UNIT   51 AT END OF TIME STEP    1, STRESS PERIOD    5
1
  VOLUMETRIC BUDGET FOR ENTIRE MODEL AT END OF TIME STEP    1, STRESS PERIOD   5
  ------------------------------------------------------------------------------

     CUMULATIVE VOLUMES      L**3       RATES FOR THIS TIME STEP      L**3/T
     ------------------                 ------------------------

           IN:                                      IN:
           ---                                      ---
             STORAGE =    31722210.6262               STORAGE =       18822.3262
       CONSTANT HEAD =    10925593.3885         CONSTANT HEAD =       32453.2178
               WELLS =           0.0000                 WELLS =           0.0000
            RECHARGE =    10074000.0000              RECHARGE =       13800.0000
      STREAM LEAKAGE =     3204791.8412        STREAM LEAKAGE =        9317.8202

            TOTAL IN =    55926595.8559              TOTAL IN =       74393.3642

          OUT:                                     OUT:
          ----                                     ----
             STORAGE =         741.1661               STORAGE =           0.0000
       CONSTANT HEAD =           0.0000         CONSTANT HEAD =           0.0000
               WELLS =    16389329.4235                 WELLS =       35862.8653
            RECHARGE =           0.0000              RECHARGE =           0.0000
      STREAM LEAKAGE =    39536527.7158        STREAM LEAKAGE =       38530.5024

           TOTAL OUT =    55926598.3055             TOTAL OUT =       74393.3676

            IN - OUT =          -2.4495              IN - OUT =      -3.4028E-03

 PERCENT DISCREPANCY =          -0.00     PERCENT DISCREPANCY =          -0.00






         TIME SUMMARY AT END OF TIME STEP    1 IN STRESS PERIOD    5
                    SECONDS     MINUTES      HOURS       DAYS        YEARS
                    -----------------------------------------------------------
   TIME STEP LENGTH 7.94880E+06 1.32480E+05  2208.0      92.000     0.25188    
 STRESS PERIOD TIME 7.94880E+06 1.32480E+05  2208.0      92.000     0.25188    
         TOTAL TIME 3.94848E+07 6.58080E+05  10968.      457.00      1.2512    
1
1
                            STRESS PERIOD NO.    6, LENGTH =   91.00000    
                            -----------------------------------------------

                              NUMBER OF TIME STEPS =     1

                               MULTIPLIER FOR DELT =     1.500

                            INITIAL TIME STEP SIZE =   91.00000    

 WELL NO.  LAYER   ROW   COL   STRESS RATE         
 --------------------------------------------------
      1      1     11     27     -0.1170E+05
      2      1     10     14      -9990.    
      3      1     22      2      -5731.    
      4      1     21     17      -8441.    

      4 WELLS

                 RECHARGE =  2.000000E-03

 REUSING STREAM SEGMENT DATA FROM LAST STRESS PERIOD
 
 SOLVING FOR HEAD 


     7 CALLS TO PCG ROUTINE FOR TIME STEP   1 IN STRESS PERIOD    6
    26 TOTAL ITERATIONS

 OUTPUT CONTROL FOR STRESS PERIOD    6   TIME STEP    1
    SAVE BUDGET
    SAVE HEAD FOR ALL LAYERS
    PRINT HEAD FOR ALL LAYERS
 UBDSV2 SAVING "STREAMFLOW OUT  " ON UNIT  50 AT TIME STEP  1, STRESS PERIOD   6



 STREAM LISTING     PERIOD      6   STEP        1

 LAYER ROW COL. STREAM  RCH.  FLOW INTO     FLOW TO   FLOW OUT OF   OVRLND.     DIRECT     STREAM       STREAM     STREAM     STREAM   STREAMBED  STREAMBED
                SEG.NO.  NO.  STRM. RCH.    AQUIFER    STRM. RCH.    RUNOFF     PRECIP       ET          HEAD       DEPTH      WIDTH   CONDCTNC.   GRADIENT

   1   13    1     1     1    1.0000E+05 -1.9758E+03   1.0198E+05  0.000E+00  0.000E+00  0.000E+00  4.84069E+01  1.455E-01  2.000E+01  2.000E+04 -9.879E-02
   1   13    2     1     2    1.0198E+05 -3.0374E+03   1.0501E+05  0.000E+00  0.000E+00  0.000E+00  4.79318E+01  1.477E-01  2.000E+01  2.000E+04 -1.519E-01
   1   14    3     1     3    1.0501E+05 -5.2409E+02   1.0554E+05  0.000E+00  0.000E+00  0.000E+00  4.74560E+01  1.492E-01  2.000E+01  2.000E+04 -2.620E-02
   1   15    4     1     4    1.0554E+05 -4.4048E+02   1.0598E+05  0.000E+00  0.000E+00  0.000E+00  4.69791E+01  1.496E-01  2.000E+01  2.000E+04 -2.202E-02
   1   16    5     1     5    1.0598E+05 -8.1416E+02   1.0679E+05  0.000E+00  0.000E+00  0.000E+00  4.65024E+01  1.501E-01  2.000E+01  2.000E+04 -4.071E-02
   1   16    6     1     6    1.0679E+05 -7.9866E+02   1.0759E+05  0.000E+00  0.000E+00  0.000E+00  4.60258E+01  1.508E-01  2.000E+01  2.000E+04 -3.993E-02
   1   16    7     1     7    1.0759E+05 -8.8638E+02   1.0848E+05  0.000E+00  0.000E+00  0.000E+00  4.55492E+01  1.515E-01  2.000E+01  2.000E+04 -4.432E-02
   1   16    8     1     8    1.0848E+05 -9.3590E+02   1.0941E+05  0.000E+00  0.000E+00  0.000E+00  4.50727E+01  1.523E-01  2.000E+01  2.000E+04 -4.679E-02
   1   16    9     1     9    1.0941E+05 -9.4761E+02   1.1036E+05  0.000E+00  0.000E+00  0.000E+00  4.45963E+01  1.531E-01  2.000E+01  2.000E+04 -4.738E-02
   1   16   10     1    10    1.1036E+05 -9.2260E+02   1.1128E+05  0.000E+00  0.000E+00  0.000E+00  4.41198E+01  1.539E-01  2.000E+01  2.000E+04 -4.613E-02
   1   16   11     1    11    1.1128E+05 -8.7010E+02   1.1215E+05  0.000E+00  0.000E+00  0.000E+00  4.36432E+01  1.546E-01  2.000E+01  2.000E+04 -4.351E-02
   1   16   12     1    12    1.1215E+05 -1.2940E+03   1.1345E+05  0.000E+00  0.000E+00  0.000E+00  4.31669E+01  1.555E-01  2.000E+01  2.000E+04 -6.470E-02
   1   15   13     1    13    1.1345E+05 -1.1534E+03   1.1460E+05  0.000E+00  0.000E+00  0.000E+00  4.26906E+01  1.565E-01  2.000E+01  2.000E+04 -5.767E-02
   1   14   14     1    14    1.1460E+05 -1.1709E+03   1.1577E+05  0.000E+00  0.000E+00  0.000E+00  4.22143E+01  1.575E-01  2.000E+01  2.000E+04 -5.855E-02
   1   13   15     1    15    1.1577E+05 -1.1286E+03   1.1690E+05  0.000E+00  0.000E+00  0.000E+00  4.17379E+01  1.584E-01  2.000E+01  2.000E+04 -5.643E-02
   1   12   16     1    16    1.1690E+05 -1.5447E+03   1.1844E+05  0.000E+00  0.000E+00  0.000E+00  4.12618E+01  1.595E-01  2.000E+01  2.000E+04 -7.724E-02
   1   12   17     1    17    1.1844E+05 -1.5200E+03   1.1997E+05  0.000E+00  0.000E+00  0.000E+00  4.07857E+01  1.607E-01  2.000E+01  2.000E+04 -7.600E-02
   1   12   18     1    18    1.1997E+05 -1.6721E+03   1.2164E+05  0.000E+00  0.000E+00  0.000E+00  4.03097E+01  1.620E-01  2.000E+01  2.000E+04 -8.361E-02
   1   12   19     1    19    1.2164E+05 -2.4147E+03   1.2405E+05  0.000E+00  0.000E+00  0.000E+00  3.98341E+01  1.637E-01  2.000E+01  2.000E+04 -1.207E-01
   1   13   20     1    20    1.2405E+05 -1.8318E+03   1.2588E+05  0.000E+00  0.000E+00  0.000E+00  3.93585E+01  1.653E-01  2.000E+01  2.000E+04 -9.159E-02
   1   14   21     1    21    1.2588E+05 -1.4735E+03   1.2736E+05  0.000E+00  0.000E+00  0.000E+00  3.88826E+01  1.667E-01  2.000E+01  2.000E+04 -7.367E-02
   1   14   22     1    22    1.2736E+05  4.9058E+03   1.2245E+05  0.000E+00  0.000E+00  0.000E+00  3.84039E+01  1.653E-01  2.000E+01  2.000E+04  2.453E-01
   1    9   30     2     1    5.0000E+04 -3.0147E+02   5.0301E+04  0.000E+00  0.000E+00  0.000E+00  4.02411E+01  1.161E-01  2.000E+01  2.000E+04 -1.507E-02
   1    9   29     2     2    5.0301E+04 -4.1886E+02   5.0720E+04  0.000E+00  0.000E+00  0.000E+00  3.99916E+01  1.166E-01  2.000E+01  2.000E+04 -2.094E-02
   1    9   28     2     3    5.0720E+04 -3.0567E+02   5.1026E+04  0.000E+00  0.000E+00  0.000E+00  3.97421E+01  1.171E-01  2.000E+01  2.000E+04 -1.528E-02
   1    9   27     2     4    5.1026E+04 -1.3150E+03   5.2341E+04  0.000E+00  0.000E+00  0.000E+00  3.94932E+01  1.182E-01  2.000E+01  2.000E+04 -6.575E-02
   1   10   26     2     5    5.2341E+04  1.0813E+03   5.1260E+04  0.000E+00  0.000E+00  0.000E+00  3.92434E+01  1.184E-01  2.000E+01  2.000E+04  5.407E-02
   1   11   25     2     6    5.1260E+04  3.6090E+02   5.0899E+04  0.000E+00  0.000E+00  0.000E+00  3.89924E+01  1.174E-01  2.000E+01  2.000E+04  1.805E-02
   1   12   24     2     7    5.0899E+04 -1.2502E+03   5.2149E+04  0.000E+00  0.000E+00  0.000E+00  3.87430E+01  1.180E-01  2.000E+01  2.000E+04 -6.251E-02
   1   13   23     2     8    5.2149E+04 -3.4595E+02   5.2495E+04  0.000E+00  0.000E+00  0.000E+00  3.84941E+01  1.191E-01  2.000E+01  2.000E+04 -1.730E-02
   1   14   22     2     9    5.2495E+04  1.6900E+03   5.0805E+04  0.000E+00  0.000E+00  0.000E+00  3.82431E+01  1.181E-01  2.000E+01  2.000E+04  8.450E-02
   1   14   22     3     1    1.7326E+05 -8.6734E+03   1.8193E+05  0.000E+00  0.000E+00  0.000E+00  3.77250E+01  1.694E-01  2.000E+01  2.000E+04 -4.337E-01
   1   15   23     3     2    1.8193E+05 -5.6033E+02   1.8249E+05  0.000E+00  0.000E+00  0.000E+00  3.68387E+01  1.720E-01  2.000E+01  2.000E+04 -2.802E-02
   1   15   24     3     3    1.8249E+05 -3.4769E+02   1.8284E+05  0.000E+00  0.000E+00  0.000E+00  3.59501E+01  1.723E-01  2.000E+01  2.000E+04 -1.738E-02
   1   15   25     3     4    1.8284E+05 -3.3180E+02   1.8317E+05  0.000E+00  0.000E+00  0.000E+00  3.50614E+01  1.725E-01  2.000E+01  2.000E+04 -1.659E-02
   1   15   26     3     5    1.8317E+05 -3.3043E+02   1.8350E+05  0.000E+00  0.000E+00  0.000E+00  3.41727E+01  1.727E-01  2.000E+01  2.000E+04 -1.652E-02
   1   16   27     3     6    1.8350E+05 -3.7575E+02   1.8388E+05  0.000E+00  0.000E+00  0.000E+00  3.32840E+01  1.729E-01  2.000E+01  2.000E+04 -1.879E-02
   1   17   28     3     7    1.8388E+05 -1.3816E+03   1.8526E+05  0.000E+00  0.000E+00  0.000E+00  3.23956E+01  1.734E-01  2.000E+01  2.000E+04 -6.908E-02
   1   18   29     3     8    1.8526E+05 -3.0048E+03   1.8826E+05  0.000E+00  0.000E+00  0.000E+00  3.15079E+01  1.746E-01  2.000E+01  2.000E+04 -1.502E-01
   1   18   30     3     9    1.8826E+05 -3.2078E+03   1.9147E+05  0.000E+00  0.000E+00  0.000E+00  3.06208E+01  1.763E-01  2.000E+01  2.000E+04 -1.604E-01



1
              HEAD IN LAYER   1 AT END OF TIME STEP   1 IN STRESS PERIOD    6
  ---------------------------------------------------------------------------

          1      2      3      4      5      6      7      8      9     10
         11     12     13     14     15     16     17     18     19     20
         21     22     23     24     25     26     27     28     29     30
 .........................................................................
   1  ****** ****** ****** ****** ****** ****** ****** ****** ****** ******
      ****** ****** ****** ****** ****** ****** ****** ****** ****** ******
      ****** ****** ****** ****** ****** ****** ****** ****** ****** ******
   2  ****** ****** ****** ****** ****** ****** ****** ****** ****** ******
      ****** ****** ****** ****** ****** ****** ****** ****** ****** ******
      ****** ****** ****** ****** ****** ****** ****** ****** ****** ******
   3  ****** ****** ****** ****** ****** ****** ****** ****** ****** ******
      ****** ****** ****** ****** ****** ****** ****** ****** ****** ******
      ****** ****** ****** ****** ****** ****** ****** ****** ****** ******
   4  ****** ****** ****** ****** ****** ****** ****** ****** ****** ******
      ****** ****** ****** ****** ****** ****** ****** ****** ****** ******
      ****** ****** ****** ****** ****** ****** ****** ****** ****** ******
   5  ****** ****** ****** ****** ****** ****** ****** ****** ****** ******
      ****** ****** ****** ****** ****** ****** ****** ****** ****** ******
      ****** ****** ****** ****** ****** ****** ****** ****** ****** ******
   6  ****** ****** ****** ****** ****** ****** ****** ****** ****** ******
      ****** ****** ****** ****** ****** ****** ****** ****** ****** ******
      ****** ****** ****** ****** ****** ****** ****** ****** ****** ******
   7  ****** ****** ****** ****** ****** ****** ****** ****** ****** ******
      ****** ****** ****** ****** ****** ****** ****** ****** ****** ******
      ****** ****** ****** ****** ****** ****** ****** ****** ****** ******
   8  ****** ****** ****** ****** ****** ****** ****** ****** ****** ******
      ****** ****** ****** ****** ****** ****** ****** ****** ****** ******
      ****** ****** ****** ****** ****** ****** ****** ****** ****** ******
   9  ****** ****** ****** ****** ****** ****** ****** ****** ****** ******
      ****** ****** ****** ****** ****** ****** ****** ****** ****** ******
      ****** ****** ****** ****** ****** ****** ****** ****** ****** ******
  10  ****** ****** ****** ****** ****** ****** ****** ****** ****** ******
      ****** ****** ****** ****** ****** ****** ****** ****** ****** ******
      ****** ****** ****** ****** ****** ****** ****** ****** ****** ******
  11  ****** ****** ****** ****** ****** ****** ****** ****** ****** ******
      ****** ****** ****** ****** ****** ****** ****** ****** ****** ******
      ****** ****** ****** ****** ****** ****** ****** ****** ****** ******
  12  ****** ****** ****** ****** ****** ****** ****** ****** ****** ******
      ****** ****** ****** ****** ****** ****** ****** ****** ****** ******
      ****** ****** ****** ****** ****** ****** ****** ****** ****** ******
  13  ****** ****** ****** ****** ****** ****** ****** ****** ****** ******
      ****** ****** ****** ****** ****** ****** ****** ****** ****** ******
      ****** ****** ****** ****** ****** ****** ****** ****** ****** ******
  14  ****** ****** ****** ****** ****** ****** ****** ****** ****** ******
      ****** ****** ****** ****** ****** ****** ****** ****** ****** ******
      ****** ****** ****** ****** ****** ****** ****** ****** ****** ******
  15  ****** ****** ****** ****** ****** ****** ****** ****** ****** ******
      ****** ****** ****** ****** ****** ****** ****** ****** ****** ******
      ****** ****** ****** ****** ****** ****** ****** ****** ****** ******
  16  ****** ****** ****** ****** ****** ****** ****** ****** ****** ******
      ****** ****** ****** ****** ****** ****** ****** ****** ****** ******
      ****** ****** ****** ****** ****** ****** ****** ****** ****** ******
  17  ****** ****** ****** ****** ****** ****** ****** ****** ****** ******
      ****** ****** ****** ****** ****** ****** ****** ****** ****** ******
      ****** ****** ****** ****** ****** ****** ****** ****** ****** ******
  18  ****** ****** ****** ****** ****** ****** ****** ****** ****** ******
      ****** ****** ****** ****** ****** ****** ****** ****** ****** ******
      ****** ****** ****** ****** ****** ****** ****** ****** ****** ******
  19  ****** ****** ****** ****** ****** ****** ****** ****** ****** ******
      ****** ****** ****** ****** ****** ****** ****** ****** ****** ******
      ****** ****** ****** ****** ****** ****** ****** ****** ****** ******
  20  ****** ****** ****** ****** ****** ****** ****** ****** ****** ******
      ****** ****** ****** ****** ****** ****** ****** ****** ****** ******
      ****** ****** ****** ****** ****** ****** ****** ****** ****** ******
  21  ****** ****** ****** ****** ****** ****** ****** ****** ****** ******
      ****** ****** ****** ****** ****** ****** ****** ****** ****** ******
      ****** ****** ****** ****** ****** ****** ****** ****** ****** ******
  22  ****** ****** ****** ****** ****** ****** ****** ****** ****** ******
      ****** ****** ****** ****** ****** ****** ****** ****** ****** ******
      ****** ****** ****** ****** ****** ****** ****** ****** ****** ******
  23  ****** ****** ****** ****** ****** ****** ****** ****** ****** ******
      ****** ****** ****** ****** ****** ****** ****** ****** ****** ******
      ****** ****** ****** ****** ****** ****** ****** ****** ****** ******
  24  ****** ****** ****** ****** ****** ****** ****** ****** ****** ******
      ****** ****** ****** ****** ****** ****** ****** ****** ****** ******
      ****** ****** ****** ****** ****** ****** ****** ****** ****** ******
  25  ****** ****** ****** ****** ****** ****** ****** ****** ****** ******
      ****** ****** ****** ****** ****** ****** ****** ****** ****** ******
      ****** ****** ****** ****** ****** ****** ****** ****** ****** ******

 HEAD WILL BE SAVED ON UNIT   51 AT END OF TIME STEP    1, STRESS PERIOD    6
1
  VOLUMETRIC BUDGET FOR ENTIRE MODEL AT END OF TIME STEP    1, STRESS PERIOD   6
  ------------------------------------------------------------------------------

     CUMULATIVE VOLUMES      L**3       RATES FOR THIS TIME STEP      L**3/T
     ------------------                 ------------------------

           IN:                                      IN:
           ---                                      ---
             STORAGE =    31722210.6262               STORAGE =           0.0000
       CONSTANT HEAD =    13709991.1219         CONSTANT HEAD =       30597.7773
               WELLS =           0.0000                 WELLS =           0.0000
            RECHARGE =    15097200.0000              RECHARGE =       55200.0000
      STREAM LEAKAGE =     3936257.1191        STREAM LEAKAGE =        8038.0800

            TOTAL IN =    64465658.8672              TOTAL IN =       93835.8573

          OUT:                                     OUT:
          ----                                     ----
             STORAGE =      771069.8035               STORAGE =        8465.1499
       CONSTANT HEAD =           0.0000         CONSTANT HEAD =           0.0000
               WELLS =    19652850.1621                 WELLS =       35862.8653
            RECHARGE =           0.0000              RECHARGE =           0.0000
      STREAM LEAKAGE =    44041741.0858        STREAM LEAKAGE =       49507.8392

           TOTAL OUT =    64465661.0514             TOTAL OUT =       93835.8544

            IN - OUT =          -2.1842              IN - OUT =       2.9161E-03

 PERCENT DISCREPANCY =          -0.00     PERCENT DISCREPANCY =           0.00






         TIME SUMMARY AT END OF TIME STEP    1 IN STRESS PERIOD    6
                    SECONDS     MINUTES      HOURS       DAYS        YEARS
                    -----------------------------------------------------------
   TIME STEP LENGTH 7.86240E+06 1.31040E+05  2184.0      91.000     0.24914    
 STRESS PERIOD TIME 7.86240E+06 1.31040E+05  2184.0      91.000     0.24914    
         TOTAL TIME 4.73472E+07 7.89120E+05  13152.      548.00      1.5003    
1
1
                            STRESS PERIOD NO.    7, LENGTH =   91.00000    
                            -----------------------------------------------

                              NUMBER OF TIME STEPS =     1

                               MULTIPLIER FOR DELT =     1.500

                            INITIAL TIME STEP SIZE =   91.00000    

 WELL NO.  LAYER   ROW   COL   STRESS RATE         
 --------------------------------------------------
      1      1     11     27     -0.1170E+05
      2      1     10     14      -9990.    
      3      1     22      2      -5731.    
      4      1     21     17      -8441.    

      4 WELLS

                 RECHARGE =   0.00000    

 REUSING STREAM SEGMENT DATA FROM LAST STRESS PERIOD
 
 SOLVING FOR HEAD 


     7 CALLS TO PCG ROUTINE FOR TIME STEP   1 IN STRESS PERIOD    7
    26 TOTAL ITERATIONS

 OUTPUT CONTROL FOR STRESS PERIOD    7   TIME STEP    1
    SAVE BUDGET
    SAVE HEAD FOR ALL LAYERS
    PRINT HEAD FOR ALL LAYERS
 UBDSV2 SAVING "STREAMFLOW OUT  " ON UNIT  50 AT TIME STEP  1, STRESS PERIOD   7



 STREAM LISTING     PERIOD      7   STEP        1

 LAYER ROW COL. STREAM  RCH.  FLOW INTO     FLOW TO   FLOW OUT OF   OVRLND.     DIRECT     STREAM       STREAM     STREAM     STREAM   STREAMBED  STREAMBED
                SEG.NO.  NO.  STRM. RCH.    AQUIFER    STRM. RCH.    RUNOFF     PRECIP       ET          HEAD       DEPTH      WIDTH   CONDCTNC.   GRADIENT

   1   13    1     1     1    1.0000E+05 -1.3031E+03   1.0130E+05  0.000E+00  0.000E+00  0.000E+00  4.84066E+01  1.452E-01  2.000E+01  2.000E+04 -6.515E-02
   1   13    2     1     2    1.0130E+05 -2.2850E+03   1.0359E+05  0.000E+00  0.000E+00  0.000E+00  4.79309E+01  1.468E-01  2.000E+01  2.000E+04 -1.142E-01
   1   14    3     1     3    1.0359E+05 -2.7035E+02   1.0386E+05  0.000E+00  0.000E+00  0.000E+00  4.74547E+01  1.479E-01  2.000E+01  2.000E+04 -1.352E-02
   1   15    4     1     4    1.0386E+05 -1.7561E+02   1.0403E+05  0.000E+00  0.000E+00  0.000E+00  4.69776E+01  1.481E-01  2.000E+01  2.000E+04 -8.780E-03
   1   16    5     1     5    1.0403E+05 -4.9017E+01   1.0408E+05  0.000E+00  0.000E+00  0.000E+00  4.65004E+01  1.481E-01  2.000E+01  2.000E+04 -2.451E-03
   1   16    6     1     6    1.0408E+05 -3.3835E+02   1.0442E+05  0.000E+00  0.000E+00  0.000E+00  4.60233E+01  1.483E-01  2.000E+01  2.000E+04 -1.692E-02
   1   16    7     1     7    1.0442E+05 -4.4504E+02   1.0487E+05  0.000E+00  0.000E+00  0.000E+00  4.55464E+01  1.486E-01  2.000E+01  2.000E+04 -2.225E-02
   1   16    8     1     8    1.0487E+05 -5.0078E+02   1.0537E+05  0.000E+00  0.000E+00  0.000E+00  4.50695E+01  1.490E-01  2.000E+01  2.000E+04 -2.504E-02
   1   16    9     1     9    1.0537E+05 -5.1585E+02   1.0588E+05  0.000E+00  0.000E+00  0.000E+00  4.45927E+01  1.495E-01  2.000E+01  2.000E+04 -2.579E-02
   1   16   10     1    10    1.0588E+05 -4.9348E+02   1.0638E+05  0.000E+00  0.000E+00  0.000E+00  4.41158E+01  1.499E-01  2.000E+01  2.000E+04 -2.467E-02
   1   16   11     1    11    1.0638E+05 -4.3978E+02   1.0682E+05  0.000E+00  0.000E+00  0.000E+00  4.36389E+01  1.503E-01  2.000E+01  2.000E+04 -2.199E-02
   1   16   12     1    12    1.0682E+05 -5.7079E+02   1.0739E+05  0.000E+00  0.000E+00  0.000E+00  4.31621E+01  1.507E-01  2.000E+01  2.000E+04 -2.854E-02
   1   15   13     1    13    1.0739E+05 -3.7985E+02   1.0777E+05  0.000E+00  0.000E+00  0.000E+00  4.26852E+01  1.511E-01  2.000E+01  2.000E+04 -1.899E-02
   1   14   14     1    14    1.0777E+05 -3.7029E+02   1.0814E+05  0.000E+00  0.000E+00  0.000E+00  4.22083E+01  1.514E-01  2.000E+01  2.000E+04 -1.851E-02
   1   13   15     1    15    1.0814E+05 -3.2672E+02   1.0846E+05  0.000E+00  0.000E+00  0.000E+00  4.17313E+01  1.517E-01  2.000E+01  2.000E+04 -1.634E-02
   1   12   16     1    16    1.0846E+05 -7.5026E+02   1.0921E+05  0.000E+00  0.000E+00  0.000E+00  4.12545E+01  1.522E-01  2.000E+01  2.000E+04 -3.751E-02
   1   12   17     1    17    1.0921E+05 -9.4227E+02   1.1016E+05  0.000E+00  0.000E+00  0.000E+00  4.07779E+01  1.529E-01  2.000E+01  2.000E+04 -4.711E-02
   1   12   18     1    18    1.1016E+05 -1.1086E+03   1.1127E+05  0.000E+00  0.000E+00  0.000E+00  4.03015E+01  1.538E-01  2.000E+01  2.000E+04 -5.543E-02
   1   12   19     1    19    1.1127E+05 -1.7271E+03   1.1299E+05  0.000E+00  0.000E+00  0.000E+00  3.98254E+01  1.549E-01  2.000E+01  2.000E+04 -8.636E-02
   1   13   20     1    20    1.1299E+05 -1.1602E+03   1.1415E+05  0.000E+00  0.000E+00  0.000E+00  3.93493E+01  1.561E-01  2.000E+01  2.000E+04 -5.801E-02
   1   14   21     1    21    1.1415E+05 -8.0813E+02   1.1496E+05  0.000E+00  0.000E+00  0.000E+00  3.88728E+01  1.569E-01  2.000E+01  2.000E+04 -4.041E-02
   1   14   22     1    22    1.1496E+05  5.0652E+03   1.0990E+05  0.000E+00  0.000E+00  0.000E+00  3.83938E+01  1.552E-01  2.000E+01  2.000E+04  2.533E-01
   1    9   30     2     1    5.0000E+04  2.1162E+02   4.9788E+04  0.000E+00  0.000E+00  0.000E+00  4.02407E+01  1.157E-01  2.000E+01  2.000E+04  1.058E-02
   1    9   29     2     2    4.9788E+04  9.2440E+01   4.9696E+04  0.000E+00  0.000E+00  0.000E+00  3.99905E+01  1.155E-01  2.000E+01  2.000E+04  4.622E-03
   1    9   28     2     3    4.9696E+04  2.0695E+02   4.9489E+04  0.000E+00  0.000E+00  0.000E+00  3.97403E+01  1.153E-01  2.000E+01  2.000E+04  1.035E-02
   1    9   27     2     4    4.9489E+04 -6.1865E+02   5.0108E+04  0.000E+00  0.000E+00  0.000E+00  3.94906E+01  1.156E-01  2.000E+01  2.000E+04 -3.093E-02
   1   10   26     2     5    5.0108E+04  1.7799E+03   4.8328E+04  0.000E+00  0.000E+00  0.000E+00  3.92398E+01  1.148E-01  2.000E+01  2.000E+04  8.900E-02
   1   11   25     2     6    4.8328E+04  1.0309E+03   4.7297E+04  0.000E+00  0.000E+00  0.000E+00  3.89878E+01  1.128E-01  2.000E+01  2.000E+04  5.155E-02
   1   12   24     2     7    4.7297E+04 -6.3927E+02   4.7936E+04  0.000E+00  0.000E+00  0.000E+00  3.87375E+01  1.125E-01  2.000E+01  2.000E+04 -3.196E-02
   1   13   23     2     8    4.7936E+04 -1.5416E+02   4.8090E+04  0.000E+00  0.000E+00  0.000E+00  3.84881E+01  1.131E-01  2.000E+01  2.000E+04 -7.708E-03
   1   14   22     2     9    4.8090E+04  1.9253E+03   4.6165E+04  0.000E+00  0.000E+00  0.000E+00  3.82368E+01  1.118E-01  2.000E+01  2.000E+04  9.626E-02
   1   14   22     3     1    1.5606E+05 -8.5136E+03   1.6457E+05  0.000E+00  0.000E+00  0.000E+00  3.77149E+01  1.593E-01  2.000E+01  2.000E+04 -4.257E-01
   1   15   23     3     2    1.6457E+05 -3.5306E+02   1.6493E+05  0.000E+00  0.000E+00  0.000E+00  3.68286E+01  1.620E-01  2.000E+01  2.000E+04 -1.765E-02
   1   15   24     3     3    1.6493E+05 -1.7370E+02   1.6510E+05  0.000E+00  0.000E+00  0.000E+00  3.59399E+01  1.621E-01  2.000E+01  2.000E+04 -8.685E-03
   1   15   25     3     4    1.6510E+05 -1.5483E+02   1.6526E+05  0.000E+00  0.000E+00  0.000E+00  3.50511E+01  1.622E-01  2.000E+01  2.000E+04 -7.741E-03
   1   15   26     3     5    1.6526E+05 -1.2906E+02   1.6538E+05  0.000E+00  0.000E+00  0.000E+00  3.41623E+01  1.623E-01  2.000E+01  2.000E+04 -6.453E-03
   1   16   27     3     6    1.6538E+05 -1.4313E+02   1.6553E+05  0.000E+00  0.000E+00  0.000E+00  3.32735E+01  1.624E-01  2.000E+01  2.000E+04 -7.157E-03
   1   17   28     3     7    1.6553E+05 -7.3899E+02   1.6627E+05  0.000E+00  0.000E+00  0.000E+00  3.23849E+01  1.626E-01  2.000E+01  2.000E+04 -3.695E-02
   1   18   29     3     8    1.6627E+05 -2.3162E+03   1.6858E+05  0.000E+00  0.000E+00  0.000E+00  3.14969E+01  1.635E-01  2.000E+01  2.000E+04 -1.158E-01
   1   18   30     3     9    1.6858E+05 -2.6777E+03   1.7126E+05  0.000E+00  0.000E+00  0.000E+00  3.06094E+01  1.650E-01  2.000E+01  2.000E+04 -1.339E-01



1
              HEAD IN LAYER   1 AT END OF TIME STEP   1 IN STRESS PERIOD    7
  ---------------------------------------------------------------------------

          1      2      3      4      5      6      7      8      9     10
         11     12     13     14     15     16     17     18     19     20
         21     22     23     24     25     26     27     28     29     30
 .........................................................................
   1  ****** ****** ****** ****** ****** ****** ****** ****** ****** ******
      ****** ****** ****** ****** ****** ****** ****** ****** ****** ******
      ****** ****** ****** ****** ****** ****** ****** ****** ****** ******
   2  ****** ****** ****** ****** ****** ****** ****** ****** ****** ******
      ****** ****** ****** ****** ****** ****** ****** ****** ****** ******
      ****** ****** ****** ****** ****** ****** ****** ****** ****** ******
   3  ****** ****** ****** ****** ****** ****** ****** ****** ****** ******
      ****** ****** ****** ****** ****** ****** ****** ****** ****** ******
      ****** ****** ****** ****** ****** ****** ****** ****** ****** ******
   4  ****** ****** ****** ****** ****** ****** ****** ****** ****** ******
      ****** ****** ****** ****** ****** ****** ****** ****** ****** ******
      ****** ****** ****** ****** ****** ****** ****** ****** ****** ******
   5  ****** ****** ****** ****** ****** ****** ****** ****** ****** ******
      ****** ****** ****** ****** ****** ****** ****** ****** ****** ******
      ****** ****** ****** ****** ****** ****** ****** ****** ****** ******
   6  ****** ****** ****** ****** ****** ****** ****** ****** ****** ******
      ****** ****** ****** ****** ****** ****** ****** ****** ****** ******
      ****** ****** ****** ****** ****** ****** ****** ****** ****** ******
   7  ****** ****** ****** ****** ****** ****** ****** ****** ****** ******
      ****** ****** ****** ****** ****** ****** ****** ****** ****** ******
      ****** ****** ****** ****** ****** ****** ****** ****** ****** ******
   8  ****** ****** ****** ****** ****** ****** ****** ****** ****** ******
      ****** ****** ****** ****** ****** ****** ****** ****** ****** ******
      ****** ****** ****** ****** ****** ****** ****** ****** ****** ******
   9  ****** ****** ****** ****** ****** ****** ****** ****** ****** ******
      ****** ****** ****** ****** ****** ****** ****** ****** ****** ******
      ****** ****** ****** ****** ****** ****** ****** ****** ****** ******
  10  ****** ****** ****** ****** ****** ****** ****** ****** ****** ******
      ****** ****** ****** ****** ****** ****** ****** ****** ****** ******
      ****** ****** ****** ****** ****** ****** ****** ****** ****** ******
  11  ****** ****** ****** ****** ****** ****** ****** ****** ****** ******
      ****** ****** ****** ****** ****** ****** ****** ****** ****** ******
      ****** ****** ****** ****** ****** ****** ****** ****** ****** ******
  12  ****** ****** ****** ****** ****** ****** ****** ****** ****** ******
      ****** ****** ****** ****** ****** ****** ****** ****** ****** ******
      ****** ****** ****** ****** ****** ****** ****** ****** ****** ******
  13  ****** ****** ****** ****** ****** ****** ****** ****** ****** ******
      ****** ****** ****** ****** ****** ****** ****** ****** ****** ******
      ****** ****** ****** ****** ****** ****** ****** ****** ****** ******
  14  ****** ****** ****** ****** ****** ****** ****** ****** ****** ******
      ****** ****** ****** ****** ****** ****** ****** ****** ****** ******
      ****** ****** ****** ****** ****** ****** ****** ****** ****** ******
  15  ****** ****** ****** ****** ****** ****** ****** ****** ****** ******
      ****** ****** ****** ****** ****** ****** ****** ****** ****** ******
      ****** ****** ****** ****** ****** ****** ****** ****** ****** ******
  16  ****** ****** ****** ****** ****** ****** ****** ****** ****** ******
      ****** ****** ****** ****** ****** ****** ****** ****** ****** ******
      ****** ****** ****** ****** ****** ****** ****** ****** ****** ******
  17  ****** ****** ****** ****** ****** ****** ****** ****** ****** ******
      ****** ****** ****** ****** ****** ****** ****** ****** ****** ******
      ****** ****** ****** ****** ****** ****** ****** ****** ****** ******
  18  ****** ****** ****** ****** ****** ****** ****** ****** ****** ******
      ****** ****** ****** ****** ****** ****** ****** ****** ****** ******
      ****** ****** ****** ****** ****** ****** ****** ****** ****** ******
  19  ****** ****** ****** ****** ****** ****** ****** ****** ****** ******
      ****** ****** ****** ****** ****** ****** ****** ****** ****** ******
      ****** ****** ****** ****** ****** ****** ****** ****** ****** ******
  20  ****** ****** ****** ****** ****** ****** ****** ****** ****** ******
      ****** ****** ****** ****** ****** ****** ****** ****** ****** ******
      ****** ****** ****** ****** ****** ****** ****** ****** ****** ******
  21  ****** ****** ****** ****** ****** ****** ****** ****** ****** ******
      ****** ****** ****** ****** ****** ****** ****** ****** ****** ******
      ****** ****** ****** ****** ****** ****** ****** ****** ****** ******
  22  ****** ****** ****** ****** ****** ****** ****** ****** ****** ******
      ****** ****** ****** ****** ****** ****** ****** ****** ****** ******
      ****** ****** ****** ****** ****** ****** ****** ****** ****** ******
  23  ****** ****** ****** ****** ****** ****** ****** ****** ****** ******
      ****** ****** ****** ****** ****** ****** ****** ****** ****** ******
      ****** ****** ****** ****** ****** ****** ****** ****** ****** ******
  24  ****** ****** ****** ****** ****** ****** ****** ****** ****** ******
      ****** ****** ****** ****** ****** ****** ****** ****** ****** ******
      ****** ****** ****** ****** ****** ****** ****** ****** ****** ******
  25  ****** ****** ****** ****** ****** ****** ****** ****** ****** ******
      ****** ****** ****** ****** ****** ****** ****** ****** ****** ******
      ****** ****** ****** ****** ****** ****** ****** ****** ****** ******

 HEAD WILL BE SAVED ON UNIT   51 AT END OF TIME STEP    1, STRESS PERIOD    7
1
  VOLUMETRIC BUDGET FOR ENTIRE MODEL AT END OF TIME STEP    1, STRESS PERIOD   7
  ------------------------------------------------------------------------------

     CUMULATIVE VOLUMES      L**3       RATES FOR THIS TIME STEP      L**3/T
     ------------------                 ------------------------

           IN:                                      IN:
           ---                                      ---
             STORAGE =    33775957.9643               STORAGE =       22568.6521
       CONSTANT HEAD =    16854480.2857         CONSTANT HEAD =       34554.8260
               WELLS =           0.0000                 WELLS =           0.0000
            RECHARGE =    15097200.0000              RECHARGE =           0.0000
      STREAM LEAKAGE =     4874676.0339        STREAM LEAKAGE =       10312.2958

            TOTAL IN =    70602314.2839              TOTAL IN =       67435.7738

          OUT:                                     OUT:
          ----                                     ----
             STORAGE =      771069.8035               STORAGE =           0.0000
       CONSTANT HEAD =           0.0000         CONSTANT HEAD =           0.0000
               WELLS =    22916370.9007                 WELLS =       35862.8653
            RECHARGE =           0.0000              RECHARGE =           0.0000
      STREAM LEAKAGE =    46914876.2879        STREAM LEAKAGE =       31572.9143

           TOTAL OUT =    70602316.9921             TOTAL OUT =       67435.7796

            IN - OUT =          -2.7082              IN - OUT =      -5.7584E-03

 PERCENT DISCREPANCY =          -0.00     PERCENT DISCREPANCY =          -0.00






         TIME SUMMARY AT END OF TIME STEP    1 IN STRESS PERIOD    7
                    SECONDS     MINUTES      HOURS       DAYS        YEARS
                    -----------------------------------------------------------
   TIME STEP LENGTH 7.86240E+06 1.31040E+05  2184.0      91.000     0.24914    
 STRESS PERIOD TIME 7.86240E+06 1.31040E+05  2184.0      91.000     0.24914    
         TOTAL TIME 5.52096E+07 9.20160E+05  15336.      639.00      1.7495    
1
1
                            STRESS PERIOD NO.    8, LENGTH =   91.00000    
                            -----------------------------------------------

                              NUMBER OF TIME STEPS =     1

                               MULTIPLIER FOR DELT =     1.500

                            INITIAL TIME STEP SIZE =   91.00000    

 WELL NO.  LAYER   ROW   COL   STRESS RATE         
 --------------------------------------------------
      1      1     11     27     -0.1170E+05
      2      1     10     14      -9990.    
      3      1     22      2      -5731.    
      4      1     21     17      -8441.    

      4 WELLS

                 RECHARGE =  1.000000E-03

 REUSING STREAM SEGMENT DATA FROM LAST STRESS PERIOD
 
 SOLVING FOR HEAD 


     6 CALLS TO PCG ROUTINE FOR TIME STEP   1 IN STRESS PERIOD    8
    22 TOTAL ITERATIONS

 OUTPUT CONTROL FOR STRESS PERIOD    8   TIME STEP    1
    SAVE BUDGET
    SAVE HEAD FOR ALL LAYERS
    PRINT HEAD FOR ALL LAYERS
 UBDSV2 SAVING "STREAMFLOW OUT  " ON UNIT  50 AT TIME STEP  1, STRESS PERIOD   8



 STREAM LISTING     PERIOD      8   STEP        1

 LAYER ROW COL. STREAM  RCH.  FLOW INTO     FLOW TO   FLOW OUT OF   OVRLND.     DIRECT     STREAM       STREAM     STREAM     STREAM   STREAMBED  STREAMBED
                SEG.NO.  NO.  STRM. RCH.    AQUIFER    STRM. RCH.    RUNOFF     PRECIP       ET          HEAD       DEPTH      WIDTH   CONDCTNC.   GRADIENT

   1   13    1     1     1    1.0000E+05 -1.3725E+03   1.0137E+05  0.000E+00  0.000E+00  0.000E+00  4.84066E+01  1.452E-01  2.000E+01  2.000E+04 -6.863E-02
   1   13    2     1     2    1.0137E+05 -2.3536E+03   1.0373E+05  0.000E+00  0.000E+00  0.000E+00  4.79309E+01  1.469E-01  2.000E+01  2.000E+04 -1.177E-01
   1   14    3     1     3    1.0373E+05 -3.3334E+02   1.0406E+05  0.000E+00  0.000E+00  0.000E+00  4.74548E+01  1.480E-01  2.000E+01  2.000E+04 -1.667E-02
   1   15    4     1     4    1.0406E+05 -2.4307E+02   1.0430E+05  0.000E+00  0.000E+00  0.000E+00  4.69778E+01  1.483E-01  2.000E+01  2.000E+04 -1.215E-02
   1   16    5     1     5    1.0430E+05 -2.1698E+02   1.0452E+05  0.000E+00  0.000E+00  0.000E+00  4.65007E+01  1.484E-01  2.000E+01  2.000E+04 -1.085E-02
   1   16    6     1     6    1.0452E+05 -4.4222E+02   1.0496E+05  0.000E+00  0.000E+00  0.000E+00  4.60237E+01  1.487E-01  2.000E+01  2.000E+04 -2.211E-02
   1   16    7     1     7    1.0496E+05 -5.4417E+02   1.0551E+05  0.000E+00  0.000E+00  0.000E+00  4.55469E+01  1.491E-01  2.000E+01  2.000E+04 -2.721E-02
   1   16    8     1     8    1.0551E+05 -5.9922E+02   1.0611E+05  0.000E+00  0.000E+00  0.000E+00  4.50701E+01  1.496E-01  2.000E+01  2.000E+04 -2.996E-02
   1   16    9     1     9    1.0611E+05 -6.1559E+02   1.0672E+05  0.000E+00  0.000E+00  0.000E+00  4.45933E+01  1.501E-01  2.000E+01  2.000E+04 -3.078E-02
   1   16   10     1    10    1.0672E+05 -5.9586E+02   1.0732E+05  0.000E+00  0.000E+00  0.000E+00  4.41166E+01  1.507E-01  2.000E+01  2.000E+04 -2.979E-02
   1   16   11     1    11    1.0732E+05 -5.4530E+02   1.0786E+05  0.000E+00  0.000E+00  0.000E+00  4.36398E+01  1.511E-01  2.000E+01  2.000E+04 -2.726E-02
   1   16   12     1    12    1.0786E+05 -7.2813E+02   1.0859E+05  0.000E+00  0.000E+00  0.000E+00  4.31630E+01  1.517E-01  2.000E+01  2.000E+04 -3.641E-02
   1   15   13     1    13    1.0859E+05 -5.4450E+02   1.0913E+05  0.000E+00  0.000E+00  0.000E+00  4.26863E+01  1.522E-01  2.000E+01  2.000E+04 -2.722E-02
   1   14   14     1    14    1.0913E+05 -5.2795E+02   1.0966E+05  0.000E+00  0.000E+00  0.000E+00  4.22095E+01  1.527E-01  2.000E+01  2.000E+04 -2.640E-02
   1   13   15     1    15    1.0966E+05 -4.7157E+02   1.1013E+05  0.000E+00  0.000E+00  0.000E+00  4.17326E+01  1.531E-01  2.000E+01  2.000E+04 -2.358E-02
   1   12   16     1    16    1.1013E+05 -8.5702E+02   1.1099E+05  0.000E+00  0.000E+00  0.000E+00  4.12559E+01  1.536E-01  2.000E+01  2.000E+04 -4.285E-02
   1   12   17     1    17    1.1099E+05 -1.0510E+03   1.1204E+05  0.000E+00  0.000E+00  0.000E+00  4.07794E+01  1.544E-01  2.000E+01  2.000E+04 -5.255E-02
   1   12   18     1    18    1.1204E+05 -1.2244E+03   1.1327E+05  0.000E+00  0.000E+00  0.000E+00  4.03031E+01  1.554E-01  2.000E+01  2.000E+04 -6.122E-02
   1   12   19     1    19    1.1327E+05 -1.8737E+03   1.1514E+05  0.000E+00  0.000E+00  0.000E+00  3.98271E+01  1.567E-01  2.000E+01  2.000E+04 -9.368E-02
   1   13   20     1    20    1.1514E+05 -1.3362E+03   1.1648E+05  0.000E+00  0.000E+00  0.000E+00  3.93511E+01  1.580E-01  2.000E+01  2.000E+04 -6.681E-02
   1   14   21     1    21    1.1648E+05 -9.6380E+02   1.1744E+05  0.000E+00  0.000E+00  0.000E+00  3.88748E+01  1.589E-01  2.000E+01  2.000E+04 -4.819E-02
   1   14   22     1    22    1.1744E+05  5.0171E+03   1.1242E+05  0.000E+00  0.000E+00  0.000E+00  3.83959E+01  1.572E-01  2.000E+01  2.000E+04  2.509E-01
   1    9   30     2     1    5.0000E+04  4.8620E+01   4.9951E+04  0.000E+00  0.000E+00  0.000E+00  4.02408E+01  1.158E-01  2.000E+01  2.000E+04  2.431E-03
   1    9   29     2     2    4.9951E+04 -6.7735E+01   5.0019E+04  0.000E+00  0.000E+00  0.000E+00  3.99908E+01  1.158E-01  2.000E+01  2.000E+04 -3.387E-03
   1    9   28     2     3    5.0019E+04  5.2429E+01   4.9967E+04  0.000E+00  0.000E+00  0.000E+00  3.97409E+01  1.159E-01  2.000E+01  2.000E+04  2.621E-03
   1    9   27     2     4    4.9967E+04 -7.9587E+02   5.0763E+04  0.000E+00  0.000E+00  0.000E+00  3.94914E+01  1.164E-01  2.000E+01  2.000E+04 -3.979E-02
   1   10   26     2     5    5.0763E+04  1.5756E+03   4.9187E+04  0.000E+00  0.000E+00  0.000E+00  3.92408E+01  1.158E-01  2.000E+01  2.000E+04  7.878E-02
   1   11   25     2     6    4.9187E+04  8.2816E+02   4.8359E+04  0.000E+00  0.000E+00  0.000E+00  3.89892E+01  1.142E-01  2.000E+01  2.000E+04  4.141E-02
   1   12   24     2     7    4.8359E+04 -8.2317E+02   4.9182E+04  0.000E+00  0.000E+00  0.000E+00  3.87391E+01  1.141E-01  2.000E+01  2.000E+04 -4.116E-02
   1   13   23     2     8    4.9182E+04 -2.2825E+02   4.9410E+04  0.000E+00  0.000E+00  0.000E+00  3.84899E+01  1.149E-01  2.000E+01  2.000E+04 -1.141E-02
   1   14   22     2     9    4.9410E+04  1.8740E+03   4.7536E+04  0.000E+00  0.000E+00  0.000E+00  3.82387E+01  1.137E-01  2.000E+01  2.000E+04  9.370E-02
   1   14   22     3     1    1.5996E+05 -8.5564E+03   1.6852E+05  0.000E+00  0.000E+00  0.000E+00  3.77172E+01  1.617E-01  2.000E+01  2.000E+04 -4.278E-01
   1   15   23     3     2    1.6852E+05 -4.1662E+02   1.6893E+05  0.000E+00  0.000E+00  0.000E+00  3.68310E+01  1.643E-01  2.000E+01  2.000E+04 -2.083E-02
   1   15   24     3     3    1.6893E+05 -2.3389E+02   1.6917E+05  0.000E+00  0.000E+00  0.000E+00  3.59423E+01  1.645E-01  2.000E+01  2.000E+04 -1.169E-02
   1   15   25     3     4    1.6917E+05 -2.1678E+02   1.6938E+05  0.000E+00  0.000E+00  0.000E+00  3.50535E+01  1.646E-01  2.000E+01  2.000E+04 -1.084E-02
   1   15   26     3     5    1.6938E+05 -2.0353E+02   1.6959E+05  0.000E+00  0.000E+00  0.000E+00  3.41647E+01  1.647E-01  2.000E+01  2.000E+04 -1.018E-02
   1   16   27     3     6    1.6959E+05 -2.2464E+02   1.6981E+05  0.000E+00  0.000E+00  0.000E+00  3.32760E+01  1.649E-01  2.000E+01  2.000E+04 -1.123E-02
   1   17   28     3     7    1.6981E+05 -9.4159E+02   1.7075E+05  0.000E+00  0.000E+00  0.000E+00  3.23874E+01  1.652E-01  2.000E+01  2.000E+04 -4.708E-02
   1   18   29     3     8    1.7075E+05 -2.4792E+03   1.7323E+05  0.000E+00  0.000E+00  0.000E+00  3.14995E+01  1.662E-01  2.000E+01  2.000E+04 -1.240E-01
   1   18   30     3     9    1.7323E+05 -2.8230E+03   1.7605E+05  0.000E+00  0.000E+00  0.000E+00  3.06122E+01  1.677E-01  2.000E+01  2.000E+04 -1.411E-01



1
              HEAD IN LAYER   1 AT END OF TIME STEP   1 IN STRESS PERIOD    8
  ---------------------------------------------------------------------------

          1      2      3      4      5      6      7      8      9     10
         11     12     13     14     15     16     17     18     19     20
         21     22     23     24     25     26     27     28     29     30
 .........................................................................
   1  ****** ****** ****** ****** ****** ****** ****** ****** ****** ******
      ****** ****** ****** ****** ****** ****** ****** ****** ****** ******
      ****** ****** ****** ****** ****** ****** ****** ****** ****** ******
   2  ****** ****** ****** ****** ****** ****** ****** ****** ****** ******
      ****** ****** ****** ****** ****** ****** ****** ****** ****** ******
      ****** ****** ****** ****** ****** ****** ****** ****** ****** ******
   3  ****** ****** ****** ****** ****** ****** ****** ****** ****** ******
      ****** ****** ****** ****** ****** ****** ****** ****** ****** ******
      ****** ****** ****** ****** ****** ****** ****** ****** ****** ******
   4  ****** ****** ****** ****** ****** ****** ****** ****** ****** ******
      ****** ****** ****** ****** ****** ****** ****** ****** ****** ******
      ****** ****** ****** ****** ****** ****** ****** ****** ****** ******
   5  ****** ****** ****** ****** ****** ****** ****** ****** ****** ******
      ****** ****** ****** ****** ****** ****** ****** ****** ****** ******
      ****** ****** ****** ****** ****** ****** ****** ****** ****** ******
   6  ****** ****** ****** ****** ****** ****** ****** ****** ****** ******
      ****** ****** ****** ****** ****** ****** ****** ****** ****** ******
      ****** ****** ****** ****** ****** ****** ****** ****** ****** ******
   7  ****** ****** ****** ****** ****** ****** ****** ****** ****** ******
      ****** ****** ****** ****** ****** ****** ****** ****** ****** ******
      ****** ****** ****** ****** ****** ****** ****** ****** ****** ******
   8  ****** ****** ****** ****** ****** ****** ****** ****** ****** ******
      ****** ****** ****** ****** ****** ****** ****** ****** ****** ******
      ****** ****** ****** ****** ****** ****** ****** ****** ****** ******
   9  ****** ****** ****** ****** ****** ****** ****** ****** ****** ******
      ****** ****** ****** ****** ****** ****** ****** ****** ****** ******
      ****** ****** ****** ****** ****** ****** ****** ****** ****** ******
  10  ****** ****** ****** ****** ****** ****** ****** ****** ****** ******
      ****** ****** ****** ****** ****** ****** ****** ****** ****** ******
      ****** ****** ****** ****** ****** ****** ****** ****** ****** ******
  11  ****** ****** ****** ****** ****** ****** ****** ****** ****** ******
      ****** ****** ****** ****** ****** ****** ****** ****** ****** ******
      ****** ****** ****** ****** ****** ****** ****** ****** ****** ******
  12  ****** ****** ****** ****** ****** ****** ****** ****** ****** ******
      ****** ****** ****** ****** ****** ****** ****** ****** ****** ******
      ****** ****** ****** ****** ****** ****** ****** ****** ****** ******
  13  ****** ****** ****** ****** ****** ****** ****** ****** ****** ******
      ****** ****** ****** ****** ****** ****** ****** ****** ****** ******
      ****** ****** ****** ****** ****** ****** ****** ****** ****** ******
  14  ****** ****** ****** ****** ****** ****** ****** ****** ****** ******
      ****** ****** ****** ****** ****** ****** ****** ****** ****** ******
      ****** ****** ****** ****** ****** ****** ****** ****** ****** ******
  15  ****** ****** ****** ****** ****** ****** ****** ****** ****** ******
      ****** ****** ****** ****** ****** ****** ****** ****** ****** ******
      ****** ****** ****** ****** ****** ****** ****** ****** ****** ******
  16  ****** ****** ****** ****** ****** ****** ****** ****** ****** ******
      ****** ****** ****** ****** ****** ****** ****** ****** ****** ******
      ****** ****** ****** ****** ****** ****** ****** ****** ****** ******
  17  ****** ****** ****** ****** ****** ****** ****** ****** ****** ******
      ****** ****** ****** ****** ****** ****** ****** ****** ****** ******
      ****** ****** ****** ****** ****** ****** ****** ****** ****** ******
  18  ****** ****** ****** ****** ****** ****** ****** ****** ****** ******
      ****** ****** ****** ****** ****** ****** ****** ****** ****** ******
      ****** ****** ****** ****** ****** ****** ****** ****** ****** ******
  19  ****** ****** ****** ****** ****** ****** ****** ****** ****** ******
      ****** ****** ****** ****** ****** ****** ****** ****** ****** ******
      ****** ****** ****** ****** ****** ****** ****** ****** ****** ******
  20  ****** ****** ****** ****** ****** ****** ****** ****** ****** ******
      ****** ****** ****** ****** ****** ****** ****** ****** ****** ******
      ****** ****** ****** ****** ****** ****** ****** ****** ****** ******
  21  ****** ****** ****** ****** ****** ****** ****** ****** ****** ******
      ****** ****** ****** ****** ****** ****** ****** ****** ****** ******
      ****** ****** ****** ****** ****** ****** ****** ****** ****** ******
  22  ****** ****** ****** ****** ****** ****** ****** ****** ****** ******
      ****** ****** ****** ****** ****** ****** ****** ****** ****** ******
      ****** ****** ****** ****** ****** ****** ****** ****** ****** ******
  23  ****** ****** ****** ****** ****** ****** ****** ****** ****** ******
      ****** ****** ****** ****** ****** ****** ****** ****** ****** ******
      ****** ****** ****** ****** ****** ****** ****** ****** ****** ******
  24  ****** ****** ****** ****** ****** ****** ****** ****** ****** ******
      ****** ****** ****** ****** ****** ****** ****** ****** ****** ******
      ****** ****** ****** ****** ****** ****** ****** ****** ****** ******
  25  ****** ****** ****** ****** ****** ****** ****** ****** ****** ******
      ****** ****** ****** ****** ****** ****** ****** ****** ****** ******
      ****** ****** ****** ****** ****** ****** ****** ****** ****** ******

 HEAD WILL BE SAVED ON UNIT   51 AT END OF TIME STEP    1, STRESS PERIOD    8
1
  VOLUMETRIC BUDGET FOR ENTIRE MODEL AT END OF TIME STEP    1, STRESS PERIOD   8
  ------------------------------------------------------------------------------

     CUMULATIVE VOLUMES      L**3       RATES FOR THIS TIME STEP      L**3/T
     ------------------                 ------------------------

           IN:                                      IN:
           ---                                      ---
             STORAGE =    33915863.4290               STORAGE =        1537.4227
       CONSTANT HEAD =    19973817.1390         CONSTANT HEAD =       34278.4270
               WELLS =           0.0000                 WELLS =           0.0000
            RECHARGE =    17608800.0000              RECHARGE =       27600.0000
      STREAM LEAKAGE =     5729702.4631        STREAM LEAKAGE =        9395.8948

            TOTAL IN =    77228183.0311              TOTAL IN =       72811.7445

          OUT:                                     OUT:
          ----                                     ----
             STORAGE =      907399.0881               STORAGE =        1498.1240
       CONSTANT HEAD =           0.0000         CONSTANT HEAD =           0.0000
               WELLS =    26179891.6393                 WELLS =       35862.8653
            RECHARGE =           0.0000              RECHARGE =           0.0000
      STREAM LEAKAGE =    50140894.2609        STREAM LEAKAGE =       35450.7470

           TOTAL OUT =    77228184.9883             TOTAL OUT =       72811.7362

            IN - OUT =          -1.9571              IN - OUT =       8.2531E-03

 PERCENT DISCREPANCY =          -0.00     PERCENT DISCREPANCY =           0.00






         TIME SUMMARY AT END OF TIME STEP    1 IN STRESS PERIOD    8
                    SECONDS     MINUTES      HOURS       DAYS        YEARS
                    -----------------------------------------------------------
   TIME STEP LENGTH 7.86240E+06 1.31040E+05  2184.0      91.000     0.24914    
 STRESS PERIOD TIME 7.86240E+06 1.31040E+05  2184.0      91.000     0.24914    
         TOTAL TIME 6.30720E+07 1.05120E+06  17520.      730.00      1.9986    
1
1
                            STRESS PERIOD NO.    9, LENGTH =   92.00000    
                            -----------------------------------------------

                              NUMBER OF TIME STEPS =     1

                               MULTIPLIER FOR DELT =     1.500

                            INITIAL TIME STEP SIZE =   92.00000    

 WELL NO.  LAYER   ROW   COL   STRESS RATE         
 --------------------------------------------------
      1      1     11     27     -0.1170E+05
      2      1     10     14      -9990.    
      3      1     22      2      -5731.    
      4      1     21     17      -8441.    

      4 WELLS

                 RECHARGE =  5.000000E-04

 REUSING STREAM SEGMENT DATA FROM LAST STRESS PERIOD
 
 SOLVING FOR HEAD 


     6 CALLS TO PCG ROUTINE FOR TIME STEP   1 IN STRESS PERIOD    9
    23 TOTAL ITERATIONS

 OUTPUT CONTROL FOR STRESS PERIOD    9   TIME STEP    1
    SAVE BUDGET
    SAVE HEAD FOR ALL LAYERS
    PRINT HEAD FOR ALL LAYERS
 UBDSV2 SAVING "STREAMFLOW OUT  " ON UNIT  50 AT TIME STEP  1, STRESS PERIOD   9



 STREAM LISTING     PERIOD      9   STEP        1

 LAYER ROW COL. STREAM  RCH.  FLOW INTO     FLOW TO   FLOW OUT OF   OVRLND.     DIRECT     STREAM       STREAM     STREAM     STREAM   STREAMBED  STREAMBED
                SEG.NO.  NO.  STRM. RCH.    AQUIFER    STRM. RCH.    RUNOFF     PRECIP       ET          HEAD       DEPTH      WIDTH   CONDCTNC.   GRADIENT

   1   13    1     1     1    1.0000E+05 -1.1556E+03   1.0116E+05  0.000E+00  0.000E+00  0.000E+00  4.84065E+01  1.452E-01  2.000E+01  2.000E+04 -5.778E-02
   1   13    2     1     2    1.0116E+05 -2.1079E+03   1.0326E+05  0.000E+00  0.000E+00  0.000E+00  4.79307E+01  1.466E-01  2.000E+01  2.000E+04 -1.054E-01
   1   14    3     1     3    1.0326E+05 -2.6188E+02   1.0353E+05  0.000E+00  0.000E+00  0.000E+00  4.74544E+01  1.476E-01  2.000E+01  2.000E+04 -1.309E-02
   1   15    4     1     4    1.0353E+05 -1.7053E+02   1.0370E+05  0.000E+00  0.000E+00  0.000E+00  4.69773E+01  1.478E-01  2.000E+01  2.000E+04 -8.527E-03
   1   16    5     1     5    1.0370E+05 -2.1635E+01   1.0372E+05  0.000E+00  0.000E+00  0.000E+00  4.65001E+01  1.478E-01  2.000E+01  2.000E+04 -1.082E-03
   1   16    6     1     6    1.0372E+05 -3.2068E+02   1.0404E+05  0.000E+00  0.000E+00  0.000E+00  4.60230E+01  1.480E-01  2.000E+01  2.000E+04 -1.603E-02
   1   16    7     1     7    1.0404E+05 -4.2646E+02   1.0446E+05  0.000E+00  0.000E+00  0.000E+00  4.55460E+01  1.483E-01  2.000E+01  2.000E+04 -2.132E-02
   1   16    8     1     8    1.0446E+05 -4.8312E+02   1.0495E+05  0.000E+00  0.000E+00  0.000E+00  4.50692E+01  1.487E-01  2.000E+01  2.000E+04 -2.416E-02
   1   16    9     1     9    1.0495E+05 -5.0118E+02   1.0545E+05  0.000E+00  0.000E+00  0.000E+00  4.45923E+01  1.491E-01  2.000E+01  2.000E+04 -2.506E-02
   1   16   10     1    10    1.0545E+05 -4.8355E+02   1.0593E+05  0.000E+00  0.000E+00  0.000E+00  4.41154E+01  1.495E-01  2.000E+01  2.000E+04 -2.418E-02
   1   16   11     1    11    1.0593E+05 -4.3405E+02   1.0637E+05  0.000E+00  0.000E+00  0.000E+00  4.36386E+01  1.499E-01  2.000E+01  2.000E+04 -2.170E-02
   1   16   12     1    12    1.0637E+05 -5.3775E+02   1.0690E+05  0.000E+00  0.000E+00  0.000E+00  4.31617E+01  1.503E-01  2.000E+01  2.000E+04 -2.689E-02
   1   15   13     1    13    1.0690E+05 -3.3303E+02   1.0724E+05  0.000E+00  0.000E+00  0.000E+00  4.26848E+01  1.507E-01  2.000E+01  2.000E+04 -1.665E-02
   1   14   14     1    14    1.0724E+05 -3.0309E+02   1.0754E+05  0.000E+00  0.000E+00  0.000E+00  4.22078E+01  1.510E-01  2.000E+01  2.000E+04 -1.515E-02
   1   13   15     1    15    1.0754E+05 -2.4097E+02   1.0778E+05  0.000E+00  0.000E+00  0.000E+00  4.17307E+01  1.512E-01  2.000E+01  2.000E+04 -1.205E-02
   1   12   16     1    16    1.0778E+05 -6.1829E+02   1.0840E+05  0.000E+00  0.000E+00  0.000E+00  4.12538E+01  1.516E-01  2.000E+01  2.000E+04 -3.091E-02
   1   12   17     1    17    1.0840E+05 -8.8723E+02   1.0929E+05  0.000E+00  0.000E+00  0.000E+00  4.07772E+01  1.522E-01  2.000E+01  2.000E+04 -4.436E-02
   1   12   18     1    18    1.0929E+05 -1.0683E+03   1.1036E+05  0.000E+00  0.000E+00  0.000E+00  4.03007E+01  1.530E-01  2.000E+01  2.000E+04 -5.341E-02
   1   12   19     1    19    1.1036E+05 -1.6860E+03   1.1204E+05  0.000E+00  0.000E+00  0.000E+00  3.98246E+01  1.542E-01  2.000E+01  2.000E+04 -8.430E-02
   1   13   20     1    20    1.1204E+05 -1.1617E+03   1.1320E+05  0.000E+00  0.000E+00  0.000E+00  3.93485E+01  1.553E-01  2.000E+01  2.000E+04 -5.809E-02
   1   14   21     1    21    1.1320E+05 -7.9090E+02   1.1399E+05  0.000E+00  0.000E+00  0.000E+00  3.88721E+01  1.562E-01  2.000E+01  2.000E+04 -3.954E-02
   1   14   22     1    22    1.1399E+05  5.0557E+03   1.0894E+05  0.000E+00  0.000E+00  0.000E+00  3.83930E+01  1.544E-01  2.000E+01  2.000E+04  2.528E-01
   1    9   30     2     1    5.0000E+04  1.7195E+02   4.9828E+04  0.000E+00  0.000E+00  0.000E+00  4.02407E+01  1.157E-01  2.000E+01  2.000E+04  8.598E-03
   1    9   29     2     2    4.9828E+04  5.5833E+01   4.9772E+04  0.000E+00  0.000E+00  0.000E+00  3.99906E+01  1.156E-01  2.000E+01  2.000E+04  2.792E-03
   1    9   28     2     3    4.9772E+04  1.7792E+02   4.9594E+04  0.000E+00  0.000E+00  0.000E+00  3.97404E+01  1.154E-01  2.000E+01  2.000E+04  8.896E-03
   1    9   27     2     4    4.9594E+04 -6.1918E+02   5.0213E+04  0.000E+00  0.000E+00  0.000E+00  3.94907E+01  1.157E-01  2.000E+01  2.000E+04 -3.096E-02
   1   10   26     2     5    5.0213E+04  1.7494E+03   4.8464E+04  0.000E+00  0.000E+00  0.000E+00  3.92399E+01  1.149E-01  2.000E+01  2.000E+04  8.747E-02
   1   11   25     2     6    4.8464E+04  9.9453E+02   4.7470E+04  0.000E+00  0.000E+00  0.000E+00  3.89880E+01  1.130E-01  2.000E+01  2.000E+04  4.973E-02
   1   12   24     2     7    4.7470E+04 -6.7017E+02   4.8140E+04  0.000E+00  0.000E+00  0.000E+00  3.87378E+01  1.128E-01  2.000E+01  2.000E+04 -3.351E-02
   1   13   23     2     8    4.8140E+04 -1.8110E+02   4.8321E+04  0.000E+00  0.000E+00  0.000E+00  3.84884E+01  1.134E-01  2.000E+01  2.000E+04 -9.055E-03
   1   14   22     2     9    4.8321E+04  1.9381E+03   4.6383E+04  0.000E+00  0.000E+00  0.000E+00  3.82371E+01  1.121E-01  2.000E+01  2.000E+04  9.691E-02
   1   14   22     3     1    1.5532E+05 -8.5159E+03   1.6384E+05  0.000E+00  0.000E+00  0.000E+00  3.77144E+01  1.589E-01  2.000E+01  2.000E+04 -4.258E-01
   1   15   23     3     2    1.6384E+05 -3.6377E+02   1.6420E+05  0.000E+00  0.000E+00  0.000E+00  3.68282E+01  1.615E-01  2.000E+01  2.000E+04 -1.819E-02
   1   15   24     3     3    1.6420E+05 -1.9074E+02   1.6439E+05  0.000E+00  0.000E+00  0.000E+00  3.59395E+01  1.617E-01  2.000E+01  2.000E+04 -9.537E-03
   1   15   25     3     4    1.6439E+05 -1.7341E+02   1.6456E+05  0.000E+00  0.000E+00  0.000E+00  3.50507E+01  1.618E-01  2.000E+01  2.000E+04 -8.670E-03
   1   15   26     3     5    1.6456E+05 -1.5588E+02   1.6472E+05  0.000E+00  0.000E+00  0.000E+00  3.41619E+01  1.619E-01  2.000E+01  2.000E+04 -7.794E-03
   1   16   27     3     6    1.6472E+05 -1.6852E+02   1.6489E+05  0.000E+00  0.000E+00  0.000E+00  3.32731E+01  1.620E-01  2.000E+01  2.000E+04 -8.426E-03
   1   17   28     3     7    1.6489E+05 -7.8761E+02   1.6568E+05  0.000E+00  0.000E+00  0.000E+00  3.23845E+01  1.623E-01  2.000E+01  2.000E+04 -3.938E-02
   1   18   29     3     8    1.6568E+05 -2.3023E+03   1.6798E+05  0.000E+00  0.000E+00  0.000E+00  3.14965E+01  1.632E-01  2.000E+01  2.000E+04 -1.151E-01
   1   18   30     3     9    1.6798E+05 -2.6902E+03   1.7067E+05  0.000E+00  0.000E+00  0.000E+00  3.06091E+01  1.646E-01  2.000E+01  2.000E+04 -1.345E-01



1
              HEAD IN LAYER   1 AT END OF TIME STEP   1 IN STRESS PERIOD    9
  ---------------------------------------------------------------------------

          1      2      3      4      5      6      7      8      9     10
         11     12     13     14     15     16     17     18     19     20
         21     22     23     24     25     26     27     28     29     30
 .........................................................................
   1  ****** ****** ****** ****** ****** ****** ****** ****** ****** ******
      ****** ****** ****** ****** ****** ****** ****** ****** ****** ******
      ****** ****** ****** ****** ****** ****** ****** ****** ****** ******
   2  ****** ****** ****** ****** ****** ****** ****** ****** ****** ******
      ****** ****** ****** ****** ****** ****** ****** ****** ****** ******
      ****** ****** ****** ****** ****** ****** ****** ****** ****** ******
   3  ****** ****** ****** ****** ****** ****** ****** ****** ****** ******
      ****** ****** ****** ****** ****** ****** ****** ****** ****** ******
      ****** ****** ****** ****** ****** ****** ****** ****** ****** ******
   4  ****** ****** ****** ****** ****** ****** ****** ****** ****** ******
      ****** ****** ****** ****** ****** ****** ****** ****** ****** ******
      ****** ****** ****** ****** ****** ****** ****** ****** ****** ******
   5  ****** ****** ****** ****** ****** ****** ****** ****** ****** ******
      ****** ****** ****** ****** ****** ****** ****** ****** ****** ******
      ****** ****** ****** ****** ****** ****** ****** ****** ****** ******
   6  ****** ****** ****** ****** ****** ****** ****** ****** ****** ******
      ****** ****** ****** ****** ****** ****** ****** ****** ****** ******
      ****** ****** ****** ****** ****** ****** ****** ****** ****** ******
   7  ****** ****** ****** ****** ****** ****** ****** ****** ****** ******
      ****** ****** ****** ****** ****** ****** ****** ****** ****** ******
      ****** ****** ****** ****** ****** ****** ****** ****** ****** ******
   8  ****** ****** ****** ****** ****** ****** ****** ****** ****** ******
      ****** ****** ****** ****** ****** ****** ****** ****** ****** ******
      ****** ****** ****** ****** ****** ****** ****** ****** ****** ******
   9  ****** ****** ****** ****** ****** ****** ****** ****** ****** ******
      ****** ****** ****** ****** ****** ****** ****** ****** ****** ******
      ****** ****** ****** ****** ****** ****** ****** ****** ****** ******
  10  ****** ****** ****** ****** ****** ****** ****** ****** ****** ******
      ****** ****** ****** ****** ****** ****** ****** ****** ****** ******
      ****** ****** ****** ****** ****** ****** ****** ****** ****** ******
  11  ****** ****** ****** ****** ****** ****** ****** ****** ****** ******
      ****** ****** ****** ****** ****** ****** ****** ****** ****** ******
      ****** ****** ****** ****** ****** ****** ****** ****** ****** ******
  12  ****** ****** ****** ****** ****** ****** ****** ****** ****** ******
      ****** ****** ****** ****** ****** ****** ****** ****** ****** ******
      ****** ****** ****** ****** ****** ****** ****** ****** ****** ******
  13  ****** ****** ****** ****** ****** ****** ****** ****** ****** ******
      ****** ****** ****** ****** ****** ****** ****** ****** ****** ******
      ****** ****** ****** ****** ****** ****** ****** ****** ****** ******
  14  ****** ****** ****** ****** ****** ****** ****** ****** ****** ******
      ****** ****** ****** ****** ****** ****** ****** ****** ****** ******
      ****** ****** ****** ****** ****** ****** ****** ****** ****** ******
  15  ****** ****** ****** ****** ****** ****** ****** ****** ****** ******
      ****** ****** ****** ****** ****** ****** ****** ****** ****** ******
      ****** ****** ****** ****** ****** ****** ****** ****** ****** ******
  16  ****** ****** ****** ****** ****** ****** ****** ****** ****** ******
      ****** ****** ****** ****** ****** ****** ****** ****** ****** ******
      ****** ****** ****** ****** ****** ****** ****** ****** ****** ******
  17  ****** ****** ****** ****** ****** ****** ****** ****** ****** ******
      ****** ****** ****** ****** ****** ****** ****** ****** ****** ******
      ****** ****** ****** ****** ****** ****** ****** ****** ****** ******
  18  ****** ****** ****** ****** ****** ****** ****** ****** ****** ******
      ****** ****** ****** ****** ****** ****** ****** ****** ****** ******
      ****** ****** ****** ****** ****** ****** ****** ****** ****** ******
  19  ****** ****** ****** ****** ****** ****** ****** ****** ****** ******
      ****** ****** ****** ****** ****** ****** ****** ****** ****** ******
      ****** ****** ****** ****** ****** ****** ****** ****** ****** ******
  20  ****** ****** ****** ****** ****** ****** ****** ****** ****** ******
      ****** ****** ****** ****** ****** ****** ****** ****** ****** ******
      ****** ****** ****** ****** ****** ****** ****** ****** ****** ******
  21  ****** ****** ****** ****** ****** ****** ****** ****** ****** ******
      ****** ****** ****** ****** ****** ****** ****** ****** ****** ******
      ****** ****** ****** ****** ****** ****** ****** ****** ****** ******
  22  ****** ****** ****** ****** ****** ****** ****** ****** ****** ******
      ****** ****** ****** ****** ****** ****** ****** ****** ****** ******
      ****** ****** ****** ****** ****** ****** ****** ****** ****** ******
  23  ****** ****** ****** ****** ****** ****** ****** ****** ****** ******
      ****** ****** ****** ****** ****** ****** ****** ****** ****** ******
      ****** ****** ****** ****** ****** ****** ****** ****** ****** ******
  24  ****** ****** ****** ****** ****** ****** ****** ****** ****** ******
      ****** ****** ****** ****** ****** ****** ****** ****** ****** ******
      ****** ****** ****** ****** ****** ****** ****** ****** ****** ******
  25  ****** ****** ****** ****** ****** ****** ****** ****** ****** ******
      ****** ****** ****** ****** ****** ****** ****** ****** ****** ******
      ****** ****** ****** ****** ****** ****** ****** ****** ****** ******

 HEAD WILL BE SAVED ON UNIT   51 AT END OF TIME STEP    1, STRESS PERIOD    9
1
  VOLUMETRIC BUDGET FOR ENTIRE MODEL AT END OF TIME STEP    1, STRESS PERIOD   9
  ------------------------------------------------------------------------------

     CUMULATIVE VOLUMES      L**3       RATES FOR THIS TIME STEP      L**3/T
     ------------------                 ------------------------

           IN:                                      IN:
           ---                                      ---
             STORAGE =    34585293.7464               STORAGE =        7276.4165
       CONSTANT HEAD =    23235724.6033         CONSTANT HEAD =       35455.5159
               WELLS =           0.0000                 WELLS =           0.0000
            RECHARGE =    18878400.0000              RECHARGE =       13800.0000
      STREAM LEAKAGE =     6662906.0561        STREAM LEAKAGE =       10143.5173

            TOTAL IN =    83362324.4057              TOTAL IN =       66675.4497

          OUT:                                     OUT:
          ----                                     ----
             STORAGE =      907399.0881               STORAGE =           0.0000
       CONSTANT HEAD =           0.0000         CONSTANT HEAD =           0.0000
               WELLS =    29479275.2432                 WELLS =       35862.8653
            RECHARGE =           0.0000              RECHARGE =           0.0000
      STREAM LEAKAGE =    52975652.1060        STREAM LEAKAGE =       30812.5853

           TOTAL OUT =    83362326.4373             TOTAL OUT =       66675.4505

            IN - OUT =          -2.0315              IN - OUT =      -8.0868E-04

 PERCENT DISCREPANCY =          -0.00     PERCENT DISCREPANCY =          -0.00






         TIME SUMMARY AT END OF TIME STEP    1 IN STRESS PERIOD    9
                    SECONDS     MINUTES      HOURS       DAYS        YEARS
                    -----------------------------------------------------------
   TIME STEP LENGTH 7.94880E+06 1.32480E+05  2208.0      92.000     0.25188    
 STRESS PERIOD TIME 7.94880E+06 1.32480E+05  2208.0      92.000     0.25188    
         TOTAL TIME 7.10208E+07 1.18368E+06  19728.      822.00      2.2505    
1
1
                            STRESS PERIOD NO.   10, LENGTH =   91.00000    
                            -----------------------------------------------

                              NUMBER OF TIME STEPS =     1

                               MULTIPLIER FOR DELT =     1.500

                            INITIAL TIME STEP SIZE =   91.00000    

 WELL NO.  LAYER   ROW   COL   STRESS RATE         
 --------------------------------------------------
      1      1     11     27     -0.1170E+05
      2      1     10     14      -9990.    
      3      1     22      2      -5731.    
      4      1     21     17      -8441.    

      4 WELLS

                 RECHARGE =  2.000000E-03

 REUSING STREAM SEGMENT DATA FROM LAST STRESS PERIOD
 
 SOLVING FOR HEAD 


     7 CALLS TO PCG ROUTINE FOR TIME STEP   1 IN STRESS PERIOD   10
    26 TOTAL ITERATIONS

 OUTPUT CONTROL FOR STRESS PERIOD   10   TIME STEP    1
    SAVE BUDGET
    SAVE HEAD FOR ALL LAYERS
    PRINT HEAD FOR ALL LAYERS
 UBDSV2 SAVING "STREAMFLOW OUT  " ON UNIT  50 AT TIME STEP  1, STRESS PERIOD  10



 STREAM LISTING     PERIOD     10   STEP        1

 LAYER ROW COL. STREAM  RCH.  FLOW INTO     FLOW TO   FLOW OUT OF   OVRLND.     DIRECT     STREAM       STREAM     STREAM     STREAM   STREAMBED  STREAMBED
                SEG.NO.  NO.  STRM. RCH.    AQUIFER    STRM. RCH.    RUNOFF     PRECIP       ET          HEAD       DEPTH      WIDTH   CONDCTNC.   GRADIENT

   1   13    1     1     1    1.0000E+05 -1.6065E+03   1.0161E+05  0.000E+00  0.000E+00  0.000E+00  4.84067E+01  1.453E-01  2.000E+01  2.000E+04 -8.032E-02
   1   13    2     1     2    1.0161E+05 -2.6075E+03   1.0421E+05  0.000E+00  0.000E+00  0.000E+00  4.79313E+01  1.472E-01  2.000E+01  2.000E+04 -1.304E-01
   1   14    3     1     3    1.0421E+05 -4.4800E+02   1.0466E+05  0.000E+00  0.000E+00  0.000E+00  4.74553E+01  1.485E-01  2.000E+01  2.000E+04 -2.240E-02
   1   15    4     1     4    1.0466E+05 -3.6955E+02   1.0503E+05  0.000E+00  0.000E+00  0.000E+00  4.69784E+01  1.488E-01  2.000E+01  2.000E+04 -1.848E-02
   1   16    5     1     5    1.0503E+05 -6.3917E+02   1.0567E+05  0.000E+00  0.000E+00  0.000E+00  4.65015E+01  1.492E-01  2.000E+01  2.000E+04 -3.196E-02
   1   16    6     1     6    1.0567E+05 -6.8208E+02   1.0635E+05  0.000E+00  0.000E+00  0.000E+00  4.60248E+01  1.498E-01  2.000E+01  2.000E+04 -3.410E-02
   1   16    7     1     7    1.0635E+05 -7.7011E+02   1.0712E+05  0.000E+00  0.000E+00  0.000E+00  4.55482E+01  1.504E-01  2.000E+01  2.000E+04 -3.851E-02
   1   16    8     1     8    1.0712E+05 -8.2135E+02   1.0794E+05  0.000E+00  0.000E+00  0.000E+00  4.50715E+01  1.511E-01  2.000E+01  2.000E+04 -4.107E-02
   1   16    9     1     9    1.0794E+05 -8.3793E+02   1.0878E+05  0.000E+00  0.000E+00  0.000E+00  4.45950E+01  1.518E-01  2.000E+01  2.000E+04 -4.190E-02
   1   16   10     1    10    1.0878E+05 -8.2052E+02   1.0960E+05  0.000E+00  0.000E+00  0.000E+00  4.41184E+01  1.525E-01  2.000E+01  2.000E+04 -4.103E-02
   1   16   11     1    11    1.0960E+05 -7.7452E+02   1.1038E+05  0.000E+00  0.000E+00  0.000E+00  4.36418E+01  1.532E-01  2.000E+01  2.000E+04 -3.873E-02
   1   16   12     1    12    1.1038E+05 -1.1061E+03   1.1148E+05  0.000E+00  0.000E+00  0.000E+00  4.31653E+01  1.539E-01  2.000E+01  2.000E+04 -5.530E-02
   1   15   13     1    13    1.1148E+05 -9.1841E+02   1.1240E+05  0.000E+00  0.000E+00  0.000E+00  4.26889E+01  1.548E-01  2.000E+01  2.000E+04 -4.592E-02
   1   14   14     1    14    1.1240E+05 -8.9566E+02   1.1330E+05  0.000E+00  0.000E+00  0.000E+00  4.22124E+01  1.555E-01  2.000E+01  2.000E+04 -4.478E-02
   1   13   15     1    15    1.1330E+05 -8.2356E+02   1.1412E+05  0.000E+00  0.000E+00  0.000E+00  4.17358E+01  1.562E-01  2.000E+01  2.000E+04 -4.118E-02
   1   12   16     1    16    1.1412E+05 -1.1795E+03   1.1530E+05  0.000E+00  0.000E+00  0.000E+00  4.12593E+01  1.571E-01  2.000E+01  2.000E+04 -5.897E-02
   1   12   17     1    17    1.1530E+05 -1.3123E+03   1.1661E+05  0.000E+00  0.000E+00  0.000E+00  4.07831E+01  1.581E-01  2.000E+01  2.000E+04 -6.561E-02
   1   12   18     1    18    1.1661E+05 -1.4893E+03   1.1810E+05  0.000E+00  0.000E+00  0.000E+00  4.03070E+01  1.592E-01  2.000E+01  2.000E+04 -7.446E-02
   1   12   19     1    19    1.1810E+05 -2.2042E+03   1.2031E+05  0.000E+00  0.000E+00  0.000E+00  3.98312E+01  1.607E-01  2.000E+01  2.000E+04 -1.102E-01
   1   13   20     1    20    1.2031E+05 -1.6826E+03   1.2199E+05  0.000E+00  0.000E+00  0.000E+00  3.93555E+01  1.623E-01  2.000E+01  2.000E+04 -8.413E-02
   1   14   21     1    21    1.2199E+05 -1.3152E+03   1.2330E+05  0.000E+00  0.000E+00  0.000E+00  3.88794E+01  1.635E-01  2.000E+01  2.000E+04 -6.576E-02
   1   14   22     1    22    1.2330E+05  4.9278E+03   1.1838E+05  0.000E+00  0.000E+00  0.000E+00  3.84007E+01  1.621E-01  2.000E+01  2.000E+04  2.464E-01
   1    9   30     2     1    5.0000E+04 -2.4229E+02   5.0242E+04  0.000E+00  0.000E+00  0.000E+00  4.02410E+01  1.160E-01  2.000E+01  2.000E+04 -1.211E-02
   1    9   29     2     2    5.0242E+04 -3.5612E+02   5.0598E+04  0.000E+00  0.000E+00  0.000E+00  3.99914E+01  1.164E-01  2.000E+01  2.000E+04 -1.781E-02
   1    9   28     2     3    5.0598E+04 -2.3321E+02   5.0832E+04  0.000E+00  0.000E+00  0.000E+00  3.97419E+01  1.169E-01  2.000E+01  2.000E+04 -1.166E-02
   1    9   27     2     4    5.0832E+04 -1.1721E+03   5.2004E+04  0.000E+00  0.000E+00  0.000E+00  3.94928E+01  1.178E-01  2.000E+01  2.000E+04 -5.860E-02
   1   10   26     2     5    5.2004E+04  1.1965E+03   5.0807E+04  0.000E+00  0.000E+00  0.000E+00  3.92428E+01  1.178E-01  2.000E+01  2.000E+04  5.983E-02
   1   11   25     2     6    5.0807E+04  4.6624E+02   5.0341E+04  0.000E+00  0.000E+00  0.000E+00  3.89917E+01  1.167E-01  2.000E+01  2.000E+04  2.331E-02
   1   12   24     2     7    5.0341E+04 -1.1482E+03   5.1489E+04  0.000E+00  0.000E+00  0.000E+00  3.87421E+01  1.171E-01  2.000E+01  2.000E+04 -5.741E-02
   1   13   23     2     8    5.1489E+04 -3.2976E+02   5.1819E+04  0.000E+00  0.000E+00  0.000E+00  3.84932E+01  1.182E-01  2.000E+01  2.000E+04 -1.649E-02
   1   14   22     2     9    5.1819E+04  1.7574E+03   5.0061E+04  0.000E+00  0.000E+00  0.000E+00  3.82422E+01  1.172E-01  2.000E+01  2.000E+04  8.787E-02
   1   14   22     3     1    1.6844E+05 -8.6421E+03   1.7708E+05  0.000E+00  0.000E+00  0.000E+00  3.77222E+01  1.666E-01  2.000E+01  2.000E+04 -4.321E-01
   1   15   23     3     2    1.7708E+05 -5.2613E+02   1.7761E+05  0.000E+00  0.000E+00  0.000E+00  3.68359E+01  1.693E-01  2.000E+01  2.000E+04 -2.631E-02
   1   15   24     3     3    1.7761E+05 -3.2782E+02   1.7793E+05  0.000E+00  0.000E+00  0.000E+00  3.59473E+01  1.695E-01  2.000E+01  2.000E+04 -1.639E-02
   1   15   25     3     4    1.7793E+05 -3.1392E+02   1.7825E+05  0.000E+00  0.000E+00  0.000E+00  3.50586E+01  1.697E-01  2.000E+01  2.000E+04 -1.570E-02
   1   15   26     3     5    1.7825E+05 -3.1807E+02   1.7857E+05  0.000E+00  0.000E+00  0.000E+00  3.41699E+01  1.699E-01  2.000E+01  2.000E+04 -1.590E-02
   1   16   27     3     6    1.7857E+05 -3.5428E+02   1.7892E+05  0.000E+00  0.000E+00  0.000E+00  3.32812E+01  1.701E-01  2.000E+01  2.000E+04 -1.771E-02
   1   17   28     3     7    1.7892E+05 -1.3079E+03   1.8023E+05  0.000E+00  0.000E+00  0.000E+00  3.23928E+01  1.705E-01  2.000E+01  2.000E+04 -6.540E-02
   1   18   29     3     8    1.8023E+05 -2.8530E+03   1.8308E+05  0.000E+00  0.000E+00  0.000E+00  3.15051E+01  1.717E-01  2.000E+01  2.000E+04 -1.427E-01
   1   18   30     3     9    1.8308E+05 -3.1151E+03   1.8620E+05  0.000E+00  0.000E+00  0.000E+00  3.06179E+01  1.734E-01  2.000E+01  2.000E+04 -1.558E-01



1
              HEAD IN LAYER   1 AT END OF TIME STEP   1 IN STRESS PERIOD   10
  ---------------------------------------------------------------------------

          1      2      3      4      5      6      7      8      9     10
         11     12     13     14     15     16     17     18     19     20
         21     22     23     24     25     26     27     28     29     30
 .........................................................................
   1  ****** ****** ****** ****** ****** ****** ****** ****** ****** ******
      ****** ****** ****** ****** ****** ****** ****** ****** ****** ******
      ****** ****** ****** ****** ****** ****** ****** ****** ****** ******
   2  ****** ****** ****** ****** ****** ****** ****** ****** ****** ******
      ****** ****** ****** ****** ****** ****** ****** ****** ****** ******
      ****** ****** ****** ****** ****** ****** ****** ****** ****** ******
   3  ****** ****** ****** ****** ****** ****** ****** ****** ****** ******
      ****** ****** ****** ****** ****** ****** ****** ****** ****** ******
      ****** ****** ****** ****** ****** ****** ****** ****** ****** ******
   4  ****** ****** ****** ****** ****** ****** ****** ****** ****** ******
      ****** ****** ****** ****** ****** ****** ****** ****** ****** ******
      ****** ****** ****** ****** ****** ****** ****** ****** ****** ******
   5  ****** ****** ****** ****** ****** ****** ****** ****** ****** ******
      ****** ****** ****** ****** ****** ****** ****** ****** ****** ******
      ****** ****** ****** ****** ****** ****** ****** ****** ****** ******
   6  ****** ****** ****** ****** ****** ****** ****** ****** ****** ******
      ****** ****** ****** ****** ****** ****** ****** ****** ****** ******
      ****** ****** ****** ****** ****** ****** ****** ****** ****** ******
   7  ****** ****** ****** ****** ****** ****** ****** ****** ****** ******
      ****** ****** ****** ****** ****** ****** ****** ****** ****** ******
      ****** ****** ****** ****** ****** ****** ****** ****** ****** ******
   8  ****** ****** ****** ****** ****** ****** ****** ****** ****** ******
      ****** ****** ****** ****** ****** ****** ****** ****** ****** ******
      ****** ****** ****** ****** ****** ****** ****** ****** ****** ******
   9  ****** ****** ****** ****** ****** ****** ****** ****** ****** ******
      ****** ****** ****** ****** ****** ****** ****** ****** ****** ******
      ****** ****** ****** ****** ****** ****** ****** ****** ****** ******
  10  ****** ****** ****** ****** ****** ****** ****** ****** ****** ******
      ****** ****** ****** ****** ****** ****** ****** ****** ****** ******
      ****** ****** ****** ****** ****** ****** ****** ****** ****** ******
  11  ****** ****** ****** ****** ****** ****** ****** ****** ****** ******
      ****** ****** ****** ****** ****** ****** ****** ****** ****** ******
      ****** ****** ****** ****** ****** ****** ****** ****** ****** ******
  12  ****** ****** ****** ****** ****** ****** ****** ****** ****** ******
      ****** ****** ****** ****** ****** ****** ****** ****** ****** ******
      ****** ****** ****** ****** ****** ****** ****** ****** ****** ******
  13  ****** ****** ****** ****** ****** ****** ****** ****** ****** ******
      ****** ****** ****** ****** ****** ****** ****** ****** ****** ******
      ****** ****** ****** ****** ****** ****** ****** ****** ****** ******
  14  ****** ****** ****** ****** ****** ****** ****** ****** ****** ******
      ****** ****** ****** ****** ****** ****** ****** ****** ****** ******
      ****** ****** ****** ****** ****** ****** ****** ****** ****** ******
  15  ****** ****** ****** ****** ****** ****** ****** ****** ****** ******
      ****** ****** ****** ****** ****** ****** ****** ****** ****** ******
      ****** ****** ****** ****** ****** ****** ****** ****** ****** ******
  16  ****** ****** ****** ****** ****** ****** ****** ****** ****** ******
      ****** ****** ****** ****** ****** ****** ****** ****** ****** ******
      ****** ****** ****** ****** ****** ****** ****** ****** ****** ******
  17  ****** ****** ****** ****** ****** ****** ****** ****** ****** ******
      ****** ****** ****** ****** ****** ****** ****** ****** ****** ******
      ****** ****** ****** ****** ****** ****** ****** ****** ****** ******
  18  ****** ****** ****** ****** ****** ****** ****** ****** ****** ******
      ****** ****** ****** ****** ****** ****** ****** ****** ****** ******
      ****** ****** ****** ****** ****** ****** ****** ****** ****** ******
  19  ****** ****** ****** ****** ****** ****** ****** ****** ****** ******
      ****** ****** ****** ****** ****** ****** ****** ****** ****** ******
      ****** ****** ****** ****** ****** ****** ****** ****** ****** ******
  20  ****** ****** ****** ****** ****** ****** ****** ****** ****** ******
      ****** ****** ****** ****** ****** ****** ****** ****** ****** ******
      ****** ****** ****** ****** ****** ****** ****** ****** ****** ******
  21  ****** ****** ****** ****** ****** ****** ****** ****** ****** ******
      ****** ****** ****** ****** ****** ****** ****** ****** ****** ******
      ****** ****** ****** ****** ****** ****** ****** ****** ****** ******
  22  ****** ****** ****** ****** ****** ****** ****** ****** ****** ******
      ****** ****** ****** ****** ****** ****** ****** ****** ****** ******
      ****** ****** ****** ****** ****** ****** ****** ****** ****** ******
  23  ****** ****** ****** ****** ****** ****** ****** ****** ****** ******
      ****** ****** ****** ****** ****** ****** ****** ****** ****** ******
      ****** ****** ****** ****** ****** ****** ****** ****** ****** ******
  24  ****** ****** ****** ****** ****** ****** ****** ****** ****** ******
      ****** ****** ****** ****** ****** ****** ****** ****** ****** ******
      ****** ****** ****** ****** ****** ****** ****** ****** ****** ******
  25  ****** ****** ****** ****** ****** ****** ****** ****** ****** ******
      ****** ****** ****** ****** ****** ****** ****** ****** ****** ******
      ****** ****** ****** ****** ****** ****** ****** ****** ****** ******

 HEAD WILL BE SAVED ON UNIT   51 AT END OF TIME STEP    1, STRESS PERIOD   10
1
  VOLUMETRIC BUDGET FOR ENTIRE MODEL AT END OF TIME STEP    1, STRESS PERIOD  10
  ------------------------------------------------------------------------------

     CUMULATIVE VOLUMES      L**3       RATES FOR THIS TIME STEP      L**3/T
     ------------------                 ------------------------

           IN:                                      IN:
           ---                                      ---
             STORAGE =    34585293.7464               STORAGE =           0.0000
       CONSTANT HEAD =    26193979.1912         CONSTANT HEAD =       32508.2922
               WELLS =           0.0000                 WELLS =           0.0000
            RECHARGE =    23901600.0000              RECHARGE =       55200.0000
      STREAM LEAKAGE =     7422577.5885        STREAM LEAKAGE =        8348.0388

            TOTAL IN =    92103450.5260              TOTAL IN =       96056.3310

          OUT:                                     OUT:
          ----                                     ----
             STORAGE =     2331495.0367               STORAGE =       15649.4060
       CONSTANT HEAD =           0.0000         CONSTANT HEAD =           0.0000
               WELLS =    32742795.9818                 WELLS =       35862.8653
            RECHARGE =           0.0000              RECHARGE =           0.0000
      STREAM LEAKAGE =    57029161.1863        STREAM LEAKAGE =       44544.0558

           TOTAL OUT =    92103452.2048             TOTAL OUT =       96056.3271

            IN - OUT =          -1.6787              IN - OUT =       3.8770E-03

 PERCENT DISCREPANCY =          -0.00     PERCENT DISCREPANCY =           0.00






         TIME SUMMARY AT END OF TIME STEP    1 IN STRESS PERIOD   10
                    SECONDS     MINUTES      HOURS       DAYS        YEARS
                    -----------------------------------------------------------
   TIME STEP LENGTH 7.86240E+06 1.31040E+05  2184.0      91.000     0.24914    
 STRESS PERIOD TIME 7.86240E+06 1.31040E+05  2184.0      91.000     0.24914    
         TOTAL TIME 7.88832E+07 1.31472E+06  21912.      913.00      2.4997    
1
1
                            STRESS PERIOD NO.   11, LENGTH =   91.00000    
                            -----------------------------------------------

                              NUMBER OF TIME STEPS =     1

                               MULTIPLIER FOR DELT =     1.500

                            INITIAL TIME STEP SIZE =   91.00000    

 WELL NO.  LAYER   ROW   COL   STRESS RATE         
 --------------------------------------------------
      1      1     11     27     -0.1170E+05
      2      1     10     14      -9990.    
      3      1     22      2      -5731.    
      4      1     21     17      -8441.    

      4 WELLS

                 RECHARGE =   0.00000    

 REUSING STREAM SEGMENT DATA FROM LAST STRESS PERIOD
 
 SOLVING FOR HEAD 


     7 CALLS TO PCG ROUTINE FOR TIME STEP   1 IN STRESS PERIOD   11
    26 TOTAL ITERATIONS

 OUTPUT CONTROL FOR STRESS PERIOD   11   TIME STEP    1
    SAVE BUDGET
    SAVE HEAD FOR ALL LAYERS
    PRINT HEAD FOR ALL LAYERS
 UBDSV2 SAVING "STREAMFLOW OUT  " ON UNIT  50 AT TIME STEP  1, STRESS PERIOD  11



 STREAM LISTING     PERIOD     11   STEP        1

 LAYER ROW COL. STREAM  RCH.  FLOW INTO     FLOW TO   FLOW OUT OF   OVRLND.     DIRECT     STREAM       STREAM     STREAM     STREAM   STREAMBED  STREAMBED
                SEG.NO.  NO.  STRM. RCH.    AQUIFER    STRM. RCH.    RUNOFF     PRECIP       ET          HEAD       DEPTH      WIDTH   CONDCTNC.   GRADIENT

   1   13    1     1     1    1.0000E+05 -1.0377E+03   1.0104E+05  0.000E+00  0.000E+00  0.000E+00  4.84065E+01  1.451E-01  2.000E+01  2.000E+04 -5.188E-02
   1   13    2     1     2    1.0104E+05 -1.9741E+03   1.0301E+05  0.000E+00  0.000E+00  0.000E+00  4.79305E+01  1.464E-01  2.000E+01  2.000E+04 -9.870E-02
   1   14    3     1     3    1.0301E+05 -2.1686E+02   1.0323E+05  0.000E+00  0.000E+00  0.000E+00  4.74542E+01  1.473E-01  2.000E+01  2.000E+04 -1.084E-02
   1   15    4     1     4    1.0323E+05 -1.2740E+02   1.0336E+05  0.000E+00  0.000E+00  0.000E+00  4.69770E+01  1.475E-01  2.000E+01  2.000E+04 -6.370E-03
   1   16    5     1     5    1.0336E+05  4.9380E+01   1.0331E+05  0.000E+00  0.000E+00  0.000E+00  4.64998E+01  1.475E-01  2.000E+01  2.000E+04  2.469E-03
   1   16    6     1     6    1.0331E+05 -2.6735E+02   1.0357E+05  0.000E+00  0.000E+00  0.000E+00  4.60226E+01  1.476E-01  2.000E+01  2.000E+04 -1.337E-02
   1   16    7     1     7    1.0357E+05 -3.7301E+02   1.0395E+05  0.000E+00  0.000E+00  0.000E+00  4.55456E+01  1.479E-01  2.000E+01  2.000E+04 -1.865E-02
   1   16    8     1     8    1.0395E+05 -4.2978E+02   1.0438E+05  0.000E+00  0.000E+00  0.000E+00  4.50687E+01  1.482E-01  2.000E+01  2.000E+04 -2.149E-02
   1   16    9     1     9    1.0438E+05 -4.4861E+02   1.0483E+05  0.000E+00  0.000E+00  0.000E+00  4.45918E+01  1.486E-01  2.000E+01  2.000E+04 -2.243E-02
   1   16   10     1    10    1.0483E+05 -4.3232E+02   1.0526E+05  0.000E+00  0.000E+00  0.000E+00  4.41149E+01  1.490E-01  2.000E+01  2.000E+04 -2.162E-02
   1   16   11     1    11    1.0526E+05 -3.8454E+02   1.0564E+05  0.000E+00  0.000E+00  0.000E+00  4.36380E+01  1.493E-01  2.000E+01  2.000E+04 -1.923E-02
   1   16   12     1    12    1.0564E+05 -4.5984E+02   1.0610E+05  0.000E+00  0.000E+00  0.000E+00  4.31611E+01  1.497E-01  2.000E+01  2.000E+04 -2.299E-02
   1   15   13     1    13    1.0610E+05 -2.2929E+02   1.0633E+05  0.000E+00  0.000E+00  0.000E+00  4.26841E+01  1.500E-01  2.000E+01  2.000E+04 -1.146E-02
   1   14   14     1    14    1.0633E+05 -1.8878E+02   1.0652E+05  0.000E+00  0.000E+00  0.000E+00  4.22070E+01  1.502E-01  2.000E+01  2.000E+04 -9.439E-03
   1   13   15     1    15    1.0652E+05 -1.2227E+02   1.0664E+05  0.000E+00  0.000E+00  0.000E+00  4.17298E+01  1.503E-01  2.000E+01  2.000E+04 -6.114E-03
   1   12   16     1    16    1.0664E+05 -5.0165E+02   1.0714E+05  0.000E+00  0.000E+00  0.000E+00  4.12528E+01  1.506E-01  2.000E+01  2.000E+04 -2.508E-02
   1   12   17     1    17    1.0714E+05 -8.0530E+02   1.0795E+05  0.000E+00  0.000E+00  0.000E+00  4.07761E+01  1.511E-01  2.000E+01  2.000E+04 -4.027E-02
   1   12   18     1    18    1.0795E+05 -9.9002E+02   1.0894E+05  0.000E+00  0.000E+00  0.000E+00  4.02996E+01  1.519E-01  2.000E+01  2.000E+04 -4.950E-02
   1   12   19     1    19    1.0894E+05 -1.5914E+03   1.1053E+05  0.000E+00  0.000E+00  0.000E+00  3.98234E+01  1.529E-01  2.000E+01  2.000E+04 -7.957E-02
   1   13   20     1    20    1.1053E+05 -1.0701E+03   1.1160E+05  0.000E+00  0.000E+00  0.000E+00  3.93472E+01  1.541E-01  2.000E+01  2.000E+04 -5.350E-02
   1   14   21     1    21    1.1160E+05 -7.1800E+02   1.1232E+05  0.000E+00  0.000E+00  0.000E+00  3.88707E+01  1.548E-01  2.000E+01  2.000E+04 -3.590E-02
   1   14   22     1    22    1.1232E+05  5.0756E+03   1.0724E+05  0.000E+00  0.000E+00  0.000E+00  3.83916E+01  1.530E-01  2.000E+01  2.000E+04  2.538E-01
   1    9   30     2     1    5.0000E+04  2.4574E+02   4.9754E+04  0.000E+00  0.000E+00  0.000E+00  4.02407E+01  1.157E-01  2.000E+01  2.000E+04  1.229E-02
   1    9   29     2     2    4.9754E+04  1.2887E+02   4.9625E+04  0.000E+00  0.000E+00  0.000E+00  3.99904E+01  1.154E-01  2.000E+01  2.000E+04  6.443E-03
   1    9   28     2     3    4.9625E+04  2.4959E+02   4.9376E+04  0.000E+00  0.000E+00  0.000E+00  3.97402E+01  1.152E-01  2.000E+01  2.000E+04  1.248E-02
   1    9   27     2     4    4.9376E+04 -5.3234E+02   4.9908E+04  0.000E+00  0.000E+00  0.000E+00  3.94904E+01  1.154E-01  2.000E+01  2.000E+04 -2.662E-02
   1   10   26     2     5    4.9908E+04  1.8507E+03   4.8057E+04  0.000E+00  0.000E+00  0.000E+00  3.92394E+01  1.144E-01  2.000E+01  2.000E+04  9.253E-02
   1   11   25     2     6    4.8057E+04  1.0965E+03   4.6961E+04  0.000E+00  0.000E+00  0.000E+00  3.89874E+01  1.124E-01  2.000E+01  2.000E+04  5.483E-02
   1   12   24     2     7    4.6961E+04 -5.7499E+02   4.7536E+04  0.000E+00  0.000E+00  0.000E+00  3.87370E+01  1.120E-01  2.000E+01  2.000E+04 -2.875E-02
   1   13   23     2     8    4.7536E+04 -1.4393E+02   4.7680E+04  0.000E+00  0.000E+00  0.000E+00  3.84875E+01  1.125E-01  2.000E+01  2.000E+04 -7.196E-03
   1   14   22     2     9    4.7680E+04  1.9674E+03   4.5712E+04  0.000E+00  0.000E+00  0.000E+00  3.82362E+01  1.112E-01  2.000E+01  2.000E+04  9.837E-02
   1   14   22     3     1    1.5296E+05 -8.4964E+03   1.6145E+05  0.000E+00  0.000E+00  0.000E+00  3.77130E+01  1.575E-01  2.000E+01  2.000E+04 -4.248E-01
   1   15   23     3     2    1.6145E+05 -3.3403E+02   1.6179E+05  0.000E+00  0.000E+00  0.000E+00  3.68268E+01  1.601E-01  2.000E+01  2.000E+04 -1.670E-02
   1   15   24     3     3    1.6179E+05 -1.6268E+02   1.6195E+05  0.000E+00  0.000E+00  0.000E+00  3.59380E+01  1.602E-01  2.000E+01  2.000E+04 -8.134E-03
   1   15   25     3     4    1.6195E+05 -1.4494E+02   1.6209E+05  0.000E+00  0.000E+00  0.000E+00  3.50492E+01  1.603E-01  2.000E+01  2.000E+04 -7.247E-03
   1   15   26     3     5    1.6209E+05 -1.2238E+02   1.6222E+05  0.000E+00  0.000E+00  0.000E+00  3.41604E+01  1.604E-01  2.000E+01  2.000E+04 -6.119E-03
   1   16   27     3     6    1.6222E+05 -1.3126E+02   1.6235E+05  0.000E+00  0.000E+00  0.000E+00  3.32716E+01  1.605E-01  2.000E+01  2.000E+04 -6.563E-03
   1   17   28     3     7    1.6235E+05 -6.9816E+02   1.6305E+05  0.000E+00  0.000E+00  0.000E+00  3.23830E+01  1.607E-01  2.000E+01  2.000E+04 -3.491E-02
   1   18   29     3     8    1.6305E+05 -2.2309E+03   1.6528E+05  0.000E+00  0.000E+00  0.000E+00  3.14949E+01  1.616E-01  2.000E+01  2.000E+04 -1.115E-01
   1   18   30     3     9    1.6528E+05 -2.6258E+03   1.6790E+05  0.000E+00  0.000E+00  0.000E+00  3.06075E+01  1.630E-01  2.000E+01  2.000E+04 -1.313E-01



1
              HEAD IN LAYER   1 AT END OF TIME STEP   1 IN STRESS PERIOD   11
  ---------------------------------------------------------------------------

          1      2      3      4      5      6      7      8      9     10
         11     12     13     14     15     16     17     18     19     20
         21     22     23     24     25     26     27     28     29     30
 .........................................................................
   1  ****** ****** ****** ****** ****** ****** ****** ****** ****** ******
      ****** ****** ****** ****** ****** ****** ****** ****** ****** ******
      ****** ****** ****** ****** ****** ****** ****** ****** ****** ******
   2  ****** ****** ****** ****** ****** ****** ****** ****** ****** ******
      ****** ****** ****** ****** ****** ****** ****** ****** ****** ******
      ****** ****** ****** ****** ****** ****** ****** ****** ****** ******
   3  ****** ****** ****** ****** ****** ****** ****** ****** ****** ******
      ****** ****** ****** ****** ****** ****** ****** ****** ****** ******
      ****** ****** ****** ****** ****** ****** ****** ****** ****** ******
   4  ****** ****** ****** ****** ****** ****** ****** ****** ****** ******
      ****** ****** ****** ****** ****** ****** ****** ****** ****** ******
      ****** ****** ****** ****** ****** ****** ****** ****** ****** ******
   5  ****** ****** ****** ****** ****** ****** ****** ****** ****** ******
      ****** ****** ****** ****** ****** ****** ****** ****** ****** ******
      ****** ****** ****** ****** ****** ****** ****** ****** ****** ******
   6  ****** ****** ****** ****** ****** ****** ****** ****** ****** ******
      ****** ****** ****** ****** ****** ****** ****** ****** ****** ******
      ****** ****** ****** ****** ****** ****** ****** ****** ****** ******
   7  ****** ****** ****** ****** ****** ****** ****** ****** ****** ******
      ****** ****** ****** ****** ****** ****** ****** ****** ****** ******
      ****** ****** ****** ****** ****** ****** ****** ****** ****** ******
   8  ****** ****** ****** ****** ****** ****** ****** ****** ****** ******
      ****** ****** ****** ****** ****** ****** ****** ****** ****** ******
      ****** ****** ****** ****** ****** ****** ****** ****** ****** ******
   9  ****** ****** ****** ****** ****** ****** ****** ****** ****** ******
      ****** ****** ****** ****** ****** ****** ****** ****** ****** ******
      ****** ****** ****** ****** ****** ****** ****** ****** ****** ******
  10  ****** ****** ****** ****** ****** ****** ****** ****** ****** ******
      ****** ****** ****** ****** ****** ****** ****** ****** ****** ******
      ****** ****** ****** ****** ****** ****** ****** ****** ****** ******
  11  ****** ****** ****** ****** ****** ****** ****** ****** ****** ******
      ****** ****** ****** ****** ****** ****** ****** ****** ****** ******
      ****** ****** ****** ****** ****** ****** ****** ****** ****** ******
  12  ****** ****** ****** ****** ****** ****** ****** ****** ****** ******
      ****** ****** ****** ****** ****** ****** ****** ****** ****** ******
      ****** ****** ****** ****** ****** ****** ****** ****** ****** ******
  13  ****** ****** ****** ****** ****** ****** ****** ****** ****** ******
      ****** ****** ****** ****** ****** ****** ****** ****** ****** ******
      ****** ****** ****** ****** ****** ****** ****** ****** ****** ******
  14  ****** ****** ****** ****** ****** ****** ****** ****** ****** ******
      ****** ****** ****** ****** ****** ****** ****** ****** ****** ******
      ****** ****** ****** ****** ****** ****** ****** ****** ****** ******
  15  ****** ****** ****** ****** ****** ****** ****** ****** ****** ******
      ****** ****** ****** ****** ****** ****** ****** ****** ****** ******
      ****** ****** ****** ****** ****** ****** ****** ****** ****** ******
  16  ****** ****** ****** ****** ****** ****** ****** ****** ****** ******
      ****** ****** ****** ****** ****** ****** ****** ****** ****** ******
      ****** ****** ****** ****** ****** ****** ****** ****** ****** ******
  17  ****** ****** ****** ****** ****** ****** ****** ****** ****** ******
      ****** ****** ****** ****** ****** ****** ****** ****** ****** ******
      ****** ****** ****** ****** ****** ****** ****** ****** ****** ******
  18  ****** ****** ****** ****** ****** ****** ****** ****** ****** ******
      ****** ****** ****** ****** ****** ****** ****** ****** ****** ******
      ****** ****** ****** ****** ****** ****** ****** ****** ****** ******
  19  ****** ****** ****** ****** ****** ****** ****** ****** ****** ******
      ****** ****** ****** ****** ****** ****** ****** ****** ****** ******
      ****** ****** ****** ****** ****** ****** ****** ****** ****** ******
  20  ****** ****** ****** ****** ****** ****** ****** ****** ****** ******
      ****** ****** ****** ****** ****** ****** ****** ****** ****** ******
      ****** ****** ****** ****** ****** ****** ****** ****** ****** ******
  21  ****** ****** ****** ****** ****** ****** ****** ****** ****** ******
      ****** ****** ****** ****** ****** ****** ****** ****** ****** ******
      ****** ****** ****** ****** ****** ****** ****** ****** ****** ******
  22  ****** ****** ****** ****** ****** ****** ****** ****** ****** ******
      ****** ****** ****** ****** ****** ****** ****** ****** ****** ******
      ****** ****** ****** ****** ****** ****** ****** ****** ****** ******
  23  ****** ****** ****** ****** ****** ****** ****** ****** ****** ******
      ****** ****** ****** ****** ****** ****** ****** ****** ****** ******
      ****** ****** ****** ****** ****** ****** ****** ****** ****** ******
  24  ****** ****** ****** ****** ****** ****** ****** ****** ****** ******
      ****** ****** ****** ****** ****** ****** ****** ****** ****** ******
      ****** ****** ****** ****** ****** ****** ****** ****** ****** ******
  25  ****** ****** ****** ****** ****** ****** ****** ****** ****** ******
      ****** ****** ****** ****** ****** ****** ****** ****** ****** ******
      ****** ****** ****** ****** ****** ****** ****** ****** ****** ******

 HEAD WILL BE SAVED ON UNIT   51 AT END OF TIME STEP    1, STRESS PERIOD   11
1
  VOLUMETRIC BUDGET FOR ENTIRE MODEL AT END OF TIME STEP    1, STRESS PERIOD  11
  ------------------------------------------------------------------------------

     CUMULATIVE VOLUMES      L**3       RATES FOR THIS TIME STEP      L**3/T
     ------------------                 ------------------------

           IN:                                      IN:
           ---                                      ---
             STORAGE =    36220329.6283               STORAGE =       17967.4273
       CONSTANT HEAD =    29451564.7046         CONSTANT HEAD =       35797.6430
               WELLS =           0.0000                 WELLS =           0.0000
            RECHARGE =    23901600.0000              RECHARGE =           0.0000
      STREAM LEAKAGE =     8392986.7167        STREAM LEAKAGE =       10663.8366

            TOTAL IN =    97966481.0497              TOTAL IN =       64428.9069

          OUT:                                     OUT:
          ----                                     ----
             STORAGE =     2331495.0367               STORAGE =           0.0000
       CONSTANT HEAD =           0.0000         CONSTANT HEAD =           0.0000
               WELLS =    36006316.7204                 WELLS =       35862.8653
            RECHARGE =           0.0000              RECHARGE =           0.0000
      STREAM LEAKAGE =    59628671.4343        STREAM LEAKAGE =       28566.0467

           TOTAL OUT =    97966483.1914             TOTAL OUT =       64428.9119

            IN - OUT =          -2.1417              IN - OUT =      -5.0870E-03

 PERCENT DISCREPANCY =          -0.00     PERCENT DISCREPANCY =          -0.00






         TIME SUMMARY AT END OF TIME STEP    1 IN STRESS PERIOD   11
                    SECONDS     MINUTES      HOURS       DAYS        YEARS
                    -----------------------------------------------------------
   TIME STEP LENGTH 7.86240E+06 1.31040E+05  2184.0      91.000     0.24914    
 STRESS PERIOD TIME 7.86240E+06 1.31040E+05  2184.0      91.000     0.24914    
         TOTAL TIME 8.67456E+07 1.44576E+06  24096.      1004.0      2.7488    
1
1
                            STRESS PERIOD NO.   12, LENGTH =   91.00000    
                            -----------------------------------------------

                              NUMBER OF TIME STEPS =     1

                               MULTIPLIER FOR DELT =     1.500

                            INITIAL TIME STEP SIZE =   91.00000    

 WELL NO.  LAYER   ROW   COL   STRESS RATE         
 --------------------------------------------------
      1      1     11     27     -0.1170E+05
      2      1     10     14      -9990.    
      3      1     22      2      -5731.    
      4      1     21     17      -8441.    

      4 WELLS

                 RECHARGE =  1.000000E-03

 REUSING STREAM SEGMENT DATA FROM LAST STRESS PERIOD
 
 SOLVING FOR HEAD 


     7 CALLS TO PCG ROUTINE FOR TIME STEP   1 IN STRESS PERIOD   12
    25 TOTAL ITERATIONS

 OUTPUT CONTROL FOR STRESS PERIOD   12   TIME STEP    1
    SAVE BUDGET
    SAVE HEAD FOR ALL LAYERS
    PRINT HEAD FOR ALL LAYERS
 UBDSV2 SAVING "STREAMFLOW OUT  " ON UNIT  50 AT TIME STEP  1, STRESS PERIOD  12



 STREAM LISTING     PERIOD     12   STEP        1

 LAYER ROW COL. STREAM  RCH.  FLOW INTO     FLOW TO   FLOW OUT OF   OVRLND.     DIRECT     STREAM       STREAM     STREAM     STREAM   STREAMBED  STREAMBED
                SEG.NO.  NO.  STRM. RCH.    AQUIFER    STRM. RCH.    RUNOFF     PRECIP       ET          HEAD       DEPTH      WIDTH   CONDCTNC.   GRADIENT

   1   13    1     1     1    1.0000E+05 -1.1812E+03   1.0118E+05  0.000E+00  0.000E+00  0.000E+00  4.84065E+01  1.452E-01  2.000E+01  2.000E+04 -5.906E-02
   1   13    2     1     2    1.0118E+05 -2.1283E+03   1.0331E+05  0.000E+00  0.000E+00  0.000E+00  4.79307E+01  1.466E-01  2.000E+01  2.000E+04 -1.064E-01
   1   14    3     1     3    1.0331E+05 -2.9524E+02   1.0360E+05  0.000E+00  0.000E+00  0.000E+00  4.74545E+01  1.476E-01  2.000E+01  2.000E+04 -1.476E-02
   1   15    4     1     4    1.0360E+05 -2.0961E+02   1.0381E+05  0.000E+00  0.000E+00  0.000E+00  4.69774E+01  1.478E-01  2.000E+01  2.000E+04 -1.048E-02
   1   16    5     1     5    1.0381E+05 -1.6002E+02   1.0397E+05  0.000E+00  0.000E+00  0.000E+00  4.65003E+01  1.480E-01  2.000E+01  2.000E+04 -8.001E-03
   1   16    6     1     6    1.0397E+05 -3.9755E+02   1.0437E+05  0.000E+00  0.000E+00  0.000E+00  4.60232E+01  1.482E-01  2.000E+01  2.000E+04 -1.988E-02
   1   16    7     1     7    1.0437E+05 -4.9813E+02   1.0487E+05  0.000E+00  0.000E+00  0.000E+00  4.55464E+01  1.486E-01  2.000E+01  2.000E+04 -2.491E-02
   1   16    8     1     8    1.0487E+05 -5.5387E+02   1.0542E+05  0.000E+00  0.000E+00  0.000E+00  4.50695E+01  1.491E-01  2.000E+01  2.000E+04 -2.769E-02
   1   16    9     1     9    1.0542E+05 -5.7314E+02   1.0600E+05  0.000E+00  0.000E+00  0.000E+00  4.45927E+01  1.496E-01  2.000E+01  2.000E+04 -2.866E-02
   1   16   10     1    10    1.0600E+05 -5.5820E+02   1.0656E+05  0.000E+00  0.000E+00  0.000E+00  4.41159E+01  1.500E-01  2.000E+01  2.000E+04 -2.791E-02
   1   16   11     1    11    1.0656E+05 -5.1265E+02   1.0707E+05  0.000E+00  0.000E+00  0.000E+00  4.36391E+01  1.505E-01  2.000E+01  2.000E+04 -2.563E-02
   1   16   12     1    12    1.0707E+05 -6.6118E+02   1.0773E+05  0.000E+00  0.000E+00  0.000E+00  4.31623E+01  1.510E-01  2.000E+01  2.000E+04 -3.306E-02
   1   15   13     1    13    1.0773E+05 -4.4586E+02   1.0817E+05  0.000E+00  0.000E+00  0.000E+00  4.26855E+01  1.514E-01  2.000E+01  2.000E+04 -2.229E-02
   1   14   14     1    14    1.0817E+05 -4.0590E+02   1.0858E+05  0.000E+00  0.000E+00  0.000E+00  4.22086E+01  1.518E-01  2.000E+01  2.000E+04 -2.029E-02
   1   13   15     1    15    1.0858E+05 -3.3209E+02   1.0891E+05  0.000E+00  0.000E+00  0.000E+00  4.17317E+01  1.521E-01  2.000E+01  2.000E+04 -1.660E-02
   1   12   16     1    16    1.0891E+05 -6.8500E+02   1.0960E+05  0.000E+00  0.000E+00  0.000E+00  4.12548E+01  1.525E-01  2.000E+01  2.000E+04 -3.425E-02
   1   12   17     1    17    1.0960E+05 -9.5868E+02   1.1056E+05  0.000E+00  0.000E+00  0.000E+00  4.07782E+01  1.532E-01  2.000E+01  2.000E+04 -4.793E-02
   1   12   18     1    18    1.1056E+05 -1.1456E+03   1.1170E+05  0.000E+00  0.000E+00  0.000E+00  4.03018E+01  1.541E-01  2.000E+01  2.000E+04 -5.728E-02
   1   12   19     1    19    1.1170E+05 -1.7838E+03   1.1349E+05  0.000E+00  0.000E+00  0.000E+00  3.98258E+01  1.553E-01  2.000E+01  2.000E+04 -8.919E-02
   1   13   20     1    20    1.1349E+05 -1.2803E+03   1.1477E+05  0.000E+00  0.000E+00  0.000E+00  3.93498E+01  1.566E-01  2.000E+01  2.000E+04 -6.402E-02
   1   14   21     1    21    1.1477E+05 -9.1189E+02   1.1568E+05  0.000E+00  0.000E+00  0.000E+00  3.88734E+01  1.575E-01  2.000E+01  2.000E+04 -4.559E-02
   1   14   22     1    22    1.1568E+05  5.0221E+03   1.1066E+05  0.000E+00  0.000E+00  0.000E+00  3.83944E+01  1.558E-01  2.000E+01  2.000E+04  2.511E-01
   1    9   30     2     1    5.0000E+04  6.9312E+01   4.9931E+04  0.000E+00  0.000E+00  0.000E+00  4.02408E+01  1.158E-01  2.000E+01  2.000E+04  3.466E-03
   1    9   29     2     2    4.9931E+04 -4.5520E+01   4.9976E+04  0.000E+00  0.000E+00  0.000E+00  3.99908E+01  1.158E-01  2.000E+01  2.000E+04 -2.276E-03
   1    9   28     2     3    4.9976E+04  7.8727E+01   4.9897E+04  0.000E+00  0.000E+00  0.000E+00  3.97408E+01  1.158E-01  2.000E+01  2.000E+04  3.936E-03
   1    9   27     2     4    4.9897E+04 -7.4151E+02   5.0639E+04  0.000E+00  0.000E+00  0.000E+00  3.94912E+01  1.162E-01  2.000E+01  2.000E+04 -3.708E-02
   1   10   26     2     5    5.0639E+04  1.6209E+03   4.9018E+04  0.000E+00  0.000E+00  0.000E+00  3.92406E+01  1.156E-01  2.000E+01  2.000E+04  8.104E-02
   1   11   25     2     6    4.9018E+04  8.7064E+02   4.8147E+04  0.000E+00  0.000E+00  0.000E+00  3.89889E+01  1.139E-01  2.000E+01  2.000E+04  4.353E-02
   1   12   24     2     7    4.8147E+04 -7.8113E+02   4.8929E+04  0.000E+00  0.000E+00  0.000E+00  3.87388E+01  1.138E-01  2.000E+01  2.000E+04 -3.906E-02
   1   13   23     2     8    4.8929E+04 -2.2154E+02   4.9150E+04  0.000E+00  0.000E+00  0.000E+00  3.84895E+01  1.145E-01  2.000E+01  2.000E+04 -1.108E-02
   1   14   22     2     9    4.9150E+04  1.9004E+03   4.7250E+04  0.000E+00  0.000E+00  0.000E+00  3.82383E+01  1.133E-01  2.000E+01  2.000E+04  9.502E-02
   1   14   22     3     1    1.5791E+05 -8.5467E+03   1.6645E+05  0.000E+00  0.000E+00  0.000E+00  3.77160E+01  1.604E-01  2.000E+01  2.000E+04 -4.273E-01
   1   15   23     3     2    1.6645E+05 -4.0600E+02   1.6686E+05  0.000E+00  0.000E+00  0.000E+00  3.68297E+01  1.631E-01  2.000E+01  2.000E+04 -2.030E-02
   1   15   24     3     3    1.6686E+05 -2.2773E+02   1.6709E+05  0.000E+00  0.000E+00  0.000E+00  3.59410E+01  1.633E-01  2.000E+01  2.000E+04 -1.139E-02
   1   15   25     3     4    1.6709E+05 -2.1127E+02   1.6730E+05  0.000E+00  0.000E+00  0.000E+00  3.50523E+01  1.634E-01  2.000E+01  2.000E+04 -1.056E-02
   1   15   26     3     5    1.6730E+05 -1.9984E+02   1.6750E+05  0.000E+00  0.000E+00  0.000E+00  3.41635E+01  1.635E-01  2.000E+01  2.000E+04 -9.992E-03
   1   16   27     3     6    1.6750E+05 -2.1801E+02   1.6772E+05  0.000E+00  0.000E+00  0.000E+00  3.32747E+01  1.636E-01  2.000E+01  2.000E+04 -1.090E-02
   1   17   28     3     7    1.6772E+05 -9.1877E+02   1.6863E+05  0.000E+00  0.000E+00  0.000E+00  3.23862E+01  1.640E-01  2.000E+01  2.000E+04 -4.594E-02
   1   18   29     3     8    1.6863E+05 -2.4314E+03   1.7107E+05  0.000E+00  0.000E+00  0.000E+00  3.14983E+01  1.649E-01  2.000E+01  2.000E+04 -1.216E-01
   1   18   30     3     9    1.7107E+05 -2.7938E+03   1.7386E+05  0.000E+00  0.000E+00  0.000E+00  3.06109E+01  1.665E-01  2.000E+01  2.000E+04 -1.397E-01



1
              HEAD IN LAYER   1 AT END OF TIME STEP   1 IN STRESS PERIOD   12
  ---------------------------------------------------------------------------

          1      2      3      4      5      6      7      8      9     10
         11     12     13     14     15     16     17     18     19     20
         21     22     23     24     25     26     27     28     29     30
 .........................................................................
   1  ****** ****** ****** ****** ****** ****** ****** ****** ****** ******
      ****** ****** ****** ****** ****** ****** ****** ****** ****** ******
      ****** ****** ****** ****** ****** ****** ****** ****** ****** ******
   2  ****** ****** ****** ****** ****** ****** ****** ****** ****** ******
      ****** ****** ****** ****** ****** ****** ****** ****** ****** ******
      ****** ****** ****** ****** ****** ****** ****** ****** ****** ******
   3  ****** ****** ****** ****** ****** ****** ****** ****** ****** ******
      ****** ****** ****** ****** ****** ****** ****** ****** ****** ******
      ****** ****** ****** ****** ****** ****** ****** ****** ****** ******
   4  ****** ****** ****** ****** ****** ****** ****** ****** ****** ******
      ****** ****** ****** ****** ****** ****** ****** ****** ****** ******
      ****** ****** ****** ****** ****** ****** ****** ****** ****** ******
   5  ****** ****** ****** ****** ****** ****** ****** ****** ****** ******
      ****** ****** ****** ****** ****** ****** ****** ****** ****** ******
      ****** ****** ****** ****** ****** ****** ****** ****** ****** ******
   6  ****** ****** ****** ****** ****** ****** ****** ****** ****** ******
      ****** ****** ****** ****** ****** ****** ****** ****** ****** ******
      ****** ****** ****** ****** ****** ****** ****** ****** ****** ******
   7  ****** ****** ****** ****** ****** ****** ****** ****** ****** ******
      ****** ****** ****** ****** ****** ****** ****** ****** ****** ******
      ****** ****** ****** ****** ****** ****** ****** ****** ****** ******
   8  ****** ****** ****** ****** ****** ****** ****** ****** ****** ******
      ****** ****** ****** ****** ****** ****** ****** ****** ****** ******
      ****** ****** ****** ****** ****** ****** ****** ****** ****** ******
   9  ****** ****** ****** ****** ****** ****** ****** ****** ****** ******
      ****** ****** ****** ****** ****** ****** ****** ****** ****** ******
      ****** ****** ****** ****** ****** ****** ****** ****** ****** ******
  10  ****** ****** ****** ****** ****** ****** ****** ****** ****** ******
      ****** ****** ****** ****** ****** ****** ****** ****** ****** ******
      ****** ****** ****** ****** ****** ****** ****** ****** ****** ******
  11  ****** ****** ****** ****** ****** ****** ****** ****** ****** ******
      ****** ****** ****** ****** ****** ****** ****** ****** ****** ******
      ****** ****** ****** ****** ****** ****** ****** ****** ****** ******
  12  ****** ****** ****** ****** ****** ****** ****** ****** ****** ******
      ****** ****** ****** ****** ****** ****** ****** ****** ****** ******
      ****** ****** ****** ****** ****** ****** ****** ****** ****** ******
  13  ****** ****** ****** ****** ****** ****** ****** ****** ****** ******
      ****** ****** ****** ****** ****** ****** ****** ****** ****** ******
      ****** ****** ****** ****** ****** ****** ****** ****** ****** ******
  14  ****** ****** ****** ****** ****** ****** ****** ****** ****** ******
      ****** ****** ****** ****** ****** ****** ****** ****** ****** ******
      ****** ****** ****** ****** ****** ****** ****** ****** ****** ******
  15  ****** ****** ****** ****** ****** ****** ****** ****** ****** ******
      ****** ****** ****** ****** ****** ****** ****** ****** ****** ******
      ****** ****** ****** ****** ****** ****** ****** ****** ****** ******
  16  ****** ****** ****** ****** ****** ****** ****** ****** ****** ******
      ****** ****** ****** ****** ****** ****** ****** ****** ****** ******
      ****** ****** ****** ****** ****** ****** ****** ****** ****** ******
  17  ****** ****** ****** ****** ****** ****** ****** ****** ****** ******
      ****** ****** ****** ****** ****** ****** ****** ****** ****** ******
      ****** ****** ****** ****** ****** ****** ****** ****** ****** ******
  18  ****** ****** ****** ****** ****** ****** ****** ****** ****** ******
      ****** ****** ****** ****** ****** ****** ****** ****** ****** ******
      ****** ****** ****** ****** ****** ****** ****** ****** ****** ******
  19  ****** ****** ****** ****** ****** ****** ****** ****** ****** ******
      ****** ****** ****** ****** ****** ****** ****** ****** ****** ******
      ****** ****** ****** ****** ****** ****** ****** ****** ****** ******
  20  ****** ****** ****** ****** ****** ****** ****** ****** ****** ******
      ****** ****** ****** ****** ****** ****** ****** ****** ****** ******
      ****** ****** ****** ****** ****** ****** ****** ****** ****** ******
  21  ****** ****** ****** ****** ****** ****** ****** ****** ****** ******
      ****** ****** ****** ****** ****** ****** ****** ****** ****** ******
      ****** ****** ****** ****** ****** ****** ****** ****** ****** ******
  22  ****** ****** ****** ****** ****** ****** ****** ****** ****** ******
      ****** ****** ****** ****** ****** ****** ****** ****** ****** ******
      ****** ****** ****** ****** ****** ****** ****** ****** ****** ******
  23  ****** ****** ****** ****** ****** ****** ****** ****** ****** ******
      ****** ****** ****** ****** ****** ****** ****** ****** ****** ******
      ****** ****** ****** ****** ****** ****** ****** ****** ****** ******
  24  ****** ****** ****** ****** ****** ****** ****** ****** ****** ******
      ****** ****** ****** ****** ****** ****** ****** ****** ****** ******
      ****** ****** ****** ****** ****** ****** ****** ****** ****** ******
  25  ****** ****** ****** ****** ****** ****** ****** ****** ****** ******
      ****** ****** ****** ****** ****** ****** ****** ****** ****** ******
      ****** ****** ****** ****** ****** ****** ****** ****** ****** ******

 HEAD WILL BE SAVED ON UNIT   51 AT END OF TIME STEP    1, STRESS PERIOD   12
1
  VOLUMETRIC BUDGET FOR ENTIRE MODEL AT END OF TIME STEP    1, STRESS PERIOD  12
  ------------------------------------------------------------------------------

     CUMULATIVE VOLUMES      L**3       RATES FOR THIS TIME STEP      L**3/T
     ------------------                 ------------------------

           IN:                                      IN:
           ---                                      ---
             STORAGE =    36221488.2674               STORAGE =          12.7323
       CONSTANT HEAD =    32646015.6115         CONSTANT HEAD =       35103.8561
               WELLS =           0.0000                 WELLS =           0.0000
            RECHARGE =    26413200.0000              RECHARGE =       27600.0000
      STREAM LEAKAGE =     9263130.0706        STREAM LEAKAGE =        9562.0149

            TOTAL IN =   104543833.9495              TOTAL IN =       72278.6033

          OUT:                                     OUT:
          ----                                     ----
             STORAGE =     2603977.4862               STORAGE =        2994.3126
       CONSTANT HEAD =           0.0000         CONSTANT HEAD =           0.0000
               WELLS =    39269837.4590                 WELLS =       35862.8653
            RECHARGE =           0.0000              RECHARGE =           0.0000
      STREAM LEAKAGE =    62670021.1378        STREAM LEAKAGE =       33421.4253

           TOTAL OUT =   104543836.0830             TOTAL OUT =       72278.6032

            IN - OUT =          -2.1335              IN - OUT =       8.9670E-05

 PERCENT DISCREPANCY =          -0.00     PERCENT DISCREPANCY =           0.00






         TIME SUMMARY AT END OF TIME STEP    1 IN STRESS PERIOD   12
                    SECONDS     MINUTES      HOURS       DAYS        YEARS
                    -----------------------------------------------------------
   TIME STEP LENGTH 7.86240E+06 1.31040E+05  2184.0      91.000     0.24914    
 STRESS PERIOD TIME 7.86240E+06 1.31040E+05  2184.0      91.000     0.24914    
         TOTAL TIME 9.46080E+07 1.57680E+06  26280.      1095.0      2.9979    
1

 Run end date and time (yyyy/mm/dd hh:mm:ss): 2019/03/13 19:57:13
 Elapsed run time:  0.102 Seconds

