                                  MODFLOW-2005     
      U.S. GEOLOGICAL SURVEY MODULAR FINITE-DIFFERENCE GROUND-WATER FLOW MODEL
                            VERSION 1.11.00 8/8/2013

 LIST FILE: supply2.lst
                         UNIT   10

 OPENING ..\data\supply.dis
 FILE TYPE:DIS   UNIT   11   STATUS:OLD    
 FORMAT:FORMATTED              ACCESS:SEQUENTIAL          

 OPENING ..\data\supply.ba6
 FILE TYPE:BAS6   UNIT   12   STATUS:OLD    
 FORMAT:FORMATTED              ACCESS:SEQUENTIAL          

 OPENING ..\data\supply_het.bc6
 FILE TYPE:BCF6   UNIT   13   STATUS:OLD    
 FORMAT:FORMATTED              ACCESS:SEQUENTIAL          

 OPENING ..\data\supply.rch
 FILE TYPE:RCH   UNIT   15   STATUS:OLD    
 FORMAT:FORMATTED              ACCESS:SEQUENTIAL          

 OPENING ..\data\supply2.sfr
 FILE TYPE:SFR   UNIT   16   STATUS:OLD    
 FORMAT:FORMATTED              ACCESS:SEQUENTIAL          

 OPENING ..\data\supply.oc
 FILE TYPE:OC   UNIT   17   STATUS:OLD    
 FORMAT:FORMATTED              ACCESS:SEQUENTIAL          

 OPENING ..\data\supply.pcg
 FILE TYPE:PCG   UNIT   18   STATUS:OLD    
 FORMAT:FORMATTED              ACCESS:SEQUENTIAL          

 OPENING supply2.wel
 FILE TYPE:WEL   UNIT   19   STATUS:OLD    
 FORMAT:FORMATTED              ACCESS:SEQUENTIAL          

 OPENING supply2sf.cbc
 FILE TYPE:DATA(BINARY)   UNIT   50   STATUS:UNKNOWN
 FORMAT:BINARY                 ACCESS:SEQUENTIAL          

 OPENING supply2hd.bhd
 FILE TYPE:DATA(BINARY)   UNIT   51   STATUS:UNKNOWN
 FORMAT:BINARY                 ACCESS:SEQUENTIAL          

 BAS -- BASIC PACKAGE, VERSION 7, 5/2/2005 INPUT READ FROM UNIT   12
 
 MODFLOW was compiled using uniform precision
 Precision of REAL and DOUBLE PRECISION variables:          15

 DISCRETIZATION INPUT DATA READ FROM UNIT   11
    1 LAYERS        25 ROWS        30 COLUMNS
   12 STRESS PERIOD(S) IN SIMULATION
 MODEL TIME UNIT IS DAYS
 MODEL LENGTH UNIT IS UNDEFINED
  Confining bed flag for each layer:
   0

                     DELR =   200.000    

                     DELC =   200.000    

 TOP ELEVATION OF LAYER 1 =  100.0000    

   MODEL LAYER BOTTOM EL. =   0.00000     FOR LAYER   1


 STRESS PERIOD     LENGTH       TIME STEPS     MULTIPLIER FOR DELT    SS FLAG
 ----------------------------------------------------------------------------
        1         92.00000          1                    1.500         TR
        2         91.00000          1                    1.500         TR
        3         91.00000          1                    1.500         TR
        4         91.00000          1                    1.500         TR
        5         92.00000          1                    1.500         TR
        6         91.00000          1                    1.500         TR
        7         91.00000          1                    1.500         TR
        8         91.00000          1                    1.500         TR
        9         92.00000          1                    1.500         TR
       10         91.00000          1                    1.500         TR
       11         91.00000          1                    1.500         TR
       12         91.00000          1                    1.500         TR

 TRANSIENT SIMULATION



 
 #MODOFC transient water supply sample problem                                   
 #                                                                               
 THE FREE FORMAT OPTION HAS BEEN SELECTED



                     BOUNDARY ARRAY FOR LAYER   1
 READING ON UNIT   12 WITH FORMAT: (20I4)              

 AQUIFER HEAD WILL BE SET TO   0.0000     AT ALL NO-FLOW NODES (IBOUND=0).



                       INITIAL HEAD FOR LAYER   1
 READING ON UNIT   12 WITH FORMAT: (10F13.0)           

 OUTPUT CONTROL IS SPECIFIED ONLY AT TIME STEPS FOR WHICH OUTPUT IS DESIRED
 COMPACT CELL-BY-CELL BUDGET FILES WILL BE WRITTEN
 HEAD PRINT FORMAT CODE IS  18    DRAWDOWN PRINT FORMAT CODE IS   0
 HEADS WILL BE SAVED ON UNIT   51    DRAWDOWNS WILL BE SAVED ON UNIT    0

 BCF -- BLOCK-CENTERED FLOW PACKAGE, VERSION 7, 5/2/2005
         INPUT READ FROM UNIT 13
 TRANSIENT SIMULATION
 HEAD AT CELLS THAT CONVERT TO DRY=   0.0000    
 WETTING CAPABILITY IS NOT ACTIVE
      LAYER  LAYER-TYPE CODE     INTERBLOCK T
      --------------------------------------------
         1            0          0 -- HARMONIC    

 COLUMN TO ROW ANISOTROPY =  1.000000    

     PRIMARY STORAGE COEF =  5.000000E-02 FOR LAYER   1



               TRANSMIS. ALONG ROWS FOR LAYER   1
 READING ON UNIT   13 WITH FORMAT: (FREE)              

 WEL -- WELL PACKAGE, VERSION 7, 5/2/2005 INPUT READ FROM UNIT   19
 # Well package input file written by MMProc
 No named parameters
 MAXIMUM OF      8 ACTIVE WELLS AT ONE TIME


     0 Well parameters

 RCH -- RECHARGE PACKAGE, VERSION 7, 5/2/2005 INPUT READ FROM UNIT   15
 No named parameters
 OPTION 1 -- RECHARGE TO TOP LAYER


     0 Recharge parameters

 SFR7 -- STREAMFLOW ROUTING PACKAGE, VERSION 1.0.7, 2013-01-15
         INPUT READ FROM UNIT  16
 #  Supply2 test problem for GWM-VI
 #  The eighth entry in the first data line is ISTCB2 -
 #    Setting this to a negative number indicates that
 #    streamflows out of the reach will be saved to a
 #    binary file.  The absolute value of ISTCB2 is the
 #    unit to which unformatted flows will be written.
 #
 No named parameters
 Segment information will not be 
 read by reach
 No named parameters
 No specifed inflow files


 NUMBER OF STREAM REACHES IS   40

 NUMBER OF STREAM SEGMENTS IS    3

 NUMBER OF STREAM PARAMETERS IS    0

 NUMBER OF STREAM SEGMENTS DEFINED USING PARAMETERS IS              0

 MAXIMUM ERROR FOR STREAM LEAKAGE RATES IS  1.00E-04

 CONSTANT FOR MANNINGS EQUATION IS  1.2839E+05





   STREAM NETWORK DESCRIPTION: 

   LAYER    ROW    COL   SEGMENT   REACH     LENGTH
                          NUMBER   NUMBER    IN CELL        
   --------------------------------------------------
      1     13      1       1        1    2.0000E+02
      1     13      2       1        2    2.0000E+02
      1     14      3       1        3    2.0000E+02
      1     15      4       1        4    2.0000E+02
      1     16      5       1        5    2.0000E+02
      1     16      6       1        6    2.0000E+02
      1     16      7       1        7    2.0000E+02
      1     16      8       1        8    2.0000E+02
      1     16      9       1        9    2.0000E+02
      1     16     10       1       10    2.0000E+02
      1     16     11       1       11    2.0000E+02
      1     16     12       1       12    2.0000E+02
      1     15     13       1       13    2.0000E+02
      1     14     14       1       14    2.0000E+02
      1     13     15       1       15    2.0000E+02
      1     12     16       1       16    2.0000E+02
      1     12     17       1       17    2.0000E+02
      1     12     18       1       18    2.0000E+02
      1     12     19       1       19    2.0000E+02
      1     13     20       1       20    2.0000E+02
      1     14     21       1       21    2.0000E+02
      1     14     22       1       22    2.0000E+02
      1      9     30       2        1    2.0000E+02
      1      9     29       2        2    2.0000E+02
      1      9     28       2        3    2.0000E+02
      1      9     27       2        4    2.0000E+02
      1     10     26       2        5    2.0000E+02
      1     11     25       2        6    2.0000E+02
      1     12     24       2        7    2.0000E+02
      1     13     23       2        8    2.0000E+02
      1     14     22       2        9    2.0000E+02
      1     14     22       3        1    2.0000E+02
      1     15     23       3        2    2.0000E+02
      1     15     24       3        3    2.0000E+02
      1     15     25       3        4    2.0000E+02
      1     15     26       3        5    2.0000E+02
      1     16     27       3        6    2.0000E+02
      1     17     28       3        7    2.0000E+02
      1     18     29       3        8    2.0000E+02
      1     18     30       3        9    2.0000E+02




 PCG -- CONJUGATE-GRADIENT SOLUTION PACKAGE, VERSION 7, 5/2/2005
 MAXIMUM OF    500 CALLS OF SOLUTION ROUTINE
 MAXIMUM OF      5 INTERNAL ITERATIONS PER CALL TO SOLUTION ROUTINE
 MATRIX PRECONDITIONING TYPE :    1



                                    SOLUTION BY THE CONJUGATE-GRADIENT METHOD
                                   -------------------------------------------
                    MAXIMUM NUMBER OF CALLS TO PCG ROUTINE =      500
                        MAXIMUM ITERATIONS PER CALL TO PCG =        5
                               MATRIX PRECONDITIONING TYPE =        1
        RELAXATION FACTOR (ONLY USED WITH PRECOND. TYPE 1) =    0.10000E+01
 PARAMETER OF POLYNOMIAL PRECOND. = 2 (2) OR IS CALCULATED :        0
                         HEAD CHANGE CRITERION FOR CLOSURE =    0.10000E-05
                     RESIDUAL CHANGE CRITERION FOR CLOSURE =    0.10000E+01
            PCG HEAD AND RESIDUAL CHANGE PRINTOUT INTERVAL =        1
     PRINTING FROM SOLVER IS LIMITED(1) OR SUPPRESSED (>1) =        1
                            STEADY-STATE DAMPING PARAMETER =    0.10000E+01
                               TRANSIENT DAMPING PARAMETER =    0.10000E+01
1
                            STRESS PERIOD NO.    1, LENGTH =   92.00000    
                            -----------------------------------------------

                              NUMBER OF TIME STEPS =     1

                               MULTIPLIER FOR DELT =     1.500

                            INITIAL TIME STEP SIZE =   92.00000    

 WELL NO.  LAYER   ROW   COL   STRESS RATE         
 --------------------------------------------------
      1      1     14      6       0.000    
      2      1      3      9       0.000    
      3      1     20     10       0.000    
      4      1     14     20       0.000    
      5      1     17     24      -1629.    
      6      1      9     25     -0.1155E+05
      7      1      8     20      -8674.    
      8      1     10     13      -8797.    

      8 WELLS

                 RECHARGE =  5.000000E-04



 CLASSIFICATION & COUNT OF STREAM SEGMENTS BASED ON SOURCE OF INFLOW:

                HEADWATER     DIVERSION     RECEIVES TRIBUTARY FLOW
                ---------     ---------     -----------------------
                     2              0               1



                    INPUT DATA FOR EACH STREAM SEGMENT
 ---------------------------------------------------------------------------------------------

 SEGMENT    SEG.     INFLOW   OVERLAND   STREAM    STREAM   ICALC  OUTFLOW  DIVERSION PRIORITY
    NO.    LENGTH     RATE     RUNOFF      ET       PPT.    METH.  TO SEG.  FROM SEG.    NO.

      1  4.400E+03 1.000E+05 0.000E+00 0.000E+00 0.000E+00    1        3        0        0
      2  1.800E+03 5.000E+04 0.000E+00 0.000E+00 0.000E+00    1        3        0        0
      3  1.800E+03 0.000E+00 0.000E+00 0.000E+00 0.000E+00    1        0        0        0


         STREAMBED PROPERTIES AND STREAM DIMENSIONS

 SEGMENT     BED HYD. COND.      BED THICKNESS     ELEV.-TOP OF BED     WIDTH OF STREAM     DEPTH OF STREAM    STREAM ROUGHNESS
    No.     UPPER     LOWER     UPPER     LOWER     UPPER     LOWER     UPPER     LOWER     UPPER     LOWER   CHANNEL      BANK

     1  5.000E+00 5.000E+00 1.000E+00 1.000E+00 4.850E+01 3.800E+01 2.000E+01 2.000E+01                     5.000E-02
     2  5.000E+00 5.000E+00 1.000E+00 1.000E+00 4.025E+01 3.800E+01 2.000E+01 2.000E+01                     5.000E-02
     3  5.000E+00 5.000E+00 1.000E+00 1.000E+00 3.800E+01 3.000E+01 2.000E+01 2.000E+01                     5.000E-02



 
 SOLVING FOR HEAD 


     9 CALLS TO PCG ROUTINE FOR TIME STEP   1 IN STRESS PERIOD    1
    36 TOTAL ITERATIONS

 OUTPUT CONTROL FOR STRESS PERIOD    1   TIME STEP    1
    SAVE BUDGET
    SAVE HEAD FOR ALL LAYERS
    PRINT HEAD FOR ALL LAYERS
 UBDSV2 SAVING "STREAMFLOW OUT  " ON UNIT  50 AT TIME STEP  1, STRESS PERIOD   1



 STREAM LISTING     PERIOD      1   STEP        1

 LAYER ROW COL. STREAM  RCH.  FLOW INTO     FLOW TO   FLOW OUT OF   OVRLND.     DIRECT     STREAM       STREAM     STREAM     STREAM   STREAMBED  STREAMBED
                SEG.NO.  NO.  STRM. RCH.    AQUIFER    STRM. RCH.    RUNOFF     PRECIP       ET          HEAD       DEPTH      WIDTH   CONDCTNC.   GRADIENT

   1   13    1     1     1    1.0000E+05 -6.1083E+03   1.0611E+05  0.000E+00  0.000E+00  0.000E+00  4.84087E+01  1.473E-01  2.000E+01  2.000E+04 -3.054E-01
   1   13    2     1     2    1.0611E+05 -7.5770E+03   1.1369E+05  0.000E+00  0.000E+00  0.000E+00  4.79372E+01  1.531E-01  2.000E+01  2.000E+04 -3.788E-01
   1   14    3     1     3    1.1369E+05 -2.1980E+03   1.1588E+05  0.000E+00  0.000E+00  0.000E+00  4.74639E+01  1.571E-01  2.000E+01  2.000E+04 -1.099E-01
   1   15    4     1     4    1.1588E+05 -2.2697E+03   1.1815E+05  0.000E+00  0.000E+00  0.000E+00  4.69885E+01  1.590E-01  2.000E+01  2.000E+04 -1.135E-01
   1   16    5     1     5    1.1815E+05 -7.1861E+03   1.2534E+05  0.000E+00  0.000E+00  0.000E+00  4.65151E+01  1.628E-01  2.000E+01  2.000E+04 -3.593E-01
   1   16    6     1     6    1.2534E+05 -4.3039E+03   1.2964E+05  0.000E+00  0.000E+00  0.000E+00  4.60423E+01  1.673E-01  2.000E+01  2.000E+04 -2.152E-01
   1   16    7     1     7    1.2964E+05 -4.1382E+03   1.3378E+05  0.000E+00  0.000E+00  0.000E+00  4.55684E+01  1.706E-01  2.000E+01  2.000E+04 -2.069E-01
   1   16    8     1     8    1.3378E+05 -4.0963E+03   1.3788E+05  0.000E+00  0.000E+00  0.000E+00  4.50943E+01  1.738E-01  2.000E+01  2.000E+04 -2.048E-01
   1   16    9     1     9    1.3788E+05 -4.0836E+03   1.4196E+05  0.000E+00  0.000E+00  0.000E+00  4.46201E+01  1.770E-01  2.000E+01  2.000E+04 -2.042E-01
   1   16   10     1    10    1.4196E+05 -4.0770E+03   1.4604E+05  0.000E+00  0.000E+00  0.000E+00  4.41459E+01  1.800E-01  2.000E+01  2.000E+04 -2.039E-01
   1   16   11     1    11    1.4604E+05 -4.1038E+03   1.5014E+05  0.000E+00  0.000E+00  0.000E+00  4.36717E+01  1.831E-01  2.000E+01  2.000E+04 -2.052E-01
   1   16   12     1    12    1.5014E+05 -6.8787E+03   1.5702E+05  0.000E+00  0.000E+00  0.000E+00  4.31985E+01  1.871E-01  2.000E+01  2.000E+04 -3.439E-01
   1   15   13     1    13    1.5702E+05 -6.9159E+03   1.6394E+05  0.000E+00  0.000E+00  0.000E+00  4.27262E+01  1.921E-01  2.000E+01  2.000E+04 -3.458E-01
   1   14   14     1    14    1.6394E+05 -7.1093E+03   1.7105E+05  0.000E+00  0.000E+00  0.000E+00  4.22539E+01  1.971E-01  2.000E+01  2.000E+04 -3.555E-01
   1   13   15     1    15    1.7105E+05 -7.2011E+03   1.7825E+05  0.000E+00  0.000E+00  0.000E+00  4.17817E+01  2.021E-01  2.000E+01  2.000E+04 -3.601E-01
   1   12   16     1    16    1.7825E+05 -7.6100E+03   1.8586E+05  0.000E+00  0.000E+00  0.000E+00  4.13095E+01  2.072E-01  2.000E+01  2.000E+04 -3.805E-01
   1   12   17     1    17    1.8586E+05 -5.6944E+03   1.9155E+05  0.000E+00  0.000E+00  0.000E+00  4.08367E+01  2.117E-01  2.000E+01  2.000E+04 -2.847E-01
   1   12   18     1    18    1.9155E+05 -5.5397E+03   1.9709E+05  0.000E+00  0.000E+00  0.000E+00  4.03632E+01  2.155E-01  2.000E+01  2.000E+04 -2.770E-01
   1   12   19     1    19    1.9709E+05 -6.7383E+03   2.0383E+05  0.000E+00  0.000E+00  0.000E+00  3.98900E+01  2.196E-01  2.000E+01  2.000E+04 -3.369E-01
   1   13   20     1    20    2.0383E+05 -6.3419E+03   2.1017E+05  0.000E+00  0.000E+00  0.000E+00  3.94170E+01  2.238E-01  2.000E+01  2.000E+04 -3.171E-01
   1   14   21     1    21    2.1017E+05 -6.2172E+03   2.1639E+05  0.000E+00  0.000E+00  0.000E+00  3.89438E+01  2.279E-01  2.000E+01  2.000E+04 -3.109E-01
   1   14   22     1    22    2.1639E+05  3.7897E+03   2.1260E+05  0.000E+00  0.000E+00  0.000E+00  3.84673E+01  2.287E-01  2.000E+01  2.000E+04  1.895E-01
   1    9   30     2     1    5.0000E+04 -4.6763E+03   5.4676E+04  0.000E+00  0.000E+00  0.000E+00  4.02441E+01  1.191E-01  2.000E+01  2.000E+04 -2.338E-01
   1    9   29     2     2    5.4676E+04 -4.9207E+03   5.9597E+04  0.000E+00  0.000E+00  0.000E+00  4.00005E+01  1.255E-01  2.000E+01  2.000E+04 -2.460E-01
   1    9   28     2     3    5.9597E+04 -5.0368E+03   6.4634E+04  0.000E+00  0.000E+00  0.000E+00  3.97570E+01  1.320E-01  2.000E+01  2.000E+04 -2.518E-01
   1    9   27     2     4    6.4634E+04 -6.1321E+03   7.0766E+04  0.000E+00  0.000E+00  0.000E+00  3.95140E+01  1.390E-01  2.000E+01  2.000E+04 -3.066E-01
   1   10   26     2     5    7.0766E+04 -4.2479E+03   7.5014E+04  0.000E+00  0.000E+00  0.000E+00  3.92703E+01  1.453E-01  2.000E+01  2.000E+04 -2.124E-01
   1   11   25     2     6    7.5014E+04 -4.6408E+03   7.9655E+04  0.000E+00  0.000E+00  0.000E+00  3.90255E+01  1.505E-01  2.000E+01  2.000E+04 -2.320E-01
   1   12   24     2     7    7.9655E+04 -5.2942E+03   8.4949E+04  0.000E+00  0.000E+00  0.000E+00  3.87812E+01  1.562E-01  2.000E+01  2.000E+04 -2.647E-01
   1   13   23     2     8    8.4949E+04 -1.5375E+03   8.6486E+04  0.000E+00  0.000E+00  0.000E+00  3.85351E+01  1.601E-01  2.000E+01  2.000E+04 -7.687E-02
   1   14   22     2     9    8.6486E+04  1.6151E+02   8.6325E+04  0.000E+00  0.000E+00  0.000E+00  3.82859E+01  1.609E-01  2.000E+01  2.000E+04  8.076E-03
   1   14   22     3     1    2.9892E+05 -9.7688E+03   3.0869E+05  0.000E+00  0.000E+00  0.000E+00  3.77894E+01  2.338E-01  2.000E+01  2.000E+04 -4.884E-01
   1   15   23     3     2    3.0869E+05 -1.9224E+03   3.1061E+05  0.000E+00  0.000E+00  0.000E+00  3.69032E+01  2.365E-01  2.000E+01  2.000E+04 -9.612E-02
   1   15   24     3     3    3.1061E+05 -1.3884E+03   3.1200E+05  0.000E+00  0.000E+00  0.000E+00  3.60150E+01  2.373E-01  2.000E+01  2.000E+04 -6.942E-02
   1   15   25     3     4    3.1200E+05 -1.5040E+03   3.1351E+05  0.000E+00  0.000E+00  0.000E+00  3.51268E+01  2.379E-01  2.000E+01  2.000E+04 -7.520E-02
   1   15   26     3     5    3.1351E+05 -1.8526E+03   3.1536E+05  0.000E+00  0.000E+00  0.000E+00  3.42387E+01  2.387E-01  2.000E+01  2.000E+04 -9.263E-02
   1   16   27     3     6    3.1536E+05 -2.1223E+03   3.1748E+05  0.000E+00  0.000E+00  0.000E+00  3.33507E+01  2.396E-01  2.000E+01  2.000E+04 -1.061E-01
   1   17   28     3     7    3.1748E+05 -6.5410E+03   3.2402E+05  0.000E+00  0.000E+00  0.000E+00  3.24638E+01  2.415E-01  2.000E+01  2.000E+04 -3.270E-01
   1   18   29     3     8    3.2402E+05 -7.9659E+03   3.3199E+05  0.000E+00  0.000E+00  0.000E+00  3.15781E+01  2.448E-01  2.000E+01  2.000E+04 -3.983E-01
   1   18   30     3     9    3.3199E+05 -7.1619E+03   3.3915E+05  0.000E+00  0.000E+00  0.000E+00  3.06926E+01  2.482E-01  2.000E+01  2.000E+04 -3.581E-01



1
              HEAD IN LAYER   1 AT END OF TIME STEP   1 IN STRESS PERIOD    1
  ---------------------------------------------------------------------------

          1      2      3      4      5      6      7      8      9     10
         11     12     13     14     15     16     17     18     19     20
         21     22     23     24     25     26     27     28     29     30
 .........................................................................
   1  ****** ****** ****** ****** ****** ****** ****** ****** ****** ******
      ****** ****** ****** ****** ****** ****** ****** ****** ****** ******
      ****** ****** ****** ****** ****** ****** ****** ****** ****** ******
   2  ****** ****** ****** ****** ****** ****** ****** ****** ****** ******
      ****** ****** ****** ****** ****** ****** ****** ****** ****** ******
      ****** ****** ****** ****** ****** ****** ****** ****** ****** ******
   3  ****** ****** ****** ****** ****** ****** ****** ****** ****** ******
      ****** ****** ****** ****** ****** ****** ****** ****** ****** ******
      ****** ****** ****** ****** ****** ****** ****** ****** ****** ******
   4  ****** ****** ****** ****** ****** ****** ****** ****** ****** ******
      ****** ****** ****** ****** ****** ****** ****** ****** ****** ******
      ****** ****** ****** ****** ****** ****** ****** ****** ****** ******
   5  ****** ****** ****** ****** ****** ****** ****** ****** ****** ******
      ****** ****** ****** ****** ****** ****** ****** ****** ****** ******
      ****** ****** ****** ****** ****** ****** ****** ****** ****** ******
   6  ****** ****** ****** ****** ****** ****** ****** ****** ****** ******
      ****** ****** ****** ****** ****** ****** ****** ****** ****** ******
      ****** ****** ****** ****** ****** ****** ****** ****** ****** ******
   7  ****** ****** ****** ****** ****** ****** ****** ****** ****** ******
      ****** ****** ****** ****** ****** ****** ****** ****** ****** ******
      ****** ****** ****** ****** ****** ****** ****** ****** ****** ******
   8  ****** ****** ****** ****** ****** ****** ****** ****** ****** ******
      ****** ****** ****** ****** ****** ****** ****** ****** ****** ******
      ****** ****** ****** ****** ****** ****** ****** ****** ****** ******
   9  ****** ****** ****** ****** ****** ****** ****** ****** ****** ******
      ****** ****** ****** ****** ****** ****** ****** ****** ****** ******
      ****** ****** ****** ****** ****** ****** ****** ****** ****** ******
  10  ****** ****** ****** ****** ****** ****** ****** ****** ****** ******
      ****** ****** ****** ****** ****** ****** ****** ****** ****** ******
      ****** ****** ****** ****** ****** ****** ****** ****** ****** ******
  11  ****** ****** ****** ****** ****** ****** ****** ****** ****** ******
      ****** ****** ****** ****** ****** ****** ****** ****** ****** ******
      ****** ****** ****** ****** ****** ****** ****** ****** ****** ******
  12  ****** ****** ****** ****** ****** ****** ****** ****** ****** ******
      ****** ****** ****** ****** ****** ****** ****** ****** ****** ******
      ****** ****** ****** ****** ****** ****** ****** ****** ****** ******
  13  ****** ****** ****** ****** ****** ****** ****** ****** ****** ******
      ****** ****** ****** ****** ****** ****** ****** ****** ****** ******
      ****** ****** ****** ****** ****** ****** ****** ****** ****** ******
  14  ****** ****** ****** ****** ****** ****** ****** ****** ****** ******
      ****** ****** ****** ****** ****** ****** ****** ****** ****** ******
      ****** ****** ****** ****** ****** ****** ****** ****** ****** ******
  15  ****** ****** ****** ****** ****** ****** ****** ****** ****** ******
      ****** ****** ****** ****** ****** ****** ****** ****** ****** ******
      ****** ****** ****** ****** ****** ****** ****** ****** ****** ******
  16  ****** ****** ****** ****** ****** ****** ****** ****** ****** ******
      ****** ****** ****** ****** ****** ****** ****** ****** ****** ******
      ****** ****** ****** ****** ****** ****** ****** ****** ****** ******
  17  ****** ****** ****** ****** ****** ****** ****** ****** ****** ******
      ****** ****** ****** ****** ****** ****** ****** ****** ****** ******
      ****** ****** ****** ****** ****** ****** ****** ****** ****** ******
  18  ****** ****** ****** ****** ****** ****** ****** ****** ****** ******
      ****** ****** ****** ****** ****** ****** ****** ****** ****** ******
      ****** ****** ****** ****** ****** ****** ****** ****** ****** ******
  19  ****** ****** ****** ****** ****** ****** ****** ****** ****** ******
      ****** ****** ****** ****** ****** ****** ****** ****** ****** ******
      ****** ****** ****** ****** ****** ****** ****** ****** ****** ******
  20  ****** ****** ****** ****** ****** ****** ****** ****** ****** ******
      ****** ****** ****** ****** ****** ****** ****** ****** ****** ******
      ****** ****** ****** ****** ****** ****** ****** ****** ****** ******
  21  ****** ****** ****** ****** ****** ****** ****** ****** ****** ******
      ****** ****** ****** ****** ****** ****** ****** ****** ****** ******
      ****** ****** ****** ****** ****** ****** ****** ****** ****** ******
  22  ****** ****** ****** ****** ****** ****** ****** ****** ****** ******
      ****** ****** ****** ****** ****** ****** ****** ****** ****** ******
      ****** ****** ****** ****** ****** ****** ****** ****** ****** ******
  23  ****** ****** ****** ****** ****** ****** ****** ****** ****** ******
      ****** ****** ****** ****** ****** ****** ****** ****** ****** ******
      ****** ****** ****** ****** ****** ****** ****** ****** ****** ******
  24  ****** ****** ****** ****** ****** ****** ****** ****** ****** ******
      ****** ****** ****** ****** ****** ****** ****** ****** ****** ******
      ****** ****** ****** ****** ****** ****** ****** ****** ****** ******
  25  ****** ****** ****** ****** ****** ****** ****** ****** ****** ******
      ****** ****** ****** ****** ****** ****** ****** ****** ****** ******
      ****** ****** ****** ****** ****** ****** ****** ****** ****** ******

 HEAD WILL BE SAVED ON UNIT   51 AT END OF TIME STEP    1, STRESS PERIOD    1
1
  VOLUMETRIC BUDGET FOR ENTIRE MODEL AT END OF TIME STEP    1, STRESS PERIOD   1
  ------------------------------------------------------------------------------

     CUMULATIVE VOLUMES      L**3       RATES FOR THIS TIME STEP      L**3/T
     ------------------                 ------------------------

           IN:                                      IN:
           ---                                      ---
             STORAGE =    17809130.3984               STORAGE =      193577.5043
       CONSTANT HEAD =     1143377.2183         CONSTANT HEAD =       12428.0132
               WELLS =           0.0000                 WELLS =           0.0000
            RECHARGE =     1269600.0000              RECHARGE =       13800.0000
      STREAM LEAKAGE =      363511.0093        STREAM LEAKAGE =        3951.2066

            TOTAL IN =    20585618.6260              TOTAL IN =      223756.7242

          OUT:                                     OUT:
          ----                                     ----
             STORAGE =           0.0000               STORAGE =           0.0000
       CONSTANT HEAD =           0.0000         CONSTANT HEAD =           0.0000
               WELLS =     2820244.5622                 WELLS =       30654.8322
            RECHARGE =           0.0000              RECHARGE =           0.0000
      STREAM LEAKAGE =    17765374.3519        STREAM LEAKAGE =      193101.8951

           TOTAL OUT =    20585618.9141             TOTAL OUT =      223756.7273

            IN - OUT =          -0.2880              IN - OUT =      -3.1308E-03

 PERCENT DISCREPANCY =          -0.00     PERCENT DISCREPANCY =          -0.00






         TIME SUMMARY AT END OF TIME STEP    1 IN STRESS PERIOD    1
                    SECONDS     MINUTES      HOURS       DAYS        YEARS
                    -----------------------------------------------------------
   TIME STEP LENGTH 7.94880E+06 1.32480E+05  2208.0      92.000     0.25188    
 STRESS PERIOD TIME 7.94880E+06 1.32480E+05  2208.0      92.000     0.25188    
         TOTAL TIME 7.94880E+06 1.32480E+05  2208.0      92.000     0.25188    
1
1
                            STRESS PERIOD NO.    2, LENGTH =   91.00000    
                            -----------------------------------------------

                              NUMBER OF TIME STEPS =     1

                               MULTIPLIER FOR DELT =     1.500

                            INITIAL TIME STEP SIZE =   91.00000    

 WELL NO.  LAYER   ROW   COL   STRESS RATE         
 --------------------------------------------------
      1      1     14      6       0.000    
      2      1      3      9       0.000    
      3      1     20     10       0.000    
      4      1     14     20       0.000    
      5      1     17     24      -1629.    
      6      1      9     25     -0.1155E+05
      7      1      8     20      -8674.    
      8      1     10     13      -8797.    

      8 WELLS

                 RECHARGE =  2.000000E-03

 REUSING STREAM SEGMENT DATA FROM LAST STRESS PERIOD
 
 SOLVING FOR HEAD 


     7 CALLS TO PCG ROUTINE FOR TIME STEP   1 IN STRESS PERIOD    2
    27 TOTAL ITERATIONS

 OUTPUT CONTROL FOR STRESS PERIOD    2   TIME STEP    1
    SAVE BUDGET
    SAVE HEAD FOR ALL LAYERS
    PRINT HEAD FOR ALL LAYERS
 UBDSV2 SAVING "STREAMFLOW OUT  " ON UNIT  50 AT TIME STEP  1, STRESS PERIOD   2



 STREAM LISTING     PERIOD      2   STEP        1

 LAYER ROW COL. STREAM  RCH.  FLOW INTO     FLOW TO   FLOW OUT OF   OVRLND.     DIRECT     STREAM       STREAM     STREAM     STREAM   STREAMBED  STREAMBED
                SEG.NO.  NO.  STRM. RCH.    AQUIFER    STRM. RCH.    RUNOFF     PRECIP       ET          HEAD       DEPTH      WIDTH   CONDCTNC.   GRADIENT

   1   13    1     1     1    1.0000E+05 -3.9691E+03   1.0397E+05  0.000E+00  0.000E+00  0.000E+00  4.84077E+01  1.464E-01  2.000E+01  2.000E+04 -1.985E-01
   1   13    2     1     2    1.0397E+05 -5.2281E+03   1.0920E+05  0.000E+00  0.000E+00  0.000E+00  4.79344E+01  1.503E-01  2.000E+01  2.000E+04 -2.614E-01
   1   14    3     1     3    1.0920E+05 -1.1132E+03   1.1031E+05  0.000E+00  0.000E+00  0.000E+00  4.74598E+01  1.530E-01  2.000E+01  2.000E+04 -5.566E-02
   1   15    4     1     4    1.1031E+05 -1.1420E+03   1.1145E+05  0.000E+00  0.000E+00  0.000E+00  4.69834E+01  1.539E-01  2.000E+01  2.000E+04 -5.710E-02
   1   16    5     1     5    1.1145E+05 -4.2573E+03   1.1571E+05  0.000E+00  0.000E+00  0.000E+00  4.65084E+01  1.561E-01  2.000E+01  2.000E+04 -2.129E-01
   1   16    6     1     6    1.1571E+05 -2.5084E+03   1.1822E+05  0.000E+00  0.000E+00  0.000E+00  4.60339E+01  1.589E-01  2.000E+01  2.000E+04 -1.254E-01
   1   16    7     1     7    1.1822E+05 -2.4128E+03   1.2063E+05  0.000E+00  0.000E+00  0.000E+00  4.55586E+01  1.609E-01  2.000E+01  2.000E+04 -1.206E-01
   1   16    8     1     8    1.2063E+05 -2.3814E+03   1.2301E+05  0.000E+00  0.000E+00  0.000E+00  4.50833E+01  1.628E-01  2.000E+01  2.000E+04 -1.191E-01
   1   16    9     1     9    1.2301E+05 -2.3570E+03   1.2537E+05  0.000E+00  0.000E+00  0.000E+00  4.46079E+01  1.647E-01  2.000E+01  2.000E+04 -1.179E-01
   1   16   10     1    10    1.2537E+05 -2.3272E+03   1.2770E+05  0.000E+00  0.000E+00  0.000E+00  4.41325E+01  1.666E-01  2.000E+01  2.000E+04 -1.164E-01
   1   16   11     1    11    1.2770E+05 -2.3236E+03   1.3002E+05  0.000E+00  0.000E+00  0.000E+00  4.36571E+01  1.684E-01  2.000E+01  2.000E+04 -1.162E-01
   1   16   12     1    12    1.3002E+05 -3.9632E+03   1.3398E+05  0.000E+00  0.000E+00  0.000E+00  4.31822E+01  1.709E-01  2.000E+01  2.000E+04 -1.982E-01
   1   15   13     1    13    1.3398E+05 -3.5597E+03   1.3754E+05  0.000E+00  0.000E+00  0.000E+00  4.27079E+01  1.738E-01  2.000E+01  2.000E+04 -1.780E-01
   1   14   14     1    14    1.3754E+05 -3.5541E+03   1.4110E+05  0.000E+00  0.000E+00  0.000E+00  4.22333E+01  1.765E-01  2.000E+01  2.000E+04 -1.777E-01
   1   13   15     1    15    1.4110E+05 -3.5811E+03   1.4468E+05  0.000E+00  0.000E+00  0.000E+00  4.17587E+01  1.792E-01  2.000E+01  2.000E+04 -1.791E-01
   1   12   16     1    16    1.4468E+05 -4.0624E+03   1.4874E+05  0.000E+00  0.000E+00  0.000E+00  4.12843E+01  1.821E-01  2.000E+01  2.000E+04 -2.031E-01
   1   12   17     1    17    1.4874E+05 -2.9812E+03   1.5172E+05  0.000E+00  0.000E+00  0.000E+00  4.08097E+01  1.847E-01  2.000E+01  2.000E+04 -1.491E-01
   1   12   18     1    18    1.5172E+05 -2.8282E+03   1.5455E+05  0.000E+00  0.000E+00  0.000E+00  4.03345E+01  1.868E-01  2.000E+01  2.000E+04 -1.414E-01
   1   12   19     1    19    1.5455E+05 -3.2942E+03   1.5784E+05  0.000E+00  0.000E+00  0.000E+00  3.98595E+01  1.890E-01  2.000E+01  2.000E+04 -1.647E-01
   1   13   20     1    20    1.5784E+05 -3.0812E+03   1.6093E+05  0.000E+00  0.000E+00  0.000E+00  3.93845E+01  1.913E-01  2.000E+01  2.000E+04 -1.541E-01
   1   14   21     1    21    1.6093E+05 -3.4395E+03   1.6436E+05  0.000E+00  0.000E+00  0.000E+00  3.89096E+01  1.937E-01  2.000E+01  2.000E+04 -1.720E-01
   1   14   22     1    22    1.6436E+05  4.5881E+03   1.5978E+05  0.000E+00  0.000E+00  0.000E+00  3.84319E+01  1.933E-01  2.000E+01  2.000E+04  2.294E-01
   1    9   30     2     1    5.0000E+04 -1.8590E+03   5.1859E+04  0.000E+00  0.000E+00  0.000E+00  4.02422E+01  1.172E-01  2.000E+01  2.000E+04 -9.295E-02
   1    9   29     2     2    5.1859E+04 -2.1045E+03   5.3964E+04  0.000E+00  0.000E+00  0.000E+00  3.99949E+01  1.199E-01  2.000E+01  2.000E+04 -1.052E-01
   1    9   28     2     3    5.3964E+04 -2.2042E+03   5.6168E+04  0.000E+00  0.000E+00  0.000E+00  3.97478E+01  1.228E-01  2.000E+01  2.000E+04 -1.102E-01
   1    9   27     2     4    5.6168E+04 -2.2992E+03   5.8467E+04  0.000E+00  0.000E+00  0.000E+00  3.95008E+01  1.258E-01  2.000E+01  2.000E+04 -1.150E-01
   1   10   26     2     5    5.8467E+04 -2.8345E+02   5.8750E+04  0.000E+00  0.000E+00  0.000E+00  3.92525E+01  1.275E-01  2.000E+01  2.000E+04 -1.417E-02
   1   11   25     2     6    5.8750E+04 -8.7941E+02   5.9630E+04  0.000E+00  0.000E+00  0.000E+00  3.90032E+01  1.282E-01  2.000E+01  2.000E+04 -4.397E-02
   1   12   24     2     7    5.9630E+04 -1.9409E+03   6.1571E+04  0.000E+00  0.000E+00  0.000E+00  3.87550E+01  1.300E-01  2.000E+01  2.000E+04 -9.705E-02
   1   13   23     2     8    6.1571E+04 -4.5768E+02   6.2028E+04  0.000E+00  0.000E+00  0.000E+00  3.85066E+01  1.316E-01  2.000E+01  2.000E+04 -2.288E-02
   1   14   22     2     9    6.2028E+04  1.0737E+03   6.0955E+04  0.000E+00  0.000E+00  0.000E+00  3.82562E+01  1.312E-01  2.000E+01  2.000E+04  5.368E-02
   1   14   22     3     1    2.2073E+05 -9.0310E+03   2.2976E+05  0.000E+00  0.000E+00  0.000E+00  3.77509E+01  1.954E-01  2.000E+01  2.000E+04 -4.516E-01
   1   15   23     3     2    2.2976E+05 -9.5665E+02   2.3072E+05  0.000E+00  0.000E+00  0.000E+00  3.68646E+01  1.980E-01  2.000E+01  2.000E+04 -4.783E-02
   1   15   24     3     3    2.3072E+05 -4.7337E+02   2.3119E+05  0.000E+00  0.000E+00  0.000E+00  3.59761E+01  1.983E-01  2.000E+01  2.000E+04 -2.367E-02
   1   15   25     3     4    2.3119E+05 -5.5814E+02   2.3175E+05  0.000E+00  0.000E+00  0.000E+00  3.50875E+01  1.986E-01  2.000E+01  2.000E+04 -2.791E-02
   1   15   26     3     5    2.3175E+05 -7.2344E+02   2.3247E+05  0.000E+00  0.000E+00  0.000E+00  3.41989E+01  1.989E-01  2.000E+01  2.000E+04 -3.617E-02
   1   16   27     3     6    2.3247E+05 -8.2836E+02   2.3330E+05  0.000E+00  0.000E+00  0.000E+00  3.33104E+01  1.993E-01  2.000E+01  2.000E+04 -4.142E-02
   1   17   28     3     7    2.3330E+05 -3.1878E+03   2.3649E+05  0.000E+00  0.000E+00  0.000E+00  3.24226E+01  2.004E-01  2.000E+01  2.000E+04 -1.594E-01
   1   18   29     3     8    2.3649E+05 -4.9974E+03   2.4149E+05  0.000E+00  0.000E+00  0.000E+00  3.15358E+01  2.025E-01  2.000E+01  2.000E+04 -2.499E-01
   1   18   30     3     9    2.4149E+05 -4.6572E+03   2.4614E+05  0.000E+00  0.000E+00  0.000E+00  3.06493E+01  2.049E-01  2.000E+01  2.000E+04 -2.329E-01



1
              HEAD IN LAYER   1 AT END OF TIME STEP   1 IN STRESS PERIOD    2
  ---------------------------------------------------------------------------

          1      2      3      4      5      6      7      8      9     10
         11     12     13     14     15     16     17     18     19     20
         21     22     23     24     25     26     27     28     29     30
 .........................................................................
   1  ****** ****** ****** ****** ****** ****** ****** ****** ****** ******
      ****** ****** ****** ****** ****** ****** ****** ****** ****** ******
      ****** ****** ****** ****** ****** ****** ****** ****** ****** ******
   2  ****** ****** ****** ****** ****** ****** ****** ****** ****** ******
      ****** ****** ****** ****** ****** ****** ****** ****** ****** ******
      ****** ****** ****** ****** ****** ****** ****** ****** ****** ******
   3  ****** ****** ****** ****** ****** ****** ****** ****** ****** ******
      ****** ****** ****** ****** ****** ****** ****** ****** ****** ******
      ****** ****** ****** ****** ****** ****** ****** ****** ****** ******
   4  ****** ****** ****** ****** ****** ****** ****** ****** ****** ******
      ****** ****** ****** ****** ****** ****** ****** ****** ****** ******
      ****** ****** ****** ****** ****** ****** ****** ****** ****** ******
   5  ****** ****** ****** ****** ****** ****** ****** ****** ****** ******
      ****** ****** ****** ****** ****** ****** ****** ****** ****** ******
      ****** ****** ****** ****** ****** ****** ****** ****** ****** ******
   6  ****** ****** ****** ****** ****** ****** ****** ****** ****** ******
      ****** ****** ****** ****** ****** ****** ****** ****** ****** ******
      ****** ****** ****** ****** ****** ****** ****** ****** ****** ******
   7  ****** ****** ****** ****** ****** ****** ****** ****** ****** ******
      ****** ****** ****** ****** ****** ****** ****** ****** ****** ******
      ****** ****** ****** ****** ****** ****** ****** ****** ****** ******
   8  ****** ****** ****** ****** ****** ****** ****** ****** ****** ******
      ****** ****** ****** ****** ****** ****** ****** ****** ****** ******
      ****** ****** ****** ****** ****** ****** ****** ****** ****** ******
   9  ****** ****** ****** ****** ****** ****** ****** ****** ****** ******
      ****** ****** ****** ****** ****** ****** ****** ****** ****** ******
      ****** ****** ****** ****** ****** ****** ****** ****** ****** ******
  10  ****** ****** ****** ****** ****** ****** ****** ****** ****** ******
      ****** ****** ****** ****** ****** ****** ****** ****** ****** ******
      ****** ****** ****** ****** ****** ****** ****** ****** ****** ******
  11  ****** ****** ****** ****** ****** ****** ****** ****** ****** ******
      ****** ****** ****** ****** ****** ****** ****** ****** ****** ******
      ****** ****** ****** ****** ****** ****** ****** ****** ****** ******
  12  ****** ****** ****** ****** ****** ****** ****** ****** ****** ******
      ****** ****** ****** ****** ****** ****** ****** ****** ****** ******
      ****** ****** ****** ****** ****** ****** ****** ****** ****** ******
  13  ****** ****** ****** ****** ****** ****** ****** ****** ****** ******
      ****** ****** ****** ****** ****** ****** ****** ****** ****** ******
      ****** ****** ****** ****** ****** ****** ****** ****** ****** ******
  14  ****** ****** ****** ****** ****** ****** ****** ****** ****** ******
      ****** ****** ****** ****** ****** ****** ****** ****** ****** ******
      ****** ****** ****** ****** ****** ****** ****** ****** ****** ******
  15  ****** ****** ****** ****** ****** ****** ****** ****** ****** ******
      ****** ****** ****** ****** ****** ****** ****** ****** ****** ******
      ****** ****** ****** ****** ****** ****** ****** ****** ****** ******
  16  ****** ****** ****** ****** ****** ****** ****** ****** ****** ******
      ****** ****** ****** ****** ****** ****** ****** ****** ****** ******
      ****** ****** ****** ****** ****** ****** ****** ****** ****** ******
  17  ****** ****** ****** ****** ****** ****** ****** ****** ****** ******
      ****** ****** ****** ****** ****** ****** ****** ****** ****** ******
      ****** ****** ****** ****** ****** ****** ****** ****** ****** ******
  18  ****** ****** ****** ****** ****** ****** ****** ****** ****** ******
      ****** ****** ****** ****** ****** ****** ****** ****** ****** ******
      ****** ****** ****** ****** ****** ****** ****** ****** ****** ******
  19  ****** ****** ****** ****** ****** ****** ****** ****** ****** ******
      ****** ****** ****** ****** ****** ****** ****** ****** ****** ******
      ****** ****** ****** ****** ****** ****** ****** ****** ****** ******
  20  ****** ****** ****** ****** ****** ****** ****** ****** ****** ******
      ****** ****** ****** ****** ****** ****** ****** ****** ****** ******
      ****** ****** ****** ****** ****** ****** ****** ****** ****** ******
  21  ****** ****** ****** ****** ****** ****** ****** ****** ****** ******
      ****** ****** ****** ****** ****** ****** ****** ****** ****** ******
      ****** ****** ****** ****** ****** ****** ****** ****** ****** ******
  22  ****** ****** ****** ****** ****** ****** ****** ****** ****** ******
      ****** ****** ****** ****** ****** ****** ****** ****** ****** ******
      ****** ****** ****** ****** ****** ****** ****** ****** ****** ******
  23  ****** ****** ****** ****** ****** ****** ****** ****** ****** ******
      ****** ****** ****** ****** ****** ****** ****** ****** ****** ******
      ****** ****** ****** ****** ****** ****** ****** ****** ****** ******
  24  ****** ****** ****** ****** ****** ****** ****** ****** ****** ******
      ****** ****** ****** ****** ****** ****** ****** ****** ****** ******
      ****** ****** ****** ****** ****** ****** ****** ****** ****** ******
  25  ****** ****** ****** ****** ****** ****** ****** ****** ****** ******
      ****** ****** ****** ****** ****** ****** ****** ****** ****** ******
      ****** ****** ****** ****** ****** ****** ****** ****** ****** ******

 HEAD WILL BE SAVED ON UNIT   51 AT END OF TIME STEP    1, STRESS PERIOD    2
1
  VOLUMETRIC BUDGET FOR ENTIRE MODEL AT END OF TIME STEP    1, STRESS PERIOD   2
  ------------------------------------------------------------------------------

     CUMULATIVE VOLUMES      L**3       RATES FOR THIS TIME STEP      L**3/T
     ------------------                 ------------------------

           IN:                                      IN:
           ---                                      ---
             STORAGE =    22784633.8718               STORAGE =       54675.8623
       CONSTANT HEAD =     2683448.3010         CONSTANT HEAD =       16923.8581
               WELLS =           0.0000                 WELLS =           0.0000
            RECHARGE =     6292800.0000              RECHARGE =       55200.0000
      STREAM LEAKAGE =      878735.4784        STREAM LEAKAGE =        5661.8074

            TOTAL IN =    32639617.6512              TOTAL IN =      132461.5277

          OUT:                                     OUT:
          ----                                     ----
             STORAGE =           0.0000               STORAGE =           0.0000
       CONSTANT HEAD =           0.0000         CONSTANT HEAD =           0.0000
               WELLS =     5609834.2922                 WELLS =       30654.8322
            RECHARGE =           0.0000              RECHARGE =           0.0000
      STREAM LEAKAGE =    27029784.5521        STREAM LEAKAGE =      101806.7055

           TOTAL OUT =    32639618.8443             TOTAL OUT =      132461.5377

            IN - OUT =          -1.1931              IN - OUT =      -9.9458E-03

 PERCENT DISCREPANCY =          -0.00     PERCENT DISCREPANCY =          -0.00






         TIME SUMMARY AT END OF TIME STEP    1 IN STRESS PERIOD    2
                    SECONDS     MINUTES      HOURS       DAYS        YEARS
                    -----------------------------------------------------------
   TIME STEP LENGTH 7.86240E+06 1.31040E+05  2184.0      91.000     0.24914    
 STRESS PERIOD TIME 7.86240E+06 1.31040E+05  2184.0      91.000     0.24914    
         TOTAL TIME 1.58112E+07 2.63520E+05  4392.0      183.00     0.50103    
1
1
                            STRESS PERIOD NO.    3, LENGTH =   91.00000    
                            -----------------------------------------------

                              NUMBER OF TIME STEPS =     1

                               MULTIPLIER FOR DELT =     1.500

                            INITIAL TIME STEP SIZE =   91.00000    

 WELL NO.  LAYER   ROW   COL   STRESS RATE         
 --------------------------------------------------
      1      1     14      6       0.000    
      2      1      3      9       0.000    
      3      1     20     10       0.000    
      4      1     14     20       0.000    
      5      1     17     24      -1629.    
      6      1      9     25     -0.1155E+05
      7      1      8     20      -8674.    
      8      1     10     13      -8797.    

      8 WELLS

                 RECHARGE =   0.00000    

 REUSING STREAM SEGMENT DATA FROM LAST STRESS PERIOD
 
 SOLVING FOR HEAD 


     7 CALLS TO PCG ROUTINE FOR TIME STEP   1 IN STRESS PERIOD    3
    27 TOTAL ITERATIONS

 OUTPUT CONTROL FOR STRESS PERIOD    3   TIME STEP    1
    SAVE BUDGET
    SAVE HEAD FOR ALL LAYERS
    PRINT HEAD FOR ALL LAYERS
 UBDSV2 SAVING "STREAMFLOW OUT  " ON UNIT  50 AT TIME STEP  1, STRESS PERIOD   3



 STREAM LISTING     PERIOD      3   STEP        1

 LAYER ROW COL. STREAM  RCH.  FLOW INTO     FLOW TO   FLOW OUT OF   OVRLND.     DIRECT     STREAM       STREAM     STREAM     STREAM   STREAMBED  STREAMBED
                SEG.NO.  NO.  STRM. RCH.    AQUIFER    STRM. RCH.    RUNOFF     PRECIP       ET          HEAD       DEPTH      WIDTH   CONDCTNC.   GRADIENT

   1   13    1     1     1    1.0000E+05 -2.6951E+03   1.0270E+05  0.000E+00  0.000E+00  0.000E+00  4.84072E+01  1.458E-01  2.000E+01  2.000E+04 -1.348E-01
   1   13    2     1     2    1.0270E+05 -3.7979E+03   1.0649E+05  0.000E+00  0.000E+00  0.000E+00  4.79327E+01  1.486E-01  2.000E+01  2.000E+04 -1.899E-01
   1   14    3     1     3    1.0649E+05 -6.4994E+02   1.0714E+05  0.000E+00  0.000E+00  0.000E+00  4.74573E+01  1.505E-01  2.000E+01  2.000E+04 -3.250E-02
   1   15    4     1     4    1.0714E+05 -6.3538E+02   1.0778E+05  0.000E+00  0.000E+00  0.000E+00  4.69806E+01  1.510E-01  2.000E+01  2.000E+04 -3.177E-02
   1   16    5     1     5    1.0778E+05 -2.4664E+03   1.1024E+05  0.000E+00  0.000E+00  0.000E+00  4.65046E+01  1.523E-01  2.000E+01  2.000E+04 -1.233E-01
   1   16    6     1     6    1.1024E+05 -1.5062E+03   1.1175E+05  0.000E+00  0.000E+00  0.000E+00  4.60290E+01  1.540E-01  2.000E+01  2.000E+04 -7.531E-02
   1   16    7     1     7    1.1175E+05 -1.4678E+03   1.1322E+05  0.000E+00  0.000E+00  0.000E+00  4.55530E+01  1.552E-01  2.000E+01  2.000E+04 -7.339E-02
   1   16    8     1     8    1.1322E+05 -1.4536E+03   1.1467E+05  0.000E+00  0.000E+00  0.000E+00  4.50769E+01  1.564E-01  2.000E+01  2.000E+04 -7.268E-02
   1   16    9     1     9    1.1467E+05 -1.4330E+03   1.1611E+05  0.000E+00  0.000E+00  0.000E+00  4.46008E+01  1.576E-01  2.000E+01  2.000E+04 -7.165E-02
   1   16   10     1    10    1.1611E+05 -1.4036E+03   1.1751E+05  0.000E+00  0.000E+00  0.000E+00  4.41247E+01  1.588E-01  2.000E+01  2.000E+04 -7.018E-02
   1   16   11     1    11    1.1751E+05 -1.3957E+03   1.1890E+05  0.000E+00  0.000E+00  0.000E+00  4.36486E+01  1.599E-01  2.000E+01  2.000E+04 -6.978E-02
   1   16   12     1    12    1.1890E+05 -2.3427E+03   1.2125E+05  0.000E+00  0.000E+00  0.000E+00  4.31728E+01  1.614E-01  2.000E+01  2.000E+04 -1.171E-01
   1   15   13     1    13    1.2125E+05 -1.8619E+03   1.2311E+05  0.000E+00  0.000E+00  0.000E+00  4.26972E+01  1.631E-01  2.000E+01  2.000E+04 -9.309E-02
   1   14   14     1    14    1.2311E+05 -1.7794E+03   1.2489E+05  0.000E+00  0.000E+00  0.000E+00  4.22214E+01  1.646E-01  2.000E+01  2.000E+04 -8.897E-02
   1   13   15     1    15    1.2489E+05 -1.7734E+03   1.2666E+05  0.000E+00  0.000E+00  0.000E+00  4.17455E+01  1.660E-01  2.000E+01  2.000E+04 -8.867E-02
   1   12   16     1    16    1.2666E+05 -2.1367E+03   1.2880E+05  0.000E+00  0.000E+00  0.000E+00  4.12698E+01  1.675E-01  2.000E+01  2.000E+04 -1.068E-01
   1   12   17     1    17    1.2880E+05 -1.6142E+03   1.3041E+05  0.000E+00  0.000E+00  0.000E+00  4.07940E+01  1.690E-01  2.000E+01  2.000E+04 -8.071E-02
   1   12   18     1    18    1.3041E+05 -1.4848E+03   1.3190E+05  0.000E+00  0.000E+00  0.000E+00  4.03179E+01  1.702E-01  2.000E+01  2.000E+04 -7.424E-02
   1   12   19     1    19    1.3190E+05 -1.5888E+03   1.3349E+05  0.000E+00  0.000E+00  0.000E+00  3.98419E+01  1.714E-01  2.000E+01  2.000E+04 -7.944E-02
   1   13   20     1    20    1.3349E+05 -1.5774E+03   1.3506E+05  0.000E+00  0.000E+00  0.000E+00  3.93658E+01  1.726E-01  2.000E+01  2.000E+04 -7.887E-02
   1   14   21     1    21    1.3506E+05 -1.9533E+03   1.3702E+05  0.000E+00  0.000E+00  0.000E+00  3.88899E+01  1.740E-01  2.000E+01  2.000E+04 -9.767E-02
   1   14   22     1    22    1.3702E+05  4.9586E+03   1.3206E+05  0.000E+00  0.000E+00  0.000E+00  3.84115E+01  1.728E-01  2.000E+01  2.000E+04  2.479E-01
   1    9   30     2     1    5.0000E+04 -6.1109E+02   5.0611E+04  0.000E+00  0.000E+00  0.000E+00  4.02413E+01  1.163E-01  2.000E+01  2.000E+04 -3.055E-02
   1    9   29     2     2    5.0611E+04 -8.5441E+02   5.1465E+04  0.000E+00  0.000E+00  0.000E+00  3.99923E+01  1.173E-01  2.000E+01  2.000E+04 -4.272E-02
   1    9   28     2     3    5.1465E+04 -9.3091E+02   5.2396E+04  0.000E+00  0.000E+00  0.000E+00  3.97435E+01  1.185E-01  2.000E+01  2.000E+04 -4.655E-02
   1    9   27     2     4    5.2396E+04 -4.2709E+02   5.2823E+04  0.000E+00  0.000E+00  0.000E+00  3.94945E+01  1.195E-01  2.000E+01  2.000E+04 -2.135E-02
   1   10   26     2     5    5.2823E+04  1.4488E+03   5.1375E+04  0.000E+00  0.000E+00  0.000E+00  3.92438E+01  1.188E-01  2.000E+01  2.000E+04  7.244E-02
   1   11   25     2     6    5.1375E+04  7.3067E+02   5.0644E+04  0.000E+00  0.000E+00  0.000E+00  3.89923E+01  1.173E-01  2.000E+01  2.000E+04  3.653E-02
   1   12   24     2     7    5.0644E+04 -4.9719E+02   5.1141E+04  0.000E+00  0.000E+00  0.000E+00  3.87421E+01  1.171E-01  2.000E+01  2.000E+04 -2.486E-02
   1   13   23     2     8    5.1141E+04 -1.0861E+02   5.1250E+04  0.000E+00  0.000E+00  0.000E+00  3.84925E+01  1.175E-01  2.000E+01  2.000E+04 -5.431E-03
   1   14   22     2     9    5.1250E+04  1.5596E+03   4.9690E+04  0.000E+00  0.000E+00  0.000E+00  3.82415E+01  1.165E-01  2.000E+01  2.000E+04  7.798E-02
   1   14   22     3     1    1.8175E+05 -8.6750E+03   1.9042E+05  0.000E+00  0.000E+00  0.000E+00  3.77298E+01  1.742E-01  2.000E+01  2.000E+04 -4.338E-01
   1   15   23     3     2    1.9042E+05 -5.5833E+02   1.9098E+05  0.000E+00  0.000E+00  0.000E+00  3.68435E+01  1.768E-01  2.000E+01  2.000E+04 -2.792E-02
   1   15   24     3     3    1.9098E+05 -1.3663E+02   1.9112E+05  0.000E+00  0.000E+00  0.000E+00  3.59548E+01  1.770E-01  2.000E+01  2.000E+04 -6.831E-03
   1   15   25     3     4    1.9112E+05 -2.0605E+02   1.9132E+05  0.000E+00  0.000E+00  0.000E+00  3.50660E+01  1.771E-01  2.000E+01  2.000E+04 -1.030E-02
   1   15   26     3     5    1.9132E+05 -3.1201E+02   1.9164E+05  0.000E+00  0.000E+00  0.000E+00  3.41772E+01  1.772E-01  2.000E+01  2.000E+04 -1.560E-02
   1   16   27     3     6    1.9164E+05 -3.5142E+02   1.9199E+05  0.000E+00  0.000E+00  0.000E+00  3.32885E+01  1.774E-01  2.000E+01  2.000E+04 -1.757E-02
   1   17   28     3     7    1.9199E+05 -1.7643E+03   1.9375E+05  0.000E+00  0.000E+00  0.000E+00  3.24002E+01  1.780E-01  2.000E+01  2.000E+04 -8.822E-02
   1   18   29     3     8    1.9375E+05 -3.4720E+03   1.9722E+05  0.000E+00  0.000E+00  0.000E+00  3.15128E+01  1.795E-01  2.000E+01  2.000E+04 -1.736E-01
   1   18   30     3     9    1.9722E+05 -3.5174E+03   2.0074E+05  0.000E+00  0.000E+00  0.000E+00  3.06258E+01  1.814E-01  2.000E+01  2.000E+04 -1.759E-01



1
              HEAD IN LAYER   1 AT END OF TIME STEP   1 IN STRESS PERIOD    3
  ---------------------------------------------------------------------------

          1      2      3      4      5      6      7      8      9     10
         11     12     13     14     15     16     17     18     19     20
         21     22     23     24     25     26     27     28     29     30
 .........................................................................
   1  ****** ****** ****** ****** ****** ****** ****** ****** ****** ******
      ****** ****** ****** ****** ****** ****** ****** ****** ****** ******
      ****** ****** ****** ****** ****** ****** ****** ****** ****** ******
   2  ****** ****** ****** ****** ****** ****** ****** ****** ****** ******
      ****** ****** ****** ****** ****** ****** ****** ****** ****** ******
      ****** ****** ****** ****** ****** ****** ****** ****** ****** ******
   3  ****** ****** ****** ****** ****** ****** ****** ****** ****** ******
      ****** ****** ****** ****** ****** ****** ****** ****** ****** ******
      ****** ****** ****** ****** ****** ****** ****** ****** ****** ******
   4  ****** ****** ****** ****** ****** ****** ****** ****** ****** ******
      ****** ****** ****** ****** ****** ****** ****** ****** ****** ******
      ****** ****** ****** ****** ****** ****** ****** ****** ****** ******
   5  ****** ****** ****** ****** ****** ****** ****** ****** ****** ******
      ****** ****** ****** ****** ****** ****** ****** ****** ****** ******
      ****** ****** ****** ****** ****** ****** ****** ****** ****** ******
   6  ****** ****** ****** ****** ****** ****** ****** ****** ****** ******
      ****** ****** ****** ****** ****** ****** ****** ****** ****** ******
      ****** ****** ****** ****** ****** ****** ****** ****** ****** ******
   7  ****** ****** ****** ****** ****** ****** ****** ****** ****** ******
      ****** ****** ****** ****** ****** ****** ****** ****** ****** ******
      ****** ****** ****** ****** ****** ****** ****** ****** ****** ******
   8  ****** ****** ****** ****** ****** ****** ****** ****** ****** ******
      ****** ****** ****** ****** ****** ****** ****** ****** ****** ******
      ****** ****** ****** ****** ****** ****** ****** ****** ****** ******
   9  ****** ****** ****** ****** ****** ****** ****** ****** ****** ******
      ****** ****** ****** ****** ****** ****** ****** ****** ****** ******
      ****** ****** ****** ****** ****** ****** ****** ****** ****** ******
  10  ****** ****** ****** ****** ****** ****** ****** ****** ****** ******
      ****** ****** ****** ****** ****** ****** ****** ****** ****** ******
      ****** ****** ****** ****** ****** ****** ****** ****** ****** ******
  11  ****** ****** ****** ****** ****** ****** ****** ****** ****** ******
      ****** ****** ****** ****** ****** ****** ****** ****** ****** ******
      ****** ****** ****** ****** ****** ****** ****** ****** ****** ******
  12  ****** ****** ****** ****** ****** ****** ****** ****** ****** ******
      ****** ****** ****** ****** ****** ****** ****** ****** ****** ******
      ****** ****** ****** ****** ****** ****** ****** ****** ****** ******
  13  ****** ****** ****** ****** ****** ****** ****** ****** ****** ******
      ****** ****** ****** ****** ****** ****** ****** ****** ****** ******
      ****** ****** ****** ****** ****** ****** ****** ****** ****** ******
  14  ****** ****** ****** ****** ****** ****** ****** ****** ****** ******
      ****** ****** ****** ****** ****** ****** ****** ****** ****** ******
      ****** ****** ****** ****** ****** ****** ****** ****** ****** ******
  15  ****** ****** ****** ****** ****** ****** ****** ****** ****** ******
      ****** ****** ****** ****** ****** ****** ****** ****** ****** ******
      ****** ****** ****** ****** ****** ****** ****** ****** ****** ******
  16  ****** ****** ****** ****** ****** ****** ****** ****** ****** ******
      ****** ****** ****** ****** ****** ****** ****** ****** ****** ******
      ****** ****** ****** ****** ****** ****** ****** ****** ****** ******
  17  ****** ****** ****** ****** ****** ****** ****** ****** ****** ******
      ****** ****** ****** ****** ****** ****** ****** ****** ****** ******
      ****** ****** ****** ****** ****** ****** ****** ****** ****** ******
  18  ****** ****** ****** ****** ****** ****** ****** ****** ****** ******
      ****** ****** ****** ****** ****** ****** ****** ****** ****** ******
      ****** ****** ****** ****** ****** ****** ****** ****** ****** ******
  19  ****** ****** ****** ****** ****** ****** ****** ****** ****** ******
      ****** ****** ****** ****** ****** ****** ****** ****** ****** ******
      ****** ****** ****** ****** ****** ****** ****** ****** ****** ******
  20  ****** ****** ****** ****** ****** ****** ****** ****** ****** ******
      ****** ****** ****** ****** ****** ****** ****** ****** ****** ******
      ****** ****** ****** ****** ****** ****** ****** ****** ****** ******
  21  ****** ****** ****** ****** ****** ****** ****** ****** ****** ******
      ****** ****** ****** ****** ****** ****** ****** ****** ****** ******
      ****** ****** ****** ****** ****** ****** ****** ****** ****** ******
  22  ****** ****** ****** ****** ****** ****** ****** ****** ****** ******
      ****** ****** ****** ****** ****** ****** ****** ****** ****** ******
      ****** ****** ****** ****** ****** ****** ****** ****** ****** ******
  23  ****** ****** ****** ****** ****** ****** ****** ****** ****** ******
      ****** ****** ****** ****** ****** ****** ****** ****** ****** ******
      ****** ****** ****** ****** ****** ****** ****** ****** ****** ******
  24  ****** ****** ****** ****** ****** ****** ****** ****** ****** ******
      ****** ****** ****** ****** ****** ****** ****** ****** ****** ******
      ****** ****** ****** ****** ****** ****** ****** ****** ****** ******
  25  ****** ****** ****** ****** ****** ****** ****** ****** ****** ******
      ****** ****** ****** ****** ****** ****** ****** ****** ****** ******
      ****** ****** ****** ****** ****** ****** ****** ****** ****** ******

 HEAD WILL BE SAVED ON UNIT   51 AT END OF TIME STEP    1, STRESS PERIOD    3
1
  VOLUMETRIC BUDGET FOR ENTIRE MODEL AT END OF TIME STEP    1, STRESS PERIOD   3
  ------------------------------------------------------------------------------

     CUMULATIVE VOLUMES      L**3       RATES FOR THIS TIME STEP      L**3/T
     ------------------                 ------------------------

           IN:                                      IN:
           ---                                      ---
             STORAGE =    27869444.8288               STORAGE =       55877.0435
       CONSTANT HEAD =     5005758.2155         CONSTANT HEAD =       25519.8892
               WELLS =           0.0000                 WELLS =           0.0000
            RECHARGE =     6292800.0000              RECHARGE =           0.0000
      STREAM LEAKAGE =     1670221.8819        STREAM LEAKAGE =        8697.6528

            TOTAL IN =    40838224.9261              TOTAL IN =       90094.5854

          OUT:                                     OUT:
          ----                                     ----
             STORAGE =           0.0000               STORAGE =           0.0000
       CONSTANT HEAD =           0.0000         CONSTANT HEAD =           0.0000
               WELLS =     8399424.0221                 WELLS =       30654.8322
            RECHARGE =           0.0000              RECHARGE =           0.0000
      STREAM LEAKAGE =    32438802.7758        STREAM LEAKAGE =       59439.7607

           TOTAL OUT =    40838226.7979             TOTAL OUT =       90094.5929

            IN - OUT =          -1.8718              IN - OUT =      -7.4582E-03

 PERCENT DISCREPANCY =          -0.00     PERCENT DISCREPANCY =          -0.00






         TIME SUMMARY AT END OF TIME STEP    1 IN STRESS PERIOD    3
                    SECONDS     MINUTES      HOURS       DAYS        YEARS
                    -----------------------------------------------------------
   TIME STEP LENGTH 7.86240E+06 1.31040E+05  2184.0      91.000     0.24914    
 STRESS PERIOD TIME 7.86240E+06 1.31040E+05  2184.0      91.000     0.24914    
         TOTAL TIME 2.36736E+07 3.94560E+05  6576.0      274.00     0.75017    
1
1
                            STRESS PERIOD NO.    4, LENGTH =   91.00000    
                            -----------------------------------------------

                              NUMBER OF TIME STEPS =     1

                               MULTIPLIER FOR DELT =     1.500

                            INITIAL TIME STEP SIZE =   91.00000    

 WELL NO.  LAYER   ROW   COL   STRESS RATE         
 --------------------------------------------------
      1      1     14      6       0.000    
      2      1      3      9       0.000    
      3      1     20     10       0.000    
      4      1     14     20       0.000    
      5      1     17     24      -1629.    
      6      1      9     25     -0.1155E+05
      7      1      8     20      -8674.    
      8      1     10     13      -8797.    

      8 WELLS

                 RECHARGE =  1.000000E-03

 REUSING STREAM SEGMENT DATA FROM LAST STRESS PERIOD
 
 SOLVING FOR HEAD 


     6 CALLS TO PCG ROUTINE FOR TIME STEP   1 IN STRESS PERIOD    4
    23 TOTAL ITERATIONS

 OUTPUT CONTROL FOR STRESS PERIOD    4   TIME STEP    1
    SAVE BUDGET
    SAVE HEAD FOR ALL LAYERS
    PRINT HEAD FOR ALL LAYERS
 UBDSV2 SAVING "STREAMFLOW OUT  " ON UNIT  50 AT TIME STEP  1, STRESS PERIOD   4



 STREAM LISTING     PERIOD      4   STEP        1

 LAYER ROW COL. STREAM  RCH.  FLOW INTO     FLOW TO   FLOW OUT OF   OVRLND.     DIRECT     STREAM       STREAM     STREAM     STREAM   STREAMBED  STREAMBED
                SEG.NO.  NO.  STRM. RCH.    AQUIFER    STRM. RCH.    RUNOFF     PRECIP       ET          HEAD       DEPTH      WIDTH   CONDCTNC.   GRADIENT

   1   13    1     1     1    1.0000E+05 -2.4386E+03   1.0244E+05  0.000E+00  0.000E+00  0.000E+00  4.84071E+01  1.457E-01  2.000E+01  2.000E+04 -1.219E-01
   1   13    2     1     2    1.0244E+05 -3.5002E+03   1.0594E+05  0.000E+00  0.000E+00  0.000E+00  4.79323E+01  1.483E-01  2.000E+01  2.000E+04 -1.750E-01
   1   14    3     1     3    1.0594E+05 -6.1897E+02   1.0656E+05  0.000E+00  0.000E+00  0.000E+00  4.74568E+01  1.500E-01  2.000E+01  2.000E+04 -3.095E-02
   1   15    4     1     4    1.0656E+05 -5.9545E+02   1.0715E+05  0.000E+00  0.000E+00  0.000E+00  4.69801E+01  1.505E-01  2.000E+01  2.000E+04 -2.977E-02
   1   16    5     1     5    1.0715E+05 -2.1690E+03   1.0932E+05  0.000E+00  0.000E+00  0.000E+00  4.65040E+01  1.517E-01  2.000E+01  2.000E+04 -1.084E-01
   1   16    6     1     6    1.0932E+05 -1.3590E+03   1.1068E+05  0.000E+00  0.000E+00  0.000E+00  4.60282E+01  1.532E-01  2.000E+01  2.000E+04 -6.795E-02
   1   16    7     1     7    1.1068E+05 -1.3313E+03   1.1201E+05  0.000E+00  0.000E+00  0.000E+00  4.55520E+01  1.543E-01  2.000E+01  2.000E+04 -6.656E-02
   1   16    8     1     8    1.1201E+05 -1.3210E+03   1.1333E+05  0.000E+00  0.000E+00  0.000E+00  4.50758E+01  1.554E-01  2.000E+01  2.000E+04 -6.605E-02
   1   16    9     1     9    1.1333E+05 -1.3034E+03   1.1464E+05  0.000E+00  0.000E+00  0.000E+00  4.45997E+01  1.565E-01  2.000E+01  2.000E+04 -6.517E-02
   1   16   10     1    10    1.1464E+05 -1.2785E+03   1.1592E+05  0.000E+00  0.000E+00  0.000E+00  4.41234E+01  1.575E-01  2.000E+01  2.000E+04 -6.393E-02
   1   16   11     1    11    1.1592E+05 -1.2728E+03   1.1719E+05  0.000E+00  0.000E+00  0.000E+00  4.36472E+01  1.586E-01  2.000E+01  2.000E+04 -6.364E-02
   1   16   12     1    12    1.1719E+05 -2.0810E+03   1.1927E+05  0.000E+00  0.000E+00  0.000E+00  4.31713E+01  1.599E-01  2.000E+01  2.000E+04 -1.041E-01
   1   15   13     1    13    1.1927E+05 -1.6000E+03   1.2087E+05  0.000E+00  0.000E+00  0.000E+00  4.26955E+01  1.614E-01  2.000E+01  2.000E+04 -8.000E-02
   1   14   14     1    14    1.2087E+05 -1.4814E+03   1.2235E+05  0.000E+00  0.000E+00  0.000E+00  4.22195E+01  1.627E-01  2.000E+01  2.000E+04 -7.407E-02
   1   13   15     1    15    1.2235E+05 -1.4366E+03   1.2379E+05  0.000E+00  0.000E+00  0.000E+00  4.17434E+01  1.638E-01  2.000E+01  2.000E+04 -7.183E-02
   1   12   16     1    16    1.2379E+05 -1.6761E+03   1.2546E+05  0.000E+00  0.000E+00  0.000E+00  4.12674E+01  1.651E-01  2.000E+01  2.000E+04 -8.380E-02
   1   12   17     1    17    1.2546E+05 -1.3432E+03   1.2681E+05  0.000E+00  0.000E+00  0.000E+00  4.07913E+01  1.663E-01  2.000E+01  2.000E+04 -6.716E-02
   1   12   18     1    18    1.2681E+05 -1.2336E+03   1.2804E+05  0.000E+00  0.000E+00  0.000E+00  4.03150E+01  1.673E-01  2.000E+01  2.000E+04 -6.168E-02
   1   12   19     1    19    1.2804E+05 -1.2697E+03   1.2931E+05  0.000E+00  0.000E+00  0.000E+00  3.98387E+01  1.683E-01  2.000E+01  2.000E+04 -6.348E-02
   1   13   20     1    20    1.2931E+05 -1.3886E+03   1.3070E+05  0.000E+00  0.000E+00  0.000E+00  3.93625E+01  1.693E-01  2.000E+01  2.000E+04 -6.943E-02
   1   14   21     1    21    1.3070E+05 -1.7259E+03   1.3242E+05  0.000E+00  0.000E+00  0.000E+00  3.88864E+01  1.705E-01  2.000E+01  2.000E+04 -8.630E-02
   1   14   22     1    22    1.3242E+05  4.9965E+03   1.2743E+05  0.000E+00  0.000E+00  0.000E+00  3.84079E+01  1.693E-01  2.000E+01  2.000E+04  2.498E-01
   1    9   30     2     1    5.0000E+04 -4.9983E+02   5.0500E+04  0.000E+00  0.000E+00  0.000E+00  4.02412E+01  1.162E-01  2.000E+01  2.000E+04 -2.499E-02
   1    9   29     2     2    5.0500E+04 -7.3460E+02   5.1234E+04  0.000E+00  0.000E+00  0.000E+00  3.99921E+01  1.171E-01  2.000E+01  2.000E+04 -3.673E-02
   1    9   28     2     3    5.1234E+04 -7.8675E+02   5.2021E+04  0.000E+00  0.000E+00  0.000E+00  3.97431E+01  1.181E-01  2.000E+01  2.000E+04 -3.934E-02
   1    9   27     2     4    5.2021E+04 -1.0399E+02   5.2125E+04  0.000E+00  0.000E+00  0.000E+00  3.94937E+01  1.187E-01  2.000E+01  2.000E+04 -5.199E-03
   1   10   26     2     5    5.2125E+04  1.6483E+03   5.0477E+04  0.000E+00  0.000E+00  0.000E+00  3.92427E+01  1.177E-01  2.000E+01  2.000E+04  8.241E-02
   1   11   25     2     6    5.0477E+04  8.8514E+02   4.9592E+04  0.000E+00  0.000E+00  0.000E+00  3.89909E+01  1.159E-01  2.000E+01  2.000E+04  4.426E-02
   1   12   24     2     7    4.9592E+04 -3.6187E+02   4.9954E+04  0.000E+00  0.000E+00  0.000E+00  3.87405E+01  1.155E-01  2.000E+01  2.000E+04 -1.809E-02
   1   13   23     2     8    4.9954E+04 -1.2860E+02   5.0082E+04  0.000E+00  0.000E+00  0.000E+00  3.84909E+01  1.159E-01  2.000E+01  2.000E+04 -6.430E-03
   1   14   22     2     9    5.0082E+04  1.6355E+03   4.8447E+04  0.000E+00  0.000E+00  0.000E+00  3.82398E+01  1.148E-01  2.000E+01  2.000E+04  8.177E-02
   1   14   22     3     1    1.7587E+05 -8.6322E+03   1.8451E+05  0.000E+00  0.000E+00  0.000E+00  3.77265E+01  1.709E-01  2.000E+01  2.000E+04 -4.316E-01
   1   15   23     3     2    1.8451E+05 -5.3465E+02   1.8504E+05  0.000E+00  0.000E+00  0.000E+00  3.68402E+01  1.735E-01  2.000E+01  2.000E+04 -2.673E-02
   1   15   24     3     3    1.8504E+05 -1.3233E+02   1.8517E+05  0.000E+00  0.000E+00  0.000E+00  3.59515E+01  1.737E-01  2.000E+01  2.000E+04 -6.616E-03
   1   15   25     3     4    1.8517E+05 -2.0136E+02   1.8538E+05  0.000E+00  0.000E+00  0.000E+00  3.50627E+01  1.738E-01  2.000E+01  2.000E+04 -1.007E-02
   1   15   26     3     5    1.8538E+05 -3.1858E+02   1.8569E+05  0.000E+00  0.000E+00  0.000E+00  3.41739E+01  1.739E-01  2.000E+01  2.000E+04 -1.593E-02
   1   16   27     3     6    1.8569E+05 -3.4801E+02   1.8604E+05  0.000E+00  0.000E+00  0.000E+00  3.32852E+01  1.741E-01  2.000E+01  2.000E+04 -1.740E-02
   1   17   28     3     7    1.8604E+05 -1.6987E+03   1.8774E+05  0.000E+00  0.000E+00  0.000E+00  3.23969E+01  1.747E-01  2.000E+01  2.000E+04 -8.493E-02
   1   18   29     3     8    1.8774E+05 -3.2568E+03   1.9100E+05  0.000E+00  0.000E+00  0.000E+00  3.15094E+01  1.761E-01  2.000E+01  2.000E+04 -1.628E-01
   1   18   30     3     9    1.9100E+05 -3.4116E+03   1.9441E+05  0.000E+00  0.000E+00  0.000E+00  3.06224E+01  1.779E-01  2.000E+01  2.000E+04 -1.706E-01



1
              HEAD IN LAYER   1 AT END OF TIME STEP   1 IN STRESS PERIOD    4
  ---------------------------------------------------------------------------

          1      2      3      4      5      6      7      8      9     10
         11     12     13     14     15     16     17     18     19     20
         21     22     23     24     25     26     27     28     29     30
 .........................................................................
   1  ****** ****** ****** ****** ****** ****** ****** ****** ****** ******
      ****** ****** ****** ****** ****** ****** ****** ****** ****** ******
      ****** ****** ****** ****** ****** ****** ****** ****** ****** ******
   2  ****** ****** ****** ****** ****** ****** ****** ****** ****** ******
      ****** ****** ****** ****** ****** ****** ****** ****** ****** ******
      ****** ****** ****** ****** ****** ****** ****** ****** ****** ******
   3  ****** ****** ****** ****** ****** ****** ****** ****** ****** ******
      ****** ****** ****** ****** ****** ****** ****** ****** ****** ******
      ****** ****** ****** ****** ****** ****** ****** ****** ****** ******
   4  ****** ****** ****** ****** ****** ****** ****** ****** ****** ******
      ****** ****** ****** ****** ****** ****** ****** ****** ****** ******
      ****** ****** ****** ****** ****** ****** ****** ****** ****** ******
   5  ****** ****** ****** ****** ****** ****** ****** ****** ****** ******
      ****** ****** ****** ****** ****** ****** ****** ****** ****** ******
      ****** ****** ****** ****** ****** ****** ****** ****** ****** ******
   6  ****** ****** ****** ****** ****** ****** ****** ****** ****** ******
      ****** ****** ****** ****** ****** ****** ****** ****** ****** ******
      ****** ****** ****** ****** ****** ****** ****** ****** ****** ******
   7  ****** ****** ****** ****** ****** ****** ****** ****** ****** ******
      ****** ****** ****** ****** ****** ****** ****** ****** ****** ******
      ****** ****** ****** ****** ****** ****** ****** ****** ****** ******
   8  ****** ****** ****** ****** ****** ****** ****** ****** ****** ******
      ****** ****** ****** ****** ****** ****** ****** ****** ****** ******
      ****** ****** ****** ****** ****** ****** ****** ****** ****** ******
   9  ****** ****** ****** ****** ****** ****** ****** ****** ****** ******
      ****** ****** ****** ****** ****** ****** ****** ****** ****** ******
      ****** ****** ****** ****** ****** ****** ****** ****** ****** ******
  10  ****** ****** ****** ****** ****** ****** ****** ****** ****** ******
      ****** ****** ****** ****** ****** ****** ****** ****** ****** ******
      ****** ****** ****** ****** ****** ****** ****** ****** ****** ******
  11  ****** ****** ****** ****** ****** ****** ****** ****** ****** ******
      ****** ****** ****** ****** ****** ****** ****** ****** ****** ******
      ****** ****** ****** ****** ****** ****** ****** ****** ****** ******
  12  ****** ****** ****** ****** ****** ****** ****** ****** ****** ******
      ****** ****** ****** ****** ****** ****** ****** ****** ****** ******
      ****** ****** ****** ****** ****** ****** ****** ****** ****** ******
  13  ****** ****** ****** ****** ****** ****** ****** ****** ****** ******
      ****** ****** ****** ****** ****** ****** ****** ****** ****** ******
      ****** ****** ****** ****** ****** ****** ****** ****** ****** ******
  14  ****** ****** ****** ****** ****** ****** ****** ****** ****** ******
      ****** ****** ****** ****** ****** ****** ****** ****** ****** ******
      ****** ****** ****** ****** ****** ****** ****** ****** ****** ******
  15  ****** ****** ****** ****** ****** ****** ****** ****** ****** ******
      ****** ****** ****** ****** ****** ****** ****** ****** ****** ******
      ****** ****** ****** ****** ****** ****** ****** ****** ****** ******
  16  ****** ****** ****** ****** ****** ****** ****** ****** ****** ******
      ****** ****** ****** ****** ****** ****** ****** ****** ****** ******
      ****** ****** ****** ****** ****** ****** ****** ****** ****** ******
  17  ****** ****** ****** ****** ****** ****** ****** ****** ****** ******
      ****** ****** ****** ****** ****** ****** ****** ****** ****** ******
      ****** ****** ****** ****** ****** ****** ****** ****** ****** ******
  18  ****** ****** ****** ****** ****** ****** ****** ****** ****** ******
      ****** ****** ****** ****** ****** ****** ****** ****** ****** ******
      ****** ****** ****** ****** ****** ****** ****** ****** ****** ******
  19  ****** ****** ****** ****** ****** ****** ****** ****** ****** ******
      ****** ****** ****** ****** ****** ****** ****** ****** ****** ******
      ****** ****** ****** ****** ****** ****** ****** ****** ****** ******
  20  ****** ****** ****** ****** ****** ****** ****** ****** ****** ******
      ****** ****** ****** ****** ****** ****** ****** ****** ****** ******
      ****** ****** ****** ****** ****** ****** ****** ****** ****** ******
  21  ****** ****** ****** ****** ****** ****** ****** ****** ****** ******
      ****** ****** ****** ****** ****** ****** ****** ****** ****** ******
      ****** ****** ****** ****** ****** ****** ****** ****** ****** ******
  22  ****** ****** ****** ****** ****** ****** ****** ****** ****** ******
      ****** ****** ****** ****** ****** ****** ****** ****** ****** ******
      ****** ****** ****** ****** ****** ****** ****** ****** ****** ******
  23  ****** ****** ****** ****** ****** ****** ****** ****** ****** ******
      ****** ****** ****** ****** ****** ****** ****** ****** ****** ******
      ****** ****** ****** ****** ****** ****** ****** ****** ****** ******
  24  ****** ****** ****** ****** ****** ****** ****** ****** ****** ******
      ****** ****** ****** ****** ****** ****** ****** ****** ****** ******
      ****** ****** ****** ****** ****** ****** ****** ****** ****** ******
  25  ****** ****** ****** ****** ****** ****** ****** ****** ****** ******
      ****** ****** ****** ****** ****** ****** ****** ****** ****** ******
      ****** ****** ****** ****** ****** ****** ****** ****** ****** ******

 HEAD WILL BE SAVED ON UNIT   51 AT END OF TIME STEP    1, STRESS PERIOD    4
1
  VOLUMETRIC BUDGET FOR ENTIRE MODEL AT END OF TIME STEP    1, STRESS PERIOD   4
  ------------------------------------------------------------------------------

     CUMULATIVE VOLUMES      L**3       RATES FOR THIS TIME STEP      L**3/T
     ------------------                 ------------------------

           IN:                                      IN:
           ---                                      ---
             STORAGE =    29624745.9600               STORAGE =       19289.0234
       CONSTANT HEAD =     7570798.8288         CONSTANT HEAD =       28187.2595
               WELLS =           0.0000                 WELLS =           0.0000
            RECHARGE =     8804400.0000              RECHARGE =       27600.0000
      STREAM LEAKAGE =     2504271.1541        STREAM LEAKAGE =        9165.3766

            TOTAL IN =    48504215.9429              TOTAL IN =       84241.6595

          OUT:                                     OUT:
          ----                                     ----
             STORAGE =        1147.5133               STORAGE =          12.6100
       CONSTANT HEAD =           0.0000         CONSTANT HEAD =           0.0000
               WELLS =    11189013.7521                 WELLS =       30654.8322
            RECHARGE =           0.0000              RECHARGE =           0.0000
      STREAM LEAKAGE =    37314056.6241        STREAM LEAKAGE =       53574.2181

           TOTAL OUT =    48504217.8895             TOTAL OUT =       84241.6603

            IN - OUT =          -1.9466              IN - OUT =      -8.2176E-04

 PERCENT DISCREPANCY =          -0.00     PERCENT DISCREPANCY =          -0.00






         TIME SUMMARY AT END OF TIME STEP    1 IN STRESS PERIOD    4
                    SECONDS     MINUTES      HOURS       DAYS        YEARS
                    -----------------------------------------------------------
   TIME STEP LENGTH 7.86240E+06 1.31040E+05  2184.0      91.000     0.24914    
 STRESS PERIOD TIME 7.86240E+06 1.31040E+05  2184.0      91.000     0.24914    
         TOTAL TIME 3.15360E+07 5.25600E+05  8760.0      365.00     0.99932    
1
1
                            STRESS PERIOD NO.    5, LENGTH =   92.00000    
                            -----------------------------------------------

                              NUMBER OF TIME STEPS =     1

                               MULTIPLIER FOR DELT =     1.500

                            INITIAL TIME STEP SIZE =   92.00000    

 WELL NO.  LAYER   ROW   COL   STRESS RATE         
 --------------------------------------------------
      1      1     14      6       0.000    
      2      1      3      9       0.000    
      3      1     20     10       0.000    
      4      1     14     20       0.000    
      5      1     17     24      -1629.    
      6      1      9     25     -0.1155E+05
      7      1      8     20      -8674.    
      8      1     10     13      -8797.    

      8 WELLS

                 RECHARGE =  5.000000E-04

 REUSING STREAM SEGMENT DATA FROM LAST STRESS PERIOD
 
 SOLVING FOR HEAD 


     7 CALLS TO PCG ROUTINE FOR TIME STEP   1 IN STRESS PERIOD    5
    26 TOTAL ITERATIONS

 OUTPUT CONTROL FOR STRESS PERIOD    5   TIME STEP    1
    SAVE BUDGET
    SAVE HEAD FOR ALL LAYERS
    PRINT HEAD FOR ALL LAYERS
 UBDSV2 SAVING "STREAMFLOW OUT  " ON UNIT  50 AT TIME STEP  1, STRESS PERIOD   5



 STREAM LISTING     PERIOD      5   STEP        1

 LAYER ROW COL. STREAM  RCH.  FLOW INTO     FLOW TO   FLOW OUT OF   OVRLND.     DIRECT     STREAM       STREAM     STREAM     STREAM   STREAMBED  STREAMBED
                SEG.NO.  NO.  STRM. RCH.    AQUIFER    STRM. RCH.    RUNOFF     PRECIP       ET          HEAD       DEPTH      WIDTH   CONDCTNC.   GRADIENT

   1   13    1     1     1    1.0000E+05 -2.0053E+03   1.0201E+05  0.000E+00  0.000E+00  0.000E+00  4.84069E+01  1.455E-01  2.000E+01  2.000E+04 -1.003E-01
   1   13    2     1     2    1.0201E+05 -3.0101E+03   1.0502E+05  0.000E+00  0.000E+00  0.000E+00  4.79318E+01  1.477E-01  2.000E+01  2.000E+04 -1.505E-01
   1   14    3     1     3    1.0502E+05 -4.9433E+02   1.0551E+05  0.000E+00  0.000E+00  0.000E+00  4.74560E+01  1.492E-01  2.000E+01  2.000E+04 -2.472E-02
   1   15    4     1     4    1.0551E+05 -4.6504E+02   1.0597E+05  0.000E+00  0.000E+00  0.000E+00  4.69791E+01  1.496E-01  2.000E+01  2.000E+04 -2.325E-02
   1   16    5     1     5    1.0597E+05 -1.7412E+03   1.0772E+05  0.000E+00  0.000E+00  0.000E+00  4.65028E+01  1.505E-01  2.000E+01  2.000E+04 -8.706E-02
   1   16    6     1     6    1.0772E+05 -1.1073E+03   1.0882E+05  0.000E+00  0.000E+00  0.000E+00  4.60267E+01  1.517E-01  2.000E+01  2.000E+04 -5.536E-02
   1   16    7     1     7    1.0882E+05 -1.0895E+03   1.0991E+05  0.000E+00  0.000E+00  0.000E+00  4.55504E+01  1.526E-01  2.000E+01  2.000E+04 -5.447E-02
   1   16    8     1     8    1.0991E+05 -1.0828E+03   1.1100E+05  0.000E+00  0.000E+00  0.000E+00  4.50740E+01  1.535E-01  2.000E+01  2.000E+04 -5.414E-02
   1   16    9     1     9    1.1100E+05 -1.0684E+03   1.1206E+05  0.000E+00  0.000E+00  0.000E+00  4.45976E+01  1.544E-01  2.000E+01  2.000E+04 -5.342E-02
   1   16   10     1    10    1.1206E+05 -1.0478E+03   1.1311E+05  0.000E+00  0.000E+00  0.000E+00  4.41212E+01  1.553E-01  2.000E+01  2.000E+04 -5.239E-02
   1   16   11     1    11    1.1311E+05 -1.0433E+03   1.1416E+05  0.000E+00  0.000E+00  0.000E+00  4.36448E+01  1.562E-01  2.000E+01  2.000E+04 -5.216E-02
   1   16   12     1    12    1.1416E+05 -1.6688E+03   1.1582E+05  0.000E+00  0.000E+00  0.000E+00  4.31687E+01  1.573E-01  2.000E+01  2.000E+04 -8.344E-02
   1   15   13     1    13    1.1582E+05 -1.1546E+03   1.1698E+05  0.000E+00  0.000E+00  0.000E+00  4.26925E+01  1.585E-01  2.000E+01  2.000E+04 -5.773E-02
   1   14   14     1    14    1.1698E+05 -1.0003E+03   1.1798E+05  0.000E+00  0.000E+00  0.000E+00  4.22161E+01  1.593E-01  2.000E+01  2.000E+04 -5.002E-02
   1   13   15     1    15    1.1798E+05 -9.3050E+02   1.1891E+05  0.000E+00  0.000E+00  0.000E+00  4.17397E+01  1.601E-01  2.000E+01  2.000E+04 -4.653E-02
   1   12   16     1    16    1.1891E+05 -1.1088E+03   1.2002E+05  0.000E+00  0.000E+00  0.000E+00  4.12632E+01  1.609E-01  2.000E+01  2.000E+04 -5.544E-02
   1   12   17     1    17    1.2002E+05 -9.6840E+02   1.2099E+05  0.000E+00  0.000E+00  0.000E+00  4.07868E+01  1.618E-01  2.000E+01  2.000E+04 -4.842E-02
   1   12   18     1    18    1.2099E+05 -8.7802E+02   1.2186E+05  0.000E+00  0.000E+00  0.000E+00  4.03102E+01  1.625E-01  2.000E+01  2.000E+04 -4.390E-02
   1   12   19     1    19    1.2186E+05 -8.3534E+02   1.2270E+05  0.000E+00  0.000E+00  0.000E+00  3.98337E+01  1.632E-01  2.000E+01  2.000E+04 -4.177E-02
   1   13   20     1    20    1.2270E+05 -1.0249E+03   1.2372E+05  0.000E+00  0.000E+00  0.000E+00  3.93571E+01  1.640E-01  2.000E+01  2.000E+04 -5.124E-02
   1   14   21     1    21    1.2372E+05 -1.3497E+03   1.2507E+05  0.000E+00  0.000E+00  0.000E+00  3.88808E+01  1.649E-01  2.000E+01  2.000E+04 -6.749E-02
   1   14   22     1    22    1.2507E+05  5.0778E+03   1.2000E+05  0.000E+00  0.000E+00  0.000E+00  3.84020E+01  1.634E-01  2.000E+01  2.000E+04  2.539E-01
   1    9   30     2     1    5.0000E+04 -2.5727E+02   5.0257E+04  0.000E+00  0.000E+00  0.000E+00  4.02410E+01  1.160E-01  2.000E+01  2.000E+04 -1.286E-02
   1    9   29     2     2    5.0257E+04 -4.8781E+02   5.0745E+04  0.000E+00  0.000E+00  0.000E+00  3.99916E+01  1.166E-01  2.000E+01  2.000E+04 -2.439E-02
   1    9   28     2     3    5.0745E+04 -5.2625E+02   5.1271E+04  0.000E+00  0.000E+00  0.000E+00  3.97423E+01  1.173E-01  2.000E+01  2.000E+04 -2.631E-02
   1    9   27     2     4    5.1271E+04  3.1189E+02   5.0959E+04  0.000E+00  0.000E+00  0.000E+00  3.94924E+01  1.174E-01  2.000E+01  2.000E+04  1.559E-02
   1   10   26     2     5    5.0959E+04  2.0085E+03   4.8951E+04  0.000E+00  0.000E+00  0.000E+00  3.92408E+01  1.158E-01  2.000E+01  2.000E+04  1.004E-01
   1   11   25     2     6    4.8951E+04  1.2151E+03   4.7736E+04  0.000E+00  0.000E+00  0.000E+00  3.89885E+01  1.135E-01  2.000E+01  2.000E+04  6.075E-02
   1   12   24     2     7    4.7736E+04 -5.9819E+01   4.7796E+04  0.000E+00  0.000E+00  0.000E+00  3.87377E+01  1.127E-01  2.000E+01  2.000E+04 -2.991E-03
   1   13   23     2     8    4.7796E+04 -5.7478E+01   4.7853E+04  0.000E+00  0.000E+00  0.000E+00  3.84878E+01  1.128E-01  2.000E+01  2.000E+04 -2.874E-03
   1   14   22     2     9    4.7853E+04  1.7688E+03   4.6084E+04  0.000E+00  0.000E+00  0.000E+00  3.82366E+01  1.116E-01  2.000E+01  2.000E+04  8.844E-02
   1   14   22     3     1    1.6608E+05 -8.5473E+03   1.7463E+05  0.000E+00  0.000E+00  0.000E+00  3.77208E+01  1.652E-01  2.000E+01  2.000E+04 -4.274E-01
   1   15   23     3     2    1.7463E+05 -4.3642E+02   1.7506E+05  0.000E+00  0.000E+00  0.000E+00  3.68345E+01  1.678E-01  2.000E+01  2.000E+04 -2.182E-02
   1   15   24     3     3    1.7506E+05 -5.9122E+01   1.7512E+05  0.000E+00  0.000E+00  0.000E+00  3.59458E+01  1.680E-01  2.000E+01  2.000E+04 -2.956E-03
   1   15   25     3     4    1.7512E+05 -1.2858E+02   1.7525E+05  0.000E+00  0.000E+00  0.000E+00  3.50569E+01  1.680E-01  2.000E+01  2.000E+04 -6.429E-03
   1   15   26     3     5    1.7525E+05 -2.4545E+02   1.7550E+05  0.000E+00  0.000E+00  0.000E+00  3.41681E+01  1.681E-01  2.000E+01  2.000E+04 -1.227E-02
   1   16   27     3     6    1.7550E+05 -2.5591E+02   1.7575E+05  0.000E+00  0.000E+00  0.000E+00  3.32794E+01  1.683E-01  2.000E+01  2.000E+04 -1.280E-02
   1   17   28     3     7    1.7575E+05 -1.4291E+03   1.7718E+05  0.000E+00  0.000E+00  0.000E+00  3.23910E+01  1.688E-01  2.000E+01  2.000E+04 -7.146E-02
   1   18   29     3     8    1.7718E+05 -2.8819E+03   1.8006E+05  0.000E+00  0.000E+00  0.000E+00  3.15033E+01  1.700E-01  2.000E+01  2.000E+04 -1.441E-01
   1   18   30     3     9    1.8006E+05 -3.1538E+03   1.8322E+05  0.000E+00  0.000E+00  0.000E+00  3.06162E+01  1.717E-01  2.000E+01  2.000E+04 -1.577E-01



1
              HEAD IN LAYER   1 AT END OF TIME STEP   1 IN STRESS PERIOD    5
  ---------------------------------------------------------------------------

          1      2      3      4      5      6      7      8      9     10
         11     12     13     14     15     16     17     18     19     20
         21     22     23     24     25     26     27     28     29     30
 .........................................................................
   1  ****** ****** ****** ****** ****** ****** ****** ****** ****** ******
      ****** ****** ****** ****** ****** ****** ****** ****** ****** ******
      ****** ****** ****** ****** ****** ****** ****** ****** ****** ******
   2  ****** ****** ****** ****** ****** ****** ****** ****** ****** ******
      ****** ****** ****** ****** ****** ****** ****** ****** ****** ******
      ****** ****** ****** ****** ****** ****** ****** ****** ****** ******
   3  ****** ****** ****** ****** ****** ****** ****** ****** ****** ******
      ****** ****** ****** ****** ****** ****** ****** ****** ****** ******
      ****** ****** ****** ****** ****** ****** ****** ****** ****** ******
   4  ****** ****** ****** ****** ****** ****** ****** ****** ****** ******
      ****** ****** ****** ****** ****** ****** ****** ****** ****** ******
      ****** ****** ****** ****** ****** ****** ****** ****** ****** ******
   5  ****** ****** ****** ****** ****** ****** ****** ****** ****** ******
      ****** ****** ****** ****** ****** ****** ****** ****** ****** ******
      ****** ****** ****** ****** ****** ****** ****** ****** ****** ******
   6  ****** ****** ****** ****** ****** ****** ****** ****** ****** ******
      ****** ****** ****** ****** ****** ****** ****** ****** ****** ******
      ****** ****** ****** ****** ****** ****** ****** ****** ****** ******
   7  ****** ****** ****** ****** ****** ****** ****** ****** ****** ******
      ****** ****** ****** ****** ****** ****** ****** ****** ****** ******
      ****** ****** ****** ****** ****** ****** ****** ****** ****** ******
   8  ****** ****** ****** ****** ****** ****** ****** ****** ****** ******
      ****** ****** ****** ****** ****** ****** ****** ****** ****** ******
      ****** ****** ****** ****** ****** ****** ****** ****** ****** ******
   9  ****** ****** ****** ****** ****** ****** ****** ****** ****** ******
      ****** ****** ****** ****** ****** ****** ****** ****** ****** ******
      ****** ****** ****** ****** ****** ****** ****** ****** ****** ******
  10  ****** ****** ****** ****** ****** ****** ****** ****** ****** ******
      ****** ****** ****** ****** ****** ****** ****** ****** ****** ******
      ****** ****** ****** ****** ****** ****** ****** ****** ****** ******
  11  ****** ****** ****** ****** ****** ****** ****** ****** ****** ******
      ****** ****** ****** ****** ****** ****** ****** ****** ****** ******
      ****** ****** ****** ****** ****** ****** ****** ****** ****** ******
  12  ****** ****** ****** ****** ****** ****** ****** ****** ****** ******
      ****** ****** ****** ****** ****** ****** ****** ****** ****** ******
      ****** ****** ****** ****** ****** ****** ****** ****** ****** ******
  13  ****** ****** ****** ****** ****** ****** ****** ****** ****** ******
      ****** ****** ****** ****** ****** ****** ****** ****** ****** ******
      ****** ****** ****** ****** ****** ****** ****** ****** ****** ******
  14  ****** ****** ****** ****** ****** ****** ****** ****** ****** ******
      ****** ****** ****** ****** ****** ****** ****** ****** ****** ******
      ****** ****** ****** ****** ****** ****** ****** ****** ****** ******
  15  ****** ****** ****** ****** ****** ****** ****** ****** ****** ******
      ****** ****** ****** ****** ****** ****** ****** ****** ****** ******
      ****** ****** ****** ****** ****** ****** ****** ****** ****** ******
  16  ****** ****** ****** ****** ****** ****** ****** ****** ****** ******
      ****** ****** ****** ****** ****** ****** ****** ****** ****** ******
      ****** ****** ****** ****** ****** ****** ****** ****** ****** ******
  17  ****** ****** ****** ****** ****** ****** ****** ****** ****** ******
      ****** ****** ****** ****** ****** ****** ****** ****** ****** ******
      ****** ****** ****** ****** ****** ****** ****** ****** ****** ******
  18  ****** ****** ****** ****** ****** ****** ****** ****** ****** ******
      ****** ****** ****** ****** ****** ****** ****** ****** ****** ******
      ****** ****** ****** ****** ****** ****** ****** ****** ****** ******
  19  ****** ****** ****** ****** ****** ****** ****** ****** ****** ******
      ****** ****** ****** ****** ****** ****** ****** ****** ****** ******
      ****** ****** ****** ****** ****** ****** ****** ****** ****** ******
  20  ****** ****** ****** ****** ****** ****** ****** ****** ****** ******
      ****** ****** ****** ****** ****** ****** ****** ****** ****** ******
      ****** ****** ****** ****** ****** ****** ****** ****** ****** ******
  21  ****** ****** ****** ****** ****** ****** ****** ****** ****** ******
      ****** ****** ****** ****** ****** ****** ****** ****** ****** ******
      ****** ****** ****** ****** ****** ****** ****** ****** ****** ******
  22  ****** ****** ****** ****** ****** ****** ****** ****** ****** ******
      ****** ****** ****** ****** ****** ****** ****** ****** ****** ******
      ****** ****** ****** ****** ****** ****** ****** ****** ****** ******
  23  ****** ****** ****** ****** ****** ****** ****** ****** ****** ******
      ****** ****** ****** ****** ****** ****** ****** ****** ****** ******
      ****** ****** ****** ****** ****** ****** ****** ****** ****** ******
  24  ****** ****** ****** ****** ****** ****** ****** ****** ****** ******
      ****** ****** ****** ****** ****** ****** ****** ****** ****** ******
      ****** ****** ****** ****** ****** ****** ****** ****** ****** ******
  25  ****** ****** ****** ****** ****** ****** ****** ****** ****** ******
      ****** ****** ****** ****** ****** ****** ****** ****** ****** ******
      ****** ****** ****** ****** ****** ****** ****** ****** ****** ******

 HEAD WILL BE SAVED ON UNIT   51 AT END OF TIME STEP    1, STRESS PERIOD    5
1
  VOLUMETRIC BUDGET FOR ENTIRE MODEL AT END OF TIME STEP    1, STRESS PERIOD   5
  ------------------------------------------------------------------------------

     CUMULATIVE VOLUMES      L**3       RATES FOR THIS TIME STEP      L**3/T
     ------------------                 ------------------------

           IN:                                      IN:
           ---                                      ---
             STORAGE =    31363883.8621               STORAGE =       18903.6728
       CONSTANT HEAD =    10438430.3896         CONSTANT HEAD =       31169.9083
               WELLS =           0.0000                 WELLS =           0.0000
            RECHARGE =    10074000.0000              RECHARGE =       13800.0000
      STREAM LEAKAGE =     3459423.0494        STREAM LEAKAGE =       10382.0858

            TOTAL IN =    55335737.3010              TOTAL IN =       74255.6669

          OUT:                                     OUT:
          ----                                     ----
             STORAGE =        1147.5133               STORAGE =           0.0000
       CONSTANT HEAD =           0.0000         CONSTANT HEAD =           0.0000
               WELLS =    14009258.3143                 WELLS =       30654.8322
            RECHARGE =           0.0000              RECHARGE =           0.0000
      STREAM LEAKAGE =    41325333.7102        STREAM LEAKAGE =       43600.8379

           TOTAL OUT =    55335739.5378             TOTAL OUT =       74255.6701

            IN - OUT =          -2.2368              IN - OUT =      -3.1549E-03

 PERCENT DISCREPANCY =          -0.00     PERCENT DISCREPANCY =          -0.00






         TIME SUMMARY AT END OF TIME STEP    1 IN STRESS PERIOD    5
                    SECONDS     MINUTES      HOURS       DAYS        YEARS
                    -----------------------------------------------------------
   TIME STEP LENGTH 7.94880E+06 1.32480E+05  2208.0      92.000     0.25188    
 STRESS PERIOD TIME 7.94880E+06 1.32480E+05  2208.0      92.000     0.25188    
         TOTAL TIME 3.94848E+07 6.58080E+05  10968.      457.00      1.2512    
1
1
                            STRESS PERIOD NO.    6, LENGTH =   91.00000    
                            -----------------------------------------------

                              NUMBER OF TIME STEPS =     1

                               MULTIPLIER FOR DELT =     1.500

                            INITIAL TIME STEP SIZE =   91.00000    

 WELL NO.  LAYER   ROW   COL   STRESS RATE         
 --------------------------------------------------
      1      1     14      6       0.000    
      2      1      3      9       0.000    
      3      1     20     10       0.000    
      4      1     14     20       0.000    
      5      1     17     24      -1629.    
      6      1      9     25     -0.1155E+05
      7      1      8     20      -8674.    
      8      1     10     13      -8797.    

      8 WELLS

                 RECHARGE =  2.000000E-03

 REUSING STREAM SEGMENT DATA FROM LAST STRESS PERIOD
 
 SOLVING FOR HEAD 


     7 CALLS TO PCG ROUTINE FOR TIME STEP   1 IN STRESS PERIOD    6
    26 TOTAL ITERATIONS

 OUTPUT CONTROL FOR STRESS PERIOD    6   TIME STEP    1
    SAVE BUDGET
    SAVE HEAD FOR ALL LAYERS
    PRINT HEAD FOR ALL LAYERS
 UBDSV2 SAVING "STREAMFLOW OUT  " ON UNIT  50 AT TIME STEP  1, STRESS PERIOD   6



 STREAM LISTING     PERIOD      6   STEP        1

 LAYER ROW COL. STREAM  RCH.  FLOW INTO     FLOW TO   FLOW OUT OF   OVRLND.     DIRECT     STREAM       STREAM     STREAM     STREAM   STREAMBED  STREAMBED
                SEG.NO.  NO.  STRM. RCH.    AQUIFER    STRM. RCH.    RUNOFF     PRECIP       ET          HEAD       DEPTH      WIDTH   CONDCTNC.   GRADIENT

   1   13    1     1     1    1.0000E+05 -2.3060E+03   1.0231E+05  0.000E+00  0.000E+00  0.000E+00  4.84070E+01  1.457E-01  2.000E+01  2.000E+04 -1.153E-01
   1   13    2     1     2    1.0231E+05 -3.3383E+03   1.0564E+05  0.000E+00  0.000E+00  0.000E+00  4.79322E+01  1.481E-01  2.000E+01  2.000E+04 -1.669E-01
   1   14    3     1     3    1.0564E+05 -6.4716E+02   1.0629E+05  0.000E+00  0.000E+00  0.000E+00  4.74566E+01  1.498E-01  2.000E+01  2.000E+04 -3.236E-02
   1   15    4     1     4    1.0629E+05 -6.2991E+02   1.0692E+05  0.000E+00  0.000E+00  0.000E+00  4.69799E+01  1.503E-01  2.000E+01  2.000E+04 -3.150E-02
   1   16    5     1     5    1.0692E+05 -2.2394E+03   1.0916E+05  0.000E+00  0.000E+00  0.000E+00  4.65038E+01  1.515E-01  2.000E+01  2.000E+04 -1.120E-01
   1   16    6     1     6    1.0916E+05 -1.3984E+03   1.1056E+05  0.000E+00  0.000E+00  0.000E+00  4.60280E+01  1.530E-01  2.000E+01  2.000E+04 -6.992E-02
   1   16    7     1     7    1.1056E+05 -1.3650E+03   1.1192E+05  0.000E+00  0.000E+00  0.000E+00  4.55519E+01  1.542E-01  2.000E+01  2.000E+04 -6.825E-02
   1   16    8     1     8    1.1192E+05 -1.3537E+03   1.1328E+05  0.000E+00  0.000E+00  0.000E+00  4.50758E+01  1.553E-01  2.000E+01  2.000E+04 -6.768E-02
   1   16    9     1     9    1.1328E+05 -1.3391E+03   1.1462E+05  0.000E+00  0.000E+00  0.000E+00  4.45996E+01  1.564E-01  2.000E+01  2.000E+04 -6.696E-02
   1   16   10     1    10    1.1462E+05 -1.3208E+03   1.1594E+05  0.000E+00  0.000E+00  0.000E+00  4.41234E+01  1.575E-01  2.000E+01  2.000E+04 -6.604E-02
   1   16   11     1    11    1.1594E+05 -1.3205E+03   1.1726E+05  0.000E+00  0.000E+00  0.000E+00  4.36472E+01  1.586E-01  2.000E+01  2.000E+04 -6.603E-02
   1   16   12     1    12    1.1726E+05 -2.1161E+03   1.1937E+05  0.000E+00  0.000E+00  0.000E+00  4.31714E+01  1.600E-01  2.000E+01  2.000E+04 -1.058E-01
   1   15   13     1    13    1.1937E+05 -1.6050E+03   1.2098E+05  0.000E+00  0.000E+00  0.000E+00  4.26956E+01  1.615E-01  2.000E+01  2.000E+04 -8.025E-02
   1   14   14     1    14    1.2098E+05 -1.4410E+03   1.2242E+05  0.000E+00  0.000E+00  0.000E+00  4.22196E+01  1.627E-01  2.000E+01  2.000E+04 -7.205E-02
   1   13   15     1    15    1.2242E+05 -1.3473E+03   1.2377E+05  0.000E+00  0.000E+00  0.000E+00  4.17434E+01  1.639E-01  2.000E+01  2.000E+04 -6.737E-02
   1   12   16     1    16    1.2377E+05 -1.4710E+03   1.2524E+05  0.000E+00  0.000E+00  0.000E+00  4.12673E+01  1.650E-01  2.000E+01  2.000E+04 -7.355E-02
   1   12   17     1    17    1.2524E+05 -1.2707E+03   1.2651E+05  0.000E+00  0.000E+00  0.000E+00  4.07911E+01  1.661E-01  2.000E+01  2.000E+04 -6.353E-02
   1   12   18     1    18    1.2651E+05 -1.1856E+03   1.2769E+05  0.000E+00  0.000E+00  0.000E+00  4.03148E+01  1.670E-01  2.000E+01  2.000E+04 -5.928E-02
   1   12   19     1    19    1.2769E+05 -1.2163E+03   1.2891E+05  0.000E+00  0.000E+00  0.000E+00  3.98384E+01  1.680E-01  2.000E+01  2.000E+04 -6.082E-02
   1   13   20     1    20    1.2891E+05 -1.4431E+03   1.3035E+05  0.000E+00  0.000E+00  0.000E+00  3.93622E+01  1.690E-01  2.000E+01  2.000E+04 -7.215E-02
   1   14   21     1    21    1.3035E+05 -1.7641E+03   1.3212E+05  0.000E+00  0.000E+00  0.000E+00  3.88862E+01  1.703E-01  2.000E+01  2.000E+04 -8.820E-02
   1   14   22     1    22    1.3212E+05  4.9682E+03   1.2715E+05  0.000E+00  0.000E+00  0.000E+00  3.84077E+01  1.690E-01  2.000E+01  2.000E+04  2.484E-01
   1    9   30     2     1    5.0000E+04 -6.1559E+02   5.0616E+04  0.000E+00  0.000E+00  0.000E+00  4.02413E+01  1.163E-01  2.000E+01  2.000E+04 -3.078E-02
   1    9   29     2     2    5.0616E+04 -8.4144E+02   5.1457E+04  0.000E+00  0.000E+00  0.000E+00  3.99923E+01  1.173E-01  2.000E+01  2.000E+04 -4.207E-02
   1    9   28     2     3    5.1457E+04 -8.7224E+02   5.2329E+04  0.000E+00  0.000E+00  0.000E+00  3.97435E+01  1.185E-01  2.000E+01  2.000E+04 -4.361E-02
   1    9   27     2     4    5.2329E+04 -1.2089E+02   5.2450E+04  0.000E+00  0.000E+00  0.000E+00  3.94942E+01  1.192E-01  2.000E+01  2.000E+04 -6.045E-03
   1   10   26     2     5    5.2450E+04  1.5487E+03   5.0901E+04  0.000E+00  0.000E+00  0.000E+00  3.92432E+01  1.182E-01  2.000E+01  2.000E+04  7.743E-02
   1   11   25     2     6    5.0901E+04  7.6883E+02   5.0133E+04  0.000E+00  0.000E+00  0.000E+00  3.89916E+01  1.166E-01  2.000E+01  2.000E+04  3.844E-02
   1   12   24     2     7    5.0133E+04 -4.6161E+02   5.0594E+04  0.000E+00  0.000E+00  0.000E+00  3.87414E+01  1.164E-01  2.000E+01  2.000E+04 -2.308E-02
   1   13   23     2     8    5.0594E+04 -1.9408E+02   5.0788E+04  0.000E+00  0.000E+00  0.000E+00  3.84918E+01  1.168E-01  2.000E+01  2.000E+04 -9.704E-03
   1   14   22     2     9    5.0788E+04  1.6315E+03   4.9157E+04  0.000E+00  0.000E+00  0.000E+00  3.82408E+01  1.158E-01  2.000E+01  2.000E+04  8.158E-02
   1   14   22     3     1    1.7631E+05 -8.6509E+03   1.8496E+05  0.000E+00  0.000E+00  0.000E+00  3.77267E+01  1.712E-01  2.000E+01  2.000E+04 -4.325E-01
   1   15   23     3     2    1.8496E+05 -5.7455E+02   1.8553E+05  0.000E+00  0.000E+00  0.000E+00  3.68404E+01  1.738E-01  2.000E+01  2.000E+04 -2.873E-02
   1   15   24     3     3    1.8553E+05 -1.8114E+02   1.8571E+05  0.000E+00  0.000E+00  0.000E+00  3.59517E+01  1.740E-01  2.000E+01  2.000E+04 -9.057E-03
   1   15   25     3     4    1.8571E+05 -2.5495E+02   1.8597E+05  0.000E+00  0.000E+00  0.000E+00  3.50630E+01  1.741E-01  2.000E+01  2.000E+04 -1.275E-02
   1   15   26     3     5    1.8597E+05 -3.9679E+02   1.8637E+05  0.000E+00  0.000E+00  0.000E+00  3.41743E+01  1.743E-01  2.000E+01  2.000E+04 -1.984E-02
   1   16   27     3     6    1.8637E+05 -4.2462E+02   1.8679E+05  0.000E+00  0.000E+00  0.000E+00  3.32856E+01  1.745E-01  2.000E+01  2.000E+04 -2.123E-02
   1   17   28     3     7    1.8679E+05 -1.8934E+03   1.8868E+05  0.000E+00  0.000E+00  0.000E+00  3.23974E+01  1.752E-01  2.000E+01  2.000E+04 -9.467E-02
   1   18   29     3     8    1.8868E+05 -3.3258E+03   1.9201E+05  0.000E+00  0.000E+00  0.000E+00  3.15099E+01  1.766E-01  2.000E+01  2.000E+04 -1.663E-01
   1   18   30     3     9    1.9201E+05 -3.5128E+03   1.9552E+05  0.000E+00  0.000E+00  0.000E+00  3.06230E+01  1.785E-01  2.000E+01  2.000E+04 -1.756E-01



1
              HEAD IN LAYER   1 AT END OF TIME STEP   1 IN STRESS PERIOD    6
  ---------------------------------------------------------------------------

          1      2      3      4      5      6      7      8      9     10
         11     12     13     14     15     16     17     18     19     20
         21     22     23     24     25     26     27     28     29     30
 .........................................................................
   1  ****** ****** ****** ****** ****** ****** ****** ****** ****** ******
      ****** ****** ****** ****** ****** ****** ****** ****** ****** ******
      ****** ****** ****** ****** ****** ****** ****** ****** ****** ******
   2  ****** ****** ****** ****** ****** ****** ****** ****** ****** ******
      ****** ****** ****** ****** ****** ****** ****** ****** ****** ******
      ****** ****** ****** ****** ****** ****** ****** ****** ****** ******
   3  ****** ****** ****** ****** ****** ****** ****** ****** ****** ******
      ****** ****** ****** ****** ****** ****** ****** ****** ****** ******
      ****** ****** ****** ****** ****** ****** ****** ****** ****** ******
   4  ****** ****** ****** ****** ****** ****** ****** ****** ****** ******
      ****** ****** ****** ****** ****** ****** ****** ****** ****** ******
      ****** ****** ****** ****** ****** ****** ****** ****** ****** ******
   5  ****** ****** ****** ****** ****** ****** ****** ****** ****** ******
      ****** ****** ****** ****** ****** ****** ****** ****** ****** ******
      ****** ****** ****** ****** ****** ****** ****** ****** ****** ******
   6  ****** ****** ****** ****** ****** ****** ****** ****** ****** ******
      ****** ****** ****** ****** ****** ****** ****** ****** ****** ******
      ****** ****** ****** ****** ****** ****** ****** ****** ****** ******
   7  ****** ****** ****** ****** ****** ****** ****** ****** ****** ******
      ****** ****** ****** ****** ****** ****** ****** ****** ****** ******
      ****** ****** ****** ****** ****** ****** ****** ****** ****** ******
   8  ****** ****** ****** ****** ****** ****** ****** ****** ****** ******
      ****** ****** ****** ****** ****** ****** ****** ****** ****** ******
      ****** ****** ****** ****** ****** ****** ****** ****** ****** ******
   9  ****** ****** ****** ****** ****** ****** ****** ****** ****** ******
      ****** ****** ****** ****** ****** ****** ****** ****** ****** ******
      ****** ****** ****** ****** ****** ****** ****** ****** ****** ******
  10  ****** ****** ****** ****** ****** ****** ****** ****** ****** ******
      ****** ****** ****** ****** ****** ****** ****** ****** ****** ******
      ****** ****** ****** ****** ****** ****** ****** ****** ****** ******
  11  ****** ****** ****** ****** ****** ****** ****** ****** ****** ******
      ****** ****** ****** ****** ****** ****** ****** ****** ****** ******
      ****** ****** ****** ****** ****** ****** ****** ****** ****** ******
  12  ****** ****** ****** ****** ****** ****** ****** ****** ****** ******
      ****** ****** ****** ****** ****** ****** ****** ****** ****** ******
      ****** ****** ****** ****** ****** ****** ****** ****** ****** ******
  13  ****** ****** ****** ****** ****** ****** ****** ****** ****** ******
      ****** ****** ****** ****** ****** ****** ****** ****** ****** ******
      ****** ****** ****** ****** ****** ****** ****** ****** ****** ******
  14  ****** ****** ****** ****** ****** ****** ****** ****** ****** ******
      ****** ****** ****** ****** ****** ****** ****** ****** ****** ******
      ****** ****** ****** ****** ****** ****** ****** ****** ****** ******
  15  ****** ****** ****** ****** ****** ****** ****** ****** ****** ******
      ****** ****** ****** ****** ****** ****** ****** ****** ****** ******
      ****** ****** ****** ****** ****** ****** ****** ****** ****** ******
  16  ****** ****** ****** ****** ****** ****** ****** ****** ****** ******
      ****** ****** ****** ****** ****** ****** ****** ****** ****** ******
      ****** ****** ****** ****** ****** ****** ****** ****** ****** ******
  17  ****** ****** ****** ****** ****** ****** ****** ****** ****** ******
      ****** ****** ****** ****** ****** ****** ****** ****** ****** ******
      ****** ****** ****** ****** ****** ****** ****** ****** ****** ******
  18  ****** ****** ****** ****** ****** ****** ****** ****** ****** ******
      ****** ****** ****** ****** ****** ****** ****** ****** ****** ******
      ****** ****** ****** ****** ****** ****** ****** ****** ****** ******
  19  ****** ****** ****** ****** ****** ****** ****** ****** ****** ******
      ****** ****** ****** ****** ****** ****** ****** ****** ****** ******
      ****** ****** ****** ****** ****** ****** ****** ****** ****** ******
  20  ****** ****** ****** ****** ****** ****** ****** ****** ****** ******
      ****** ****** ****** ****** ****** ****** ****** ****** ****** ******
      ****** ****** ****** ****** ****** ****** ****** ****** ****** ******
  21  ****** ****** ****** ****** ****** ****** ****** ****** ****** ******
      ****** ****** ****** ****** ****** ****** ****** ****** ****** ******
      ****** ****** ****** ****** ****** ****** ****** ****** ****** ******
  22  ****** ****** ****** ****** ****** ****** ****** ****** ****** ******
      ****** ****** ****** ****** ****** ****** ****** ****** ****** ******
      ****** ****** ****** ****** ****** ****** ****** ****** ****** ******
  23  ****** ****** ****** ****** ****** ****** ****** ****** ****** ******
      ****** ****** ****** ****** ****** ****** ****** ****** ****** ******
      ****** ****** ****** ****** ****** ****** ****** ****** ****** ******
  24  ****** ****** ****** ****** ****** ****** ****** ****** ****** ******
      ****** ****** ****** ****** ****** ****** ****** ****** ****** ******
      ****** ****** ****** ****** ****** ****** ****** ****** ****** ******
  25  ****** ****** ****** ****** ****** ****** ****** ****** ****** ******
      ****** ****** ****** ****** ****** ****** ****** ****** ****** ******
      ****** ****** ****** ****** ****** ****** ****** ****** ****** ******

 HEAD WILL BE SAVED ON UNIT   51 AT END OF TIME STEP    1, STRESS PERIOD    6
1
  VOLUMETRIC BUDGET FOR ENTIRE MODEL AT END OF TIME STEP    1, STRESS PERIOD   6
  ------------------------------------------------------------------------------

     CUMULATIVE VOLUMES      L**3       RATES FOR THIS TIME STEP      L**3/T
     ------------------                 ------------------------

           IN:                                      IN:
           ---                                      ---
             STORAGE =    31364438.0520               STORAGE =           6.0900
       CONSTANT HEAD =    13105617.8046         CONSTANT HEAD =       29309.7518
               WELLS =           0.0000                 WELLS =           0.0000
            RECHARGE =    15097200.0000              RECHARGE =       55200.0000
      STREAM LEAKAGE =     4270896.4714        STREAM LEAKAGE =        8917.2904

            TOTAL IN =    63838152.3280              TOTAL IN =       93433.1322

          OUT:                                     OUT:
          ----                                     ----
             STORAGE =      760002.0684               STORAGE =        8339.0610
       CONSTANT HEAD =           0.0000         CONSTANT HEAD =           0.0000
               WELLS =    16798848.0443                 WELLS =       30654.8322
            RECHARGE =           0.0000              RECHARGE =           0.0000
      STREAM LEAKAGE =    46279304.1948        STREAM LEAKAGE =       54439.2361

           TOTAL OUT =    63838154.3074             TOTAL OUT =       93433.1293

            IN - OUT =          -1.9794              IN - OUT =       2.8285E-03

 PERCENT DISCREPANCY =          -0.00     PERCENT DISCREPANCY =           0.00






         TIME SUMMARY AT END OF TIME STEP    1 IN STRESS PERIOD    6
                    SECONDS     MINUTES      HOURS       DAYS        YEARS
                    -----------------------------------------------------------
   TIME STEP LENGTH 7.86240E+06 1.31040E+05  2184.0      91.000     0.24914    
 STRESS PERIOD TIME 7.86240E+06 1.31040E+05  2184.0      91.000     0.24914    
         TOTAL TIME 4.73472E+07 7.89120E+05  13152.      548.00      1.5003    
1
1
                            STRESS PERIOD NO.    7, LENGTH =   91.00000    
                            -----------------------------------------------

                              NUMBER OF TIME STEPS =     1

                               MULTIPLIER FOR DELT =     1.500

                            INITIAL TIME STEP SIZE =   91.00000    

 WELL NO.  LAYER   ROW   COL   STRESS RATE         
 --------------------------------------------------
      1      1     14      6       0.000    
      2      1      3      9       0.000    
      3      1     20     10       0.000    
      4      1     14     20       0.000    
      5      1     17     24      -1629.    
      6      1      9     25     -0.1155E+05
      7      1      8     20      -8674.    
      8      1     10     13      -8797.    

      8 WELLS

                 RECHARGE =   0.00000    

 REUSING STREAM SEGMENT DATA FROM LAST STRESS PERIOD
 
 SOLVING FOR HEAD 


     7 CALLS TO PCG ROUTINE FOR TIME STEP   1 IN STRESS PERIOD    7
    26 TOTAL ITERATIONS

 OUTPUT CONTROL FOR STRESS PERIOD    7   TIME STEP    1
    SAVE BUDGET
    SAVE HEAD FOR ALL LAYERS
    PRINT HEAD FOR ALL LAYERS
 UBDSV2 SAVING "STREAMFLOW OUT  " ON UNIT  50 AT TIME STEP  1, STRESS PERIOD   7



 STREAM LISTING     PERIOD      7   STEP        1

 LAYER ROW COL. STREAM  RCH.  FLOW INTO     FLOW TO   FLOW OUT OF   OVRLND.     DIRECT     STREAM       STREAM     STREAM     STREAM   STREAMBED  STREAMBED
                SEG.NO.  NO.  STRM. RCH.    AQUIFER    STRM. RCH.    RUNOFF     PRECIP       ET          HEAD       DEPTH      WIDTH   CONDCTNC.   GRADIENT

   1   13    1     1     1    1.0000E+05 -1.6293E+03   1.0163E+05  0.000E+00  0.000E+00  0.000E+00  4.84067E+01  1.454E-01  2.000E+01  2.000E+04 -8.147E-02
   1   13    2     1     2    1.0163E+05 -2.5807E+03   1.0421E+05  0.000E+00  0.000E+00  0.000E+00  4.79313E+01  1.472E-01  2.000E+01  2.000E+04 -1.290E-01
   1   14    3     1     3    1.0421E+05 -3.9354E+02   1.0460E+05  0.000E+00  0.000E+00  0.000E+00  4.74553E+01  1.484E-01  2.000E+01  2.000E+04 -1.968E-02
   1   15    4     1     4    1.0460E+05 -3.6597E+02   1.0497E+05  0.000E+00  0.000E+00  0.000E+00  4.69783E+01  1.488E-01  2.000E+01  2.000E+04 -1.830E-02
   1   16    5     1     5    1.0497E+05 -1.4869E+03   1.0646E+05  0.000E+00  0.000E+00  0.000E+00  4.65018E+01  1.496E-01  2.000E+01  2.000E+04 -7.434E-02
   1   16    6     1     6    1.0646E+05 -9.4353E+02   1.0740E+05  0.000E+00  0.000E+00  0.000E+00  4.60256E+01  1.506E-01  2.000E+01  2.000E+04 -4.718E-02
   1   16    7     1     7    1.0740E+05 -9.2827E+02   1.0833E+05  0.000E+00  0.000E+00  0.000E+00  4.55491E+01  1.514E-01  2.000E+01  2.000E+04 -4.641E-02
   1   16    8     1     8    1.0833E+05 -9.2289E+02   1.0925E+05  0.000E+00  0.000E+00  0.000E+00  4.50726E+01  1.522E-01  2.000E+01  2.000E+04 -4.614E-02
   1   16    9     1     9    1.0925E+05 -9.1169E+02   1.1016E+05  0.000E+00  0.000E+00  0.000E+00  4.45961E+01  1.529E-01  2.000E+01  2.000E+04 -4.558E-02
   1   16   10     1    10    1.1016E+05 -8.9619E+02   1.1106E+05  0.000E+00  0.000E+00  0.000E+00  4.41196E+01  1.537E-01  2.000E+01  2.000E+04 -4.481E-02
   1   16   11     1    11    1.1106E+05 -8.9537E+02   1.1195E+05  0.000E+00  0.000E+00  0.000E+00  4.36431E+01  1.544E-01  2.000E+01  2.000E+04 -4.477E-02
   1   16   12     1    12    1.1195E+05 -1.4010E+03   1.1336E+05  0.000E+00  0.000E+00  0.000E+00  4.31667E+01  1.554E-01  2.000E+01  2.000E+04 -7.005E-02
   1   15   13     1    13    1.1336E+05 -8.3392E+02   1.1419E+05  0.000E+00  0.000E+00  0.000E+00  4.26904E+01  1.563E-01  2.000E+01  2.000E+04 -4.170E-02
   1   14   14     1    14    1.1419E+05 -6.3934E+02   1.1483E+05  0.000E+00  0.000E+00  0.000E+00  4.22137E+01  1.569E-01  2.000E+01  2.000E+04 -3.197E-02
   1   13   15     1    15    1.1483E+05 -5.4101E+02   1.1537E+05  0.000E+00  0.000E+00  0.000E+00  4.17369E+01  1.574E-01  2.000E+01  2.000E+04 -2.705E-02
   1   12   16     1    16    1.1537E+05 -6.6617E+02   1.1604E+05  0.000E+00  0.000E+00  0.000E+00  4.12602E+01  1.579E-01  2.000E+01  2.000E+04 -3.331E-02
   1   12   17     1    17    1.1604E+05 -6.8838E+02   1.1672E+05  0.000E+00  0.000E+00  0.000E+00  4.07834E+01  1.584E-01  2.000E+01  2.000E+04 -3.442E-02
   1   12   18     1    18    1.1672E+05 -6.1821E+02   1.1734E+05  0.000E+00  0.000E+00  0.000E+00  4.03067E+01  1.590E-01  2.000E+01  2.000E+04 -3.091E-02
   1   12   19     1    19    1.1734E+05 -5.2251E+02   1.1786E+05  0.000E+00  0.000E+00  0.000E+00  3.98299E+01  1.594E-01  2.000E+01  2.000E+04 -2.613E-02
   1   13   20     1    20    1.1786E+05 -7.7217E+02   1.1864E+05  0.000E+00  0.000E+00  0.000E+00  3.93531E+01  1.600E-01  2.000E+01  2.000E+04 -3.861E-02
   1   14   21     1    21    1.1864E+05 -1.1053E+03   1.1974E+05  0.000E+00  0.000E+00  0.000E+00  3.88766E+01  1.607E-01  2.000E+01  2.000E+04 -5.526E-02
   1   14   22     1    22    1.1974E+05  5.1291E+03   1.1461E+05  0.000E+00  0.000E+00  0.000E+00  3.83977E+01  1.591E-01  2.000E+01  2.000E+04  2.565E-01
   1    9   30     2     1    5.0000E+04 -9.9217E+01   5.0099E+04  0.000E+00  0.000E+00  0.000E+00  4.02409E+01  1.159E-01  2.000E+01  2.000E+04 -4.961E-03
   1    9   29     2     2    5.0099E+04 -3.2667E+02   5.0426E+04  0.000E+00  0.000E+00  0.000E+00  3.99912E+01  1.162E-01  2.000E+01  2.000E+04 -1.633E-02
   1    9   28     2     3    5.0426E+04 -3.5564E+02   5.0782E+04  0.000E+00  0.000E+00  0.000E+00  3.97417E+01  1.167E-01  2.000E+01  2.000E+04 -1.778E-02
   1    9   27     2     4    5.0782E+04  5.8311E+02   5.0198E+04  0.000E+00  0.000E+00  0.000E+00  3.94915E+01  1.165E-01  2.000E+01  2.000E+04  2.916E-02
   1   10   26     2     5    5.0198E+04  2.2530E+03   4.7945E+04  0.000E+00  0.000E+00  0.000E+00  3.92396E+01  1.146E-01  2.000E+01  2.000E+04  1.127E-01
   1   11   25     2     6    4.7945E+04  1.4439E+03   4.6501E+04  0.000E+00  0.000E+00  0.000E+00  3.89870E+01  1.120E-01  2.000E+01  2.000E+04  7.220E-02
   1   12   24     2     7    4.6501E+04  1.5398E+02   4.6347E+04  0.000E+00  0.000E+00  0.000E+00  3.87358E+01  1.108E-01  2.000E+01  2.000E+04  7.699E-03
   1   13   23     2     8    4.6347E+04 -1.6262E+00   4.6349E+04  0.000E+00  0.000E+00  0.000E+00  3.84857E+01  1.107E-01  2.000E+01  2.000E+04 -8.131E-05
   1   14   22     2     9    4.6349E+04  1.8621E+03   4.4487E+04  0.000E+00  0.000E+00  0.000E+00  3.82344E+01  1.094E-01  2.000E+01  2.000E+04  9.311E-02
   1   14   22     3     1    1.5910E+05 -8.4917E+03   1.6759E+05  0.000E+00  0.000E+00  0.000E+00  3.77167E+01  1.611E-01  2.000E+01  2.000E+04 -4.246E-01
   1   15   23     3     2    1.6759E+05 -3.6910E+02   1.6796E+05  0.000E+00  0.000E+00  0.000E+00  3.68304E+01  1.637E-01  2.000E+01  2.000E+04 -1.846E-02
   1   15   24     3     3    1.6796E+05 -7.9570E+00   1.6797E+05  0.000E+00  0.000E+00  0.000E+00  3.59416E+01  1.638E-01  2.000E+01  2.000E+04 -3.978E-04
   1   15   25     3     4    1.6797E+05 -7.8599E+01   1.6805E+05  0.000E+00  0.000E+00  0.000E+00  3.50528E+01  1.639E-01  2.000E+01  2.000E+04 -3.930E-03
   1   15   26     3     5    1.6805E+05 -1.9583E+02   1.6824E+05  0.000E+00  0.000E+00  0.000E+00  3.41639E+01  1.639E-01  2.000E+01  2.000E+04 -9.791E-03
   1   16   27     3     6    1.6824E+05 -1.9274E+02   1.6844E+05  0.000E+00  0.000E+00  0.000E+00  3.32752E+01  1.641E-01  2.000E+01  2.000E+04 -9.637E-03
   1   17   28     3     7    1.6844E+05 -1.2540E+03   1.6969E+05  0.000E+00  0.000E+00  0.000E+00  3.23867E+01  1.645E-01  2.000E+01  2.000E+04 -6.270E-02
   1   18   29     3     8    1.6969E+05 -2.6442E+03   1.7233E+05  0.000E+00  0.000E+00  0.000E+00  3.14990E+01  1.656E-01  2.000E+01  2.000E+04 -1.322E-01
   1   18   30     3     9    1.7233E+05 -2.9871E+03   1.7532E+05  0.000E+00  0.000E+00  0.000E+00  3.06117E+01  1.673E-01  2.000E+01  2.000E+04 -1.494E-01



1
              HEAD IN LAYER   1 AT END OF TIME STEP   1 IN STRESS PERIOD    7
  ---------------------------------------------------------------------------

          1      2      3      4      5      6      7      8      9     10
         11     12     13     14     15     16     17     18     19     20
         21     22     23     24     25     26     27     28     29     30
 .........................................................................
   1  ****** ****** ****** ****** ****** ****** ****** ****** ****** ******
      ****** ****** ****** ****** ****** ****** ****** ****** ****** ******
      ****** ****** ****** ****** ****** ****** ****** ****** ****** ******
   2  ****** ****** ****** ****** ****** ****** ****** ****** ****** ******
      ****** ****** ****** ****** ****** ****** ****** ****** ****** ******
      ****** ****** ****** ****** ****** ****** ****** ****** ****** ******
   3  ****** ****** ****** ****** ****** ****** ****** ****** ****** ******
      ****** ****** ****** ****** ****** ****** ****** ****** ****** ******
      ****** ****** ****** ****** ****** ****** ****** ****** ****** ******
   4  ****** ****** ****** ****** ****** ****** ****** ****** ****** ******
      ****** ****** ****** ****** ****** ****** ****** ****** ****** ******
      ****** ****** ****** ****** ****** ****** ****** ****** ****** ******
   5  ****** ****** ****** ****** ****** ****** ****** ****** ****** ******
      ****** ****** ****** ****** ****** ****** ****** ****** ****** ******
      ****** ****** ****** ****** ****** ****** ****** ****** ****** ******
   6  ****** ****** ****** ****** ****** ****** ****** ****** ****** ******
      ****** ****** ****** ****** ****** ****** ****** ****** ****** ******
      ****** ****** ****** ****** ****** ****** ****** ****** ****** ******
   7  ****** ****** ****** ****** ****** ****** ****** ****** ****** ******
      ****** ****** ****** ****** ****** ****** ****** ****** ****** ******
      ****** ****** ****** ****** ****** ****** ****** ****** ****** ******
   8  ****** ****** ****** ****** ****** ****** ****** ****** ****** ******
      ****** ****** ****** ****** ****** ****** ****** ****** ****** ******
      ****** ****** ****** ****** ****** ****** ****** ****** ****** ******
   9  ****** ****** ****** ****** ****** ****** ****** ****** ****** ******
      ****** ****** ****** ****** ****** ****** ****** ****** ****** ******
      ****** ****** ****** ****** ****** ****** ****** ****** ****** ******
  10  ****** ****** ****** ****** ****** ****** ****** ****** ****** ******
      ****** ****** ****** ****** ****** ****** ****** ****** ****** ******
      ****** ****** ****** ****** ****** ****** ****** ****** ****** ******
  11  ****** ****** ****** ****** ****** ****** ****** ****** ****** ******
      ****** ****** ****** ****** ****** ****** ****** ****** ****** ******
      ****** ****** ****** ****** ****** ****** ****** ****** ****** ******
  12  ****** ****** ****** ****** ****** ****** ****** ****** ****** ******
      ****** ****** ****** ****** ****** ****** ****** ****** ****** ******
      ****** ****** ****** ****** ****** ****** ****** ****** ****** ******
  13  ****** ****** ****** ****** ****** ****** ****** ****** ****** ******
      ****** ****** ****** ****** ****** ****** ****** ****** ****** ******
      ****** ****** ****** ****** ****** ****** ****** ****** ****** ******
  14  ****** ****** ****** ****** ****** ****** ****** ****** ****** ******
      ****** ****** ****** ****** ****** ****** ****** ****** ****** ******
      ****** ****** ****** ****** ****** ****** ****** ****** ****** ******
  15  ****** ****** ****** ****** ****** ****** ****** ****** ****** ******
      ****** ****** ****** ****** ****** ****** ****** ****** ****** ******
      ****** ****** ****** ****** ****** ****** ****** ****** ****** ******
  16  ****** ****** ****** ****** ****** ****** ****** ****** ****** ******
      ****** ****** ****** ****** ****** ****** ****** ****** ****** ******
      ****** ****** ****** ****** ****** ****** ****** ****** ****** ******
  17  ****** ****** ****** ****** ****** ****** ****** ****** ****** ******
      ****** ****** ****** ****** ****** ****** ****** ****** ****** ******
      ****** ****** ****** ****** ****** ****** ****** ****** ****** ******
  18  ****** ****** ****** ****** ****** ****** ****** ****** ****** ******
      ****** ****** ****** ****** ****** ****** ****** ****** ****** ******
      ****** ****** ****** ****** ****** ****** ****** ****** ****** ******
  19  ****** ****** ****** ****** ****** ****** ****** ****** ****** ******
      ****** ****** ****** ****** ****** ****** ****** ****** ****** ******
      ****** ****** ****** ****** ****** ****** ****** ****** ****** ******
  20  ****** ****** ****** ****** ****** ****** ****** ****** ****** ******
      ****** ****** ****** ****** ****** ****** ****** ****** ****** ******
      ****** ****** ****** ****** ****** ****** ****** ****** ****** ******
  21  ****** ****** ****** ****** ****** ****** ****** ****** ****** ******
      ****** ****** ****** ****** ****** ****** ****** ****** ****** ******
      ****** ****** ****** ****** ****** ****** ****** ****** ****** ******
  22  ****** ****** ****** ****** ****** ****** ****** ****** ****** ******
      ****** ****** ****** ****** ****** ****** ****** ****** ****** ******
      ****** ****** ****** ****** ****** ****** ****** ****** ****** ******
  23  ****** ****** ****** ****** ****** ****** ****** ****** ****** ******
      ****** ****** ****** ****** ****** ****** ****** ****** ****** ******
      ****** ****** ****** ****** ****** ****** ****** ****** ****** ******
  24  ****** ****** ****** ****** ****** ****** ****** ****** ****** ******
      ****** ****** ****** ****** ****** ****** ****** ****** ****** ******
      ****** ****** ****** ****** ****** ****** ****** ****** ****** ******
  25  ****** ****** ****** ****** ****** ****** ****** ****** ****** ******
      ****** ****** ****** ****** ****** ****** ****** ****** ****** ******
      ****** ****** ****** ****** ****** ****** ****** ****** ****** ******

 HEAD WILL BE SAVED ON UNIT   51 AT END OF TIME STEP    1, STRESS PERIOD    7
1
  VOLUMETRIC BUDGET FOR ENTIRE MODEL AT END OF TIME STEP    1, STRESS PERIOD   7
  ------------------------------------------------------------------------------

     CUMULATIVE VOLUMES      L**3       RATES FOR THIS TIME STEP      L**3/T
     ------------------                 ------------------------

           IN:                                      IN:
           ---                                      ---
             STORAGE =    33430604.5319               STORAGE =       22705.1262
       CONSTANT HEAD =    16133305.4683         CONSTANT HEAD =       33271.2930
               WELLS =           0.0000                 WELLS =           0.0000
            RECHARGE =    15097200.0000              RECHARGE =           0.0000
      STREAM LEAKAGE =     5310595.4705        STREAM LEAKAGE =       11425.2637

            TOTAL IN =    69971705.4707              TOTAL IN =       67401.6829

          OUT:                                     OUT:
          ----                                     ----
             STORAGE =      760002.0684               STORAGE =           0.0000
       CONSTANT HEAD =           0.0000         CONSTANT HEAD =           0.0000
               WELLS =    19588437.7743                 WELLS =       30654.8322
            RECHARGE =           0.0000              RECHARGE =           0.0000
      STREAM LEAKAGE =    49623268.1028        STREAM LEAKAGE =       36746.8561

           TOTAL OUT =    69971707.9455             TOTAL OUT =       67401.6883

            IN - OUT =          -2.4748              IN - OUT =      -5.4434E-03

 PERCENT DISCREPANCY =          -0.00     PERCENT DISCREPANCY =          -0.00






         TIME SUMMARY AT END OF TIME STEP    1 IN STRESS PERIOD    7
                    SECONDS     MINUTES      HOURS       DAYS        YEARS
                    -----------------------------------------------------------
   TIME STEP LENGTH 7.86240E+06 1.31040E+05  2184.0      91.000     0.24914    
 STRESS PERIOD TIME 7.86240E+06 1.31040E+05  2184.0      91.000     0.24914    
         TOTAL TIME 5.52096E+07 9.20160E+05  15336.      639.00      1.7495    
1
1
                            STRESS PERIOD NO.    8, LENGTH =   91.00000    
                            -----------------------------------------------

                              NUMBER OF TIME STEPS =     1

                               MULTIPLIER FOR DELT =     1.500

                            INITIAL TIME STEP SIZE =   91.00000    

 WELL NO.  LAYER   ROW   COL   STRESS RATE         
 --------------------------------------------------
      1      1     14      6       0.000    
      2      1      3      9       0.000    
      3      1     20     10       0.000    
      4      1     14     20       0.000    
      5      1     17     24      -1629.    
      6      1      9     25     -0.1155E+05
      7      1      8     20      -8674.    
      8      1     10     13      -8797.    

      8 WELLS

                 RECHARGE =  1.000000E-03

 REUSING STREAM SEGMENT DATA FROM LAST STRESS PERIOD
 
 SOLVING FOR HEAD 


     6 CALLS TO PCG ROUTINE FOR TIME STEP   1 IN STRESS PERIOD    8
    22 TOTAL ITERATIONS

 OUTPUT CONTROL FOR STRESS PERIOD    8   TIME STEP    1
    SAVE BUDGET
    SAVE HEAD FOR ALL LAYERS
    PRINT HEAD FOR ALL LAYERS
 UBDSV2 SAVING "STREAMFLOW OUT  " ON UNIT  50 AT TIME STEP  1, STRESS PERIOD   8



 STREAM LISTING     PERIOD      8   STEP        1

 LAYER ROW COL. STREAM  RCH.  FLOW INTO     FLOW TO   FLOW OUT OF   OVRLND.     DIRECT     STREAM       STREAM     STREAM     STREAM   STREAMBED  STREAMBED
                SEG.NO.  NO.  STRM. RCH.    AQUIFER    STRM. RCH.    RUNOFF     PRECIP       ET          HEAD       DEPTH      WIDTH   CONDCTNC.   GRADIENT

   1   13    1     1     1    1.0000E+05 -1.6948E+03   1.0169E+05  0.000E+00  0.000E+00  0.000E+00  4.84067E+01  1.454E-01  2.000E+01  2.000E+04 -8.474E-02
   1   13    2     1     2    1.0169E+05 -2.6443E+03   1.0434E+05  0.000E+00  0.000E+00  0.000E+00  4.79313E+01  1.473E-01  2.000E+01  2.000E+04 -1.322E-01
   1   14    3     1     3    1.0434E+05 -4.5623E+02   1.0480E+05  0.000E+00  0.000E+00  0.000E+00  4.74554E+01  1.486E-01  2.000E+01  2.000E+04 -2.281E-02
   1   15    4     1     4    1.0480E+05 -4.3361E+02   1.0523E+05  0.000E+00  0.000E+00  0.000E+00  4.69785E+01  1.490E-01  2.000E+01  2.000E+04 -2.168E-02
   1   16    5     1     5    1.0523E+05 -1.6610E+03   1.0689E+05  0.000E+00  0.000E+00  0.000E+00  4.65021E+01  1.498E-01  2.000E+01  2.000E+04 -8.305E-02
   1   16    6     1     6    1.0689E+05 -1.0499E+03   1.0794E+05  0.000E+00  0.000E+00  0.000E+00  4.60260E+01  1.510E-01  2.000E+01  2.000E+04 -5.250E-02
   1   16    7     1     7    1.0794E+05 -1.0295E+03   1.0897E+05  0.000E+00  0.000E+00  0.000E+00  4.55496E+01  1.519E-01  2.000E+01  2.000E+04 -5.148E-02
   1   16    8     1     8    1.0897E+05 -1.0233E+03   1.0999E+05  0.000E+00  0.000E+00  0.000E+00  4.50732E+01  1.527E-01  2.000E+01  2.000E+04 -5.117E-02
   1   16    9     1     9    1.0999E+05 -1.0134E+03   1.1101E+05  0.000E+00  0.000E+00  0.000E+00  4.45968E+01  1.536E-01  2.000E+01  2.000E+04 -5.067E-02
   1   16   10     1    10    1.1101E+05 -1.0008E+03   1.1201E+05  0.000E+00  0.000E+00  0.000E+00  4.41203E+01  1.544E-01  2.000E+01  2.000E+04 -5.004E-02
   1   16   11     1    11    1.1201E+05 -1.0035E+03   1.1301E+05  0.000E+00  0.000E+00  0.000E+00  4.36439E+01  1.553E-01  2.000E+01  2.000E+04 -5.017E-02
   1   16   12     1    12    1.1301E+05 -1.5625E+03   1.1457E+05  0.000E+00  0.000E+00  0.000E+00  4.31677E+01  1.563E-01  2.000E+01  2.000E+04 -7.812E-02
   1   15   13     1    13    1.1457E+05 -9.9932E+02   1.1557E+05  0.000E+00  0.000E+00  0.000E+00  4.26915E+01  1.574E-01  2.000E+01  2.000E+04 -4.997E-02
   1   14   14     1    14    1.1557E+05 -7.9567E+02   1.1637E+05  0.000E+00  0.000E+00  0.000E+00  4.22149E+01  1.581E-01  2.000E+01  2.000E+04 -3.978E-02
   1   13   15     1    15    1.1637E+05 -6.8258E+02   1.1705E+05  0.000E+00  0.000E+00  0.000E+00  4.17382E+01  1.587E-01  2.000E+01  2.000E+04 -3.413E-02
   1   12   16     1    16    1.1705E+05 -7.6622E+02   1.1782E+05  0.000E+00  0.000E+00  0.000E+00  4.12616E+01  1.593E-01  2.000E+01  2.000E+04 -3.831E-02
   1   12   17     1    17    1.1782E+05 -7.9412E+02   1.1861E+05  0.000E+00  0.000E+00  0.000E+00  4.07849E+01  1.599E-01  2.000E+01  2.000E+04 -3.971E-02
   1   12   18     1    18    1.1861E+05 -7.3155E+02   1.1934E+05  0.000E+00  0.000E+00  0.000E+00  4.03083E+01  1.605E-01  2.000E+01  2.000E+04 -3.658E-02
   1   12   19     1    19    1.1934E+05 -6.6538E+02   1.2001E+05  0.000E+00  0.000E+00  0.000E+00  3.98316E+01  1.611E-01  2.000E+01  2.000E+04 -3.327E-02
   1   13   20     1    20    1.2001E+05 -9.4845E+02   1.2096E+05  0.000E+00  0.000E+00  0.000E+00  3.93549E+01  1.618E-01  2.000E+01  2.000E+04 -4.742E-02
   1   14   21     1    21    1.2096E+05 -1.2647E+03   1.2222E+05  0.000E+00  0.000E+00  0.000E+00  3.88786E+01  1.627E-01  2.000E+01  2.000E+04 -6.323E-02
   1   14   22     1    22    1.2222E+05  5.0801E+03   1.1714E+05  0.000E+00  0.000E+00  0.000E+00  3.83998E+01  1.611E-01  2.000E+01  2.000E+04  2.540E-01
   1    9   30     2     1    5.0000E+04 -2.6047E+02   5.0260E+04  0.000E+00  0.000E+00  0.000E+00  4.02410E+01  1.160E-01  2.000E+01  2.000E+04 -1.302E-02
   1    9   29     2     2    5.0260E+04 -4.8499E+02   5.0745E+04  0.000E+00  0.000E+00  0.000E+00  3.99916E+01  1.166E-01  2.000E+01  2.000E+04 -2.425E-02
   1    9   28     2     3    5.0745E+04 -5.0804E+02   5.1254E+04  0.000E+00  0.000E+00  0.000E+00  3.97422E+01  1.172E-01  2.000E+01  2.000E+04 -2.540E-02
   1    9   27     2     4    5.1254E+04  4.1002E+02   5.0843E+04  0.000E+00  0.000E+00  0.000E+00  3.94923E+01  1.173E-01  2.000E+01  2.000E+04  2.050E-02
   1   10   26     2     5    5.0843E+04  2.0519E+03   4.8792E+04  0.000E+00  0.000E+00  0.000E+00  3.92406E+01  1.156E-01  2.000E+01  2.000E+04  1.026E-01
   1   11   25     2     6    4.8792E+04  1.2440E+03   4.7548E+04  0.000E+00  0.000E+00  0.000E+00  3.89883E+01  1.133E-01  2.000E+01  2.000E+04  6.220E-02
   1   12   24     2     7    4.7548E+04 -2.7229E+01   4.7575E+04  0.000E+00  0.000E+00  0.000E+00  3.87374E+01  1.124E-01  2.000E+01  2.000E+04 -1.361E-03
   1   13   23     2     8    4.7575E+04 -7.5311E+01   4.7650E+04  0.000E+00  0.000E+00  0.000E+00  3.84875E+01  1.125E-01  2.000E+01  2.000E+04 -3.766E-03
   1   14   22     2     9    4.7650E+04  1.8106E+03   4.5840E+04  0.000E+00  0.000E+00  0.000E+00  3.82363E+01  1.113E-01  2.000E+01  2.000E+04  9.053E-02
   1   14   22     3     1    1.6298E+05 -8.5354E+03   1.7152E+05  0.000E+00  0.000E+00  0.000E+00  3.77190E+01  1.634E-01  2.000E+01  2.000E+04 -4.268E-01
   1   15   23     3     2    1.7152E+05 -4.3370E+02   1.7195E+05  0.000E+00  0.000E+00  0.000E+00  3.68327E+01  1.660E-01  2.000E+01  2.000E+04 -2.169E-02
   1   15   24     3     3    1.7195E+05 -6.8647E+01   1.7202E+05  0.000E+00  0.000E+00  0.000E+00  3.59440E+01  1.662E-01  2.000E+01  2.000E+04 -3.432E-03
   1   15   25     3     4    1.7202E+05 -1.4097E+02   1.7216E+05  0.000E+00  0.000E+00  0.000E+00  3.50551E+01  1.662E-01  2.000E+01  2.000E+04 -7.049E-03
   1   15   26     3     5    1.7216E+05 -2.7057E+02   1.7243E+05  0.000E+00  0.000E+00  0.000E+00  3.41664E+01  1.664E-01  2.000E+01  2.000E+04 -1.353E-02
   1   16   27     3     6    1.7243E+05 -2.7474E+02   1.7270E+05  0.000E+00  0.000E+00  0.000E+00  3.32776E+01  1.665E-01  2.000E+01  2.000E+04 -1.374E-02
   1   17   28     3     7    1.7270E+05 -1.4585E+03   1.7416E+05  0.000E+00  0.000E+00  0.000E+00  3.23892E+01  1.670E-01  2.000E+01  2.000E+04 -7.293E-02
   1   18   29     3     8    1.7416E+05 -2.8115E+03   1.7697E+05  0.000E+00  0.000E+00  0.000E+00  3.15016E+01  1.683E-01  2.000E+01  2.000E+04 -1.406E-01
   1   18   30     3     9    1.7697E+05 -3.1349E+03   1.8011E+05  0.000E+00  0.000E+00  0.000E+00  3.06144E+01  1.700E-01  2.000E+01  2.000E+04 -1.567E-01



1
              HEAD IN LAYER   1 AT END OF TIME STEP   1 IN STRESS PERIOD    8
  ---------------------------------------------------------------------------

          1      2      3      4      5      6      7      8      9     10
         11     12     13     14     15     16     17     18     19     20
         21     22     23     24     25     26     27     28     29     30
 .........................................................................
   1  ****** ****** ****** ****** ****** ****** ****** ****** ****** ******
      ****** ****** ****** ****** ****** ****** ****** ****** ****** ******
      ****** ****** ****** ****** ****** ****** ****** ****** ****** ******
   2  ****** ****** ****** ****** ****** ****** ****** ****** ****** ******
      ****** ****** ****** ****** ****** ****** ****** ****** ****** ******
      ****** ****** ****** ****** ****** ****** ****** ****** ****** ******
   3  ****** ****** ****** ****** ****** ****** ****** ****** ****** ******
      ****** ****** ****** ****** ****** ****** ****** ****** ****** ******
      ****** ****** ****** ****** ****** ****** ****** ****** ****** ******
   4  ****** ****** ****** ****** ****** ****** ****** ****** ****** ******
      ****** ****** ****** ****** ****** ****** ****** ****** ****** ******
      ****** ****** ****** ****** ****** ****** ****** ****** ****** ******
   5  ****** ****** ****** ****** ****** ****** ****** ****** ****** ******
      ****** ****** ****** ****** ****** ****** ****** ****** ****** ******
      ****** ****** ****** ****** ****** ****** ****** ****** ****** ******
   6  ****** ****** ****** ****** ****** ****** ****** ****** ****** ******
      ****** ****** ****** ****** ****** ****** ****** ****** ****** ******
      ****** ****** ****** ****** ****** ****** ****** ****** ****** ******
   7  ****** ****** ****** ****** ****** ****** ****** ****** ****** ******
      ****** ****** ****** ****** ****** ****** ****** ****** ****** ******
      ****** ****** ****** ****** ****** ****** ****** ****** ****** ******
   8  ****** ****** ****** ****** ****** ****** ****** ****** ****** ******
      ****** ****** ****** ****** ****** ****** ****** ****** ****** ******
      ****** ****** ****** ****** ****** ****** ****** ****** ****** ******
   9  ****** ****** ****** ****** ****** ****** ****** ****** ****** ******
      ****** ****** ****** ****** ****** ****** ****** ****** ****** ******
      ****** ****** ****** ****** ****** ****** ****** ****** ****** ******
  10  ****** ****** ****** ****** ****** ****** ****** ****** ****** ******
      ****** ****** ****** ****** ****** ****** ****** ****** ****** ******
      ****** ****** ****** ****** ****** ****** ****** ****** ****** ******
  11  ****** ****** ****** ****** ****** ****** ****** ****** ****** ******
      ****** ****** ****** ****** ****** ****** ****** ****** ****** ******
      ****** ****** ****** ****** ****** ****** ****** ****** ****** ******
  12  ****** ****** ****** ****** ****** ****** ****** ****** ****** ******
      ****** ****** ****** ****** ****** ****** ****** ****** ****** ******
      ****** ****** ****** ****** ****** ****** ****** ****** ****** ******
  13  ****** ****** ****** ****** ****** ****** ****** ****** ****** ******
      ****** ****** ****** ****** ****** ****** ****** ****** ****** ******
      ****** ****** ****** ****** ****** ****** ****** ****** ****** ******
  14  ****** ****** ****** ****** ****** ****** ****** ****** ****** ******
      ****** ****** ****** ****** ****** ****** ****** ****** ****** ******
      ****** ****** ****** ****** ****** ****** ****** ****** ****** ******
  15  ****** ****** ****** ****** ****** ****** ****** ****** ****** ******
      ****** ****** ****** ****** ****** ****** ****** ****** ****** ******
      ****** ****** ****** ****** ****** ****** ****** ****** ****** ******
  16  ****** ****** ****** ****** ****** ****** ****** ****** ****** ******
      ****** ****** ****** ****** ****** ****** ****** ****** ****** ******
      ****** ****** ****** ****** ****** ****** ****** ****** ****** ******
  17  ****** ****** ****** ****** ****** ****** ****** ****** ****** ******
      ****** ****** ****** ****** ****** ****** ****** ****** ****** ******
      ****** ****** ****** ****** ****** ****** ****** ****** ****** ******
  18  ****** ****** ****** ****** ****** ****** ****** ****** ****** ******
      ****** ****** ****** ****** ****** ****** ****** ****** ****** ******
      ****** ****** ****** ****** ****** ****** ****** ****** ****** ******
  19  ****** ****** ****** ****** ****** ****** ****** ****** ****** ******
      ****** ****** ****** ****** ****** ****** ****** ****** ****** ******
      ****** ****** ****** ****** ****** ****** ****** ****** ****** ******
  20  ****** ****** ****** ****** ****** ****** ****** ****** ****** ******
      ****** ****** ****** ****** ****** ****** ****** ****** ****** ******
      ****** ****** ****** ****** ****** ****** ****** ****** ****** ******
  21  ****** ****** ****** ****** ****** ****** ****** ****** ****** ******
      ****** ****** ****** ****** ****** ****** ****** ****** ****** ******
      ****** ****** ****** ****** ****** ****** ****** ****** ****** ******
  22  ****** ****** ****** ****** ****** ****** ****** ****** ****** ******
      ****** ****** ****** ****** ****** ****** ****** ****** ****** ******
      ****** ****** ****** ****** ****** ****** ****** ****** ****** ******
  23  ****** ****** ****** ****** ****** ****** ****** ****** ****** ******
      ****** ****** ****** ****** ****** ****** ****** ****** ****** ******
      ****** ****** ****** ****** ****** ****** ****** ****** ****** ******
  24  ****** ****** ****** ****** ****** ****** ****** ****** ****** ******
      ****** ****** ****** ****** ****** ****** ****** ****** ****** ******
      ****** ****** ****** ****** ****** ****** ****** ****** ****** ******
  25  ****** ****** ****** ****** ****** ****** ****** ****** ****** ******
      ****** ****** ****** ****** ****** ****** ****** ****** ****** ******
      ****** ****** ****** ****** ****** ****** ****** ****** ****** ******

 HEAD WILL BE SAVED ON UNIT   51 AT END OF TIME STEP    1, STRESS PERIOD    8
1
  VOLUMETRIC BUDGET FOR ENTIRE MODEL AT END OF TIME STEP    1, STRESS PERIOD   8
  ------------------------------------------------------------------------------

     CUMULATIVE VOLUMES      L**3       RATES FOR THIS TIME STEP      L**3/T
     ------------------                 ------------------------

           IN:                                      IN:
           ---                                      ---
             STORAGE =    33587348.3993               STORAGE =        1722.4601
       CONSTANT HEAD =    19136530.4667         CONSTANT HEAD =       33002.4725
               WELLS =           0.0000                 WELLS =           0.0000
            RECHARGE =    17608800.0000              RECHARGE =       27600.0000
      STREAM LEAKAGE =     6274883.9780        STREAM LEAKAGE =       10596.5770

            TOTAL IN =    76607562.8440              TOTAL IN =       72921.5096

          OUT:                                     OUT:
          ----                                     ----
             STORAGE =      902032.6262               STORAGE =        1560.7754
       CONSTANT HEAD =           0.0000         CONSTANT HEAD =           0.0000
               WELLS =    22378027.5043                 WELLS =       30654.8322
            RECHARGE =           0.0000              RECHARGE =           0.0000
      STREAM LEAKAGE =    53327504.4719        STREAM LEAKAGE =       40705.8942

           TOTAL OUT =    76607564.6024             TOTAL OUT =       72921.5017

            IN - OUT =          -1.7584              IN - OUT =       7.8723E-03

 PERCENT DISCREPANCY =          -0.00     PERCENT DISCREPANCY =           0.00






         TIME SUMMARY AT END OF TIME STEP    1 IN STRESS PERIOD    8
                    SECONDS     MINUTES      HOURS       DAYS        YEARS
                    -----------------------------------------------------------
   TIME STEP LENGTH 7.86240E+06 1.31040E+05  2184.0      91.000     0.24914    
 STRESS PERIOD TIME 7.86240E+06 1.31040E+05  2184.0      91.000     0.24914    
         TOTAL TIME 6.30720E+07 1.05120E+06  17520.      730.00      1.9986    
1
1
                            STRESS PERIOD NO.    9, LENGTH =   92.00000    
                            -----------------------------------------------

                              NUMBER OF TIME STEPS =     1

                               MULTIPLIER FOR DELT =     1.500

                            INITIAL TIME STEP SIZE =   92.00000    

 WELL NO.  LAYER   ROW   COL   STRESS RATE         
 --------------------------------------------------
      1      1     14      6       0.000    
      2      1      3      9       0.000    
      3      1     20     10       0.000    
      4      1     14     20       0.000    
      5      1     17     24      -1629.    
      6      1      9     25     -0.1155E+05
      7      1      8     20      -8674.    
      8      1     10     13      -8797.    

      8 WELLS

                 RECHARGE =  5.000000E-04

 REUSING STREAM SEGMENT DATA FROM LAST STRESS PERIOD
 
 SOLVING FOR HEAD 


     6 CALLS TO PCG ROUTINE FOR TIME STEP   1 IN STRESS PERIOD    9
    23 TOTAL ITERATIONS

 OUTPUT CONTROL FOR STRESS PERIOD    9   TIME STEP    1
    SAVE BUDGET
    SAVE HEAD FOR ALL LAYERS
    PRINT HEAD FOR ALL LAYERS
 UBDSV2 SAVING "STREAMFLOW OUT  " ON UNIT  50 AT TIME STEP  1, STRESS PERIOD   9



 STREAM LISTING     PERIOD      9   STEP        1

 LAYER ROW COL. STREAM  RCH.  FLOW INTO     FLOW TO   FLOW OUT OF   OVRLND.     DIRECT     STREAM       STREAM     STREAM     STREAM   STREAMBED  STREAMBED
                SEG.NO.  NO.  STRM. RCH.    AQUIFER    STRM. RCH.    RUNOFF     PRECIP       ET          HEAD       DEPTH      WIDTH   CONDCTNC.   GRADIENT

   1   13    1     1     1    1.0000E+05 -1.4744E+03   1.0147E+05  0.000E+00  0.000E+00  0.000E+00  4.84067E+01  1.453E-01  2.000E+01  2.000E+04 -7.372E-02
   1   13    2     1     2    1.0147E+05 -2.3943E+03   1.0387E+05  0.000E+00  0.000E+00  0.000E+00  4.79310E+01  1.470E-01  2.000E+01  2.000E+04 -1.197E-01
   1   14    3     1     3    1.0387E+05 -3.8435E+02   1.0425E+05  0.000E+00  0.000E+00  0.000E+00  4.74550E+01  1.481E-01  2.000E+01  2.000E+04 -1.922E-02
   1   15    4     1     4    1.0425E+05 -3.6095E+02   1.0461E+05  0.000E+00  0.000E+00  0.000E+00  4.69780E+01  1.485E-01  2.000E+01  2.000E+04 -1.805E-02
   1   16    5     1     5    1.0461E+05 -1.4686E+03   1.0608E+05  0.000E+00  0.000E+00  0.000E+00  4.65015E+01  1.492E-01  2.000E+01  2.000E+04 -7.343E-02
   1   16    6     1     6    1.0608E+05 -9.2951E+02   1.0701E+05  0.000E+00  0.000E+00  0.000E+00  4.60253E+01  1.503E-01  2.000E+01  2.000E+04 -4.648E-02
   1   16    7     1     7    1.0701E+05 -9.1268E+02   1.0792E+05  0.000E+00  0.000E+00  0.000E+00  4.55488E+01  1.510E-01  2.000E+01  2.000E+04 -4.563E-02
   1   16    8     1     8    1.0792E+05 -9.0801E+02   1.0883E+05  0.000E+00  0.000E+00  0.000E+00  4.50723E+01  1.518E-01  2.000E+01  2.000E+04 -4.540E-02
   1   16    9     1     9    1.0883E+05 -8.9988E+02   1.0973E+05  0.000E+00  0.000E+00  0.000E+00  4.45957E+01  1.526E-01  2.000E+01  2.000E+04 -4.499E-02
   1   16   10     1    10    1.0973E+05 -8.8948E+02   1.1062E+05  0.000E+00  0.000E+00  0.000E+00  4.41192E+01  1.533E-01  2.000E+01  2.000E+04 -4.447E-02
   1   16   11     1    11    1.1062E+05 -8.9354E+02   1.1152E+05  0.000E+00  0.000E+00  0.000E+00  4.36427E+01  1.541E-01  2.000E+01  2.000E+04 -4.468E-02
   1   16   12     1    12    1.1152E+05 -1.3741E+03   1.1289E+05  0.000E+00  0.000E+00  0.000E+00  4.31664E+01  1.550E-01  2.000E+01  2.000E+04 -6.871E-02
   1   15   13     1    13    1.1289E+05 -7.8780E+02   1.1368E+05  0.000E+00  0.000E+00  0.000E+00  4.26900E+01  1.559E-01  2.000E+01  2.000E+04 -3.939E-02
   1   14   14     1    14    1.1368E+05 -5.6947E+02   1.1425E+05  0.000E+00  0.000E+00  0.000E+00  4.22133E+01  1.565E-01  2.000E+01  2.000E+04 -2.847E-02
   1   13   15     1    15    1.1425E+05 -4.4945E+02   1.1470E+05  0.000E+00  0.000E+00  0.000E+00  4.17364E+01  1.569E-01  2.000E+01  2.000E+04 -2.247E-02
   1   12   16     1    16    1.1470E+05 -5.2290E+02   1.1522E+05  0.000E+00  0.000E+00  0.000E+00  4.12595E+01  1.573E-01  2.000E+01  2.000E+04 -2.614E-02
   1   12   17     1    17    1.1522E+05 -6.2832E+02   1.1585E+05  0.000E+00  0.000E+00  0.000E+00  4.07827E+01  1.577E-01  2.000E+01  2.000E+04 -3.142E-02
   1   12   18     1    18    1.1585E+05 -5.7375E+02   1.1642E+05  0.000E+00  0.000E+00  0.000E+00  4.03060E+01  1.582E-01  2.000E+01  2.000E+04 -2.869E-02
   1   12   19     1    19    1.1642E+05 -4.7529E+02   1.1690E+05  0.000E+00  0.000E+00  0.000E+00  3.98291E+01  1.587E-01  2.000E+01  2.000E+04 -2.376E-02
   1   13   20     1    20    1.1690E+05 -7.7407E+02   1.1767E+05  0.000E+00  0.000E+00  0.000E+00  3.93524E+01  1.592E-01  2.000E+01  2.000E+04 -3.870E-02
   1   14   21     1    21    1.1767E+05 -1.0937E+03   1.1876E+05  0.000E+00  0.000E+00  0.000E+00  3.88758E+01  1.599E-01  2.000E+01  2.000E+04 -5.469E-02
   1   14   22     1    22    1.1876E+05  5.1190E+03   1.1365E+05  0.000E+00  0.000E+00  0.000E+00  3.83969E+01  1.583E-01  2.000E+01  2.000E+04  2.560E-01
   1    9   30     2     1    5.0000E+04 -1.3617E+02   5.0136E+04  0.000E+00  0.000E+00  0.000E+00  4.02410E+01  1.160E-01  2.000E+01  2.000E+04 -6.808E-03
   1    9   29     2     2    5.0136E+04 -3.6040E+02   5.0497E+04  0.000E+00  0.000E+00  0.000E+00  3.99913E+01  1.163E-01  2.000E+01  2.000E+04 -1.802E-02
   1    9   28     2     3    5.0497E+04 -3.8136E+02   5.0878E+04  0.000E+00  0.000E+00  0.000E+00  3.97418E+01  1.168E-01  2.000E+01  2.000E+04 -1.907E-02
   1    9   27     2     4    5.0878E+04  5.8906E+02   5.0289E+04  0.000E+00  0.000E+00  0.000E+00  3.94917E+01  1.167E-01  2.000E+01  2.000E+04  2.945E-02
   1   10   26     2     5    5.0289E+04  2.2276E+03   4.8061E+04  0.000E+00  0.000E+00  0.000E+00  3.92397E+01  1.147E-01  2.000E+01  2.000E+04  1.114E-01
   1   11   25     2     6    4.8061E+04  1.4120E+03   4.6649E+04  0.000E+00  0.000E+00  0.000E+00  3.89871E+01  1.121E-01  2.000E+01  2.000E+04  7.060E-02
   1   12   24     2     7    4.6649E+04  1.2735E+02   4.6522E+04  0.000E+00  0.000E+00  0.000E+00  3.87361E+01  1.111E-01  2.000E+01  2.000E+04  6.368E-03
   1   13   23     2     8    4.6522E+04 -2.7939E+01   4.6550E+04  0.000E+00  0.000E+00  0.000E+00  3.84860E+01  1.110E-01  2.000E+01  2.000E+04 -1.397E-03
   1   14   22     2     9    4.6550E+04  1.8736E+03   4.4676E+04  0.000E+00  0.000E+00  0.000E+00  3.82347E+01  1.097E-01  2.000E+01  2.000E+04  9.368E-02
   1   14   22     3     1    1.5832E+05 -8.4951E+03   1.6682E+05  0.000E+00  0.000E+00  0.000E+00  3.77162E+01  1.607E-01  2.000E+01  2.000E+04 -4.248E-01
   1   15   23     3     2    1.6682E+05 -3.8144E+02   1.6720E+05  0.000E+00  0.000E+00  0.000E+00  3.68300E+01  1.633E-01  2.000E+01  2.000E+04 -1.907E-02
   1   15   24     3     3    1.6720E+05 -2.5805E+01   1.6722E+05  0.000E+00  0.000E+00  0.000E+00  3.59412E+01  1.634E-01  2.000E+01  2.000E+04 -1.290E-03
   1   15   25     3     4    1.6722E+05 -9.7855E+01   1.6732E+05  0.000E+00  0.000E+00  0.000E+00  3.50523E+01  1.634E-01  2.000E+01  2.000E+04 -4.893E-03
   1   15   26     3     5    1.6732E+05 -2.2308E+02   1.6755E+05  0.000E+00  0.000E+00  0.000E+00  3.41635E+01  1.635E-01  2.000E+01  2.000E+04 -1.115E-02
   1   16   27     3     6    1.6755E+05 -2.1892E+02   1.6776E+05  0.000E+00  0.000E+00  0.000E+00  3.32748E+01  1.637E-01  2.000E+01  2.000E+04 -1.095E-02
   1   17   28     3     7    1.6776E+05 -1.3057E+03   1.6907E+05  0.000E+00  0.000E+00  0.000E+00  3.23863E+01  1.641E-01  2.000E+01  2.000E+04 -6.528E-02
   1   18   29     3     8    1.6907E+05 -2.6371E+03   1.7171E+05  0.000E+00  0.000E+00  0.000E+00  3.14986E+01  1.653E-01  2.000E+01  2.000E+04 -1.319E-01
   1   18   30     3     9    1.7171E+05 -3.0036E+03   1.7471E+05  0.000E+00  0.000E+00  0.000E+00  3.06113E+01  1.669E-01  2.000E+01  2.000E+04 -1.502E-01



1
              HEAD IN LAYER   1 AT END OF TIME STEP   1 IN STRESS PERIOD    9
  ---------------------------------------------------------------------------

          1      2      3      4      5      6      7      8      9     10
         11     12     13     14     15     16     17     18     19     20
         21     22     23     24     25     26     27     28     29     30
 .........................................................................
   1  ****** ****** ****** ****** ****** ****** ****** ****** ****** ******
      ****** ****** ****** ****** ****** ****** ****** ****** ****** ******
      ****** ****** ****** ****** ****** ****** ****** ****** ****** ******
   2  ****** ****** ****** ****** ****** ****** ****** ****** ****** ******
      ****** ****** ****** ****** ****** ****** ****** ****** ****** ******
      ****** ****** ****** ****** ****** ****** ****** ****** ****** ******
   3  ****** ****** ****** ****** ****** ****** ****** ****** ****** ******
      ****** ****** ****** ****** ****** ****** ****** ****** ****** ******
      ****** ****** ****** ****** ****** ****** ****** ****** ****** ******
   4  ****** ****** ****** ****** ****** ****** ****** ****** ****** ******
      ****** ****** ****** ****** ****** ****** ****** ****** ****** ******
      ****** ****** ****** ****** ****** ****** ****** ****** ****** ******
   5  ****** ****** ****** ****** ****** ****** ****** ****** ****** ******
      ****** ****** ****** ****** ****** ****** ****** ****** ****** ******
      ****** ****** ****** ****** ****** ****** ****** ****** ****** ******
   6  ****** ****** ****** ****** ****** ****** ****** ****** ****** ******
      ****** ****** ****** ****** ****** ****** ****** ****** ****** ******
      ****** ****** ****** ****** ****** ****** ****** ****** ****** ******
   7  ****** ****** ****** ****** ****** ****** ****** ****** ****** ******
      ****** ****** ****** ****** ****** ****** ****** ****** ****** ******
      ****** ****** ****** ****** ****** ****** ****** ****** ****** ******
   8  ****** ****** ****** ****** ****** ****** ****** ****** ****** ******
      ****** ****** ****** ****** ****** ****** ****** ****** ****** ******
      ****** ****** ****** ****** ****** ****** ****** ****** ****** ******
   9  ****** ****** ****** ****** ****** ****** ****** ****** ****** ******
      ****** ****** ****** ****** ****** ****** ****** ****** ****** ******
      ****** ****** ****** ****** ****** ****** ****** ****** ****** ******
  10  ****** ****** ****** ****** ****** ****** ****** ****** ****** ******
      ****** ****** ****** ****** ****** ****** ****** ****** ****** ******
      ****** ****** ****** ****** ****** ****** ****** ****** ****** ******
  11  ****** ****** ****** ****** ****** ****** ****** ****** ****** ******
      ****** ****** ****** ****** ****** ****** ****** ****** ****** ******
      ****** ****** ****** ****** ****** ****** ****** ****** ****** ******
  12  ****** ****** ****** ****** ****** ****** ****** ****** ****** ******
      ****** ****** ****** ****** ****** ****** ****** ****** ****** ******
      ****** ****** ****** ****** ****** ****** ****** ****** ****** ******
  13  ****** ****** ****** ****** ****** ****** ****** ****** ****** ******
      ****** ****** ****** ****** ****** ****** ****** ****** ****** ******
      ****** ****** ****** ****** ****** ****** ****** ****** ****** ******
  14  ****** ****** ****** ****** ****** ****** ****** ****** ****** ******
      ****** ****** ****** ****** ****** ****** ****** ****** ****** ******
      ****** ****** ****** ****** ****** ****** ****** ****** ****** ******
  15  ****** ****** ****** ****** ****** ****** ****** ****** ****** ******
      ****** ****** ****** ****** ****** ****** ****** ****** ****** ******
      ****** ****** ****** ****** ****** ****** ****** ****** ****** ******
  16  ****** ****** ****** ****** ****** ****** ****** ****** ****** ******
      ****** ****** ****** ****** ****** ****** ****** ****** ****** ******
      ****** ****** ****** ****** ****** ****** ****** ****** ****** ******
  17  ****** ****** ****** ****** ****** ****** ****** ****** ****** ******
      ****** ****** ****** ****** ****** ****** ****** ****** ****** ******
      ****** ****** ****** ****** ****** ****** ****** ****** ****** ******
  18  ****** ****** ****** ****** ****** ****** ****** ****** ****** ******
      ****** ****** ****** ****** ****** ****** ****** ****** ****** ******
      ****** ****** ****** ****** ****** ****** ****** ****** ****** ******
  19  ****** ****** ****** ****** ****** ****** ****** ****** ****** ******
      ****** ****** ****** ****** ****** ****** ****** ****** ****** ******
      ****** ****** ****** ****** ****** ****** ****** ****** ****** ******
  20  ****** ****** ****** ****** ****** ****** ****** ****** ****** ******
      ****** ****** ****** ****** ****** ****** ****** ****** ****** ******
      ****** ****** ****** ****** ****** ****** ****** ****** ****** ******
  21  ****** ****** ****** ****** ****** ****** ****** ****** ****** ******
      ****** ****** ****** ****** ****** ****** ****** ****** ****** ******
      ****** ****** ****** ****** ****** ****** ****** ****** ****** ******
  22  ****** ****** ****** ****** ****** ****** ****** ****** ****** ******
      ****** ****** ****** ****** ****** ****** ****** ****** ****** ******
      ****** ****** ****** ****** ****** ****** ****** ****** ****** ******
  23  ****** ****** ****** ****** ****** ****** ****** ****** ****** ******
      ****** ****** ****** ****** ****** ****** ****** ****** ****** ******
      ****** ****** ****** ****** ****** ****** ****** ****** ****** ******
  24  ****** ****** ****** ****** ****** ****** ****** ****** ****** ******
      ****** ****** ****** ****** ****** ****** ****** ****** ****** ******
      ****** ****** ****** ****** ****** ****** ****** ****** ****** ******
  25  ****** ****** ****** ****** ****** ****** ****** ****** ****** ******
      ****** ****** ****** ****** ****** ****** ****** ****** ****** ******
      ****** ****** ****** ****** ****** ****** ****** ****** ****** ******

 HEAD WILL BE SAVED ON UNIT   51 AT END OF TIME STEP    1, STRESS PERIOD    9
1
  VOLUMETRIC BUDGET FOR ENTIRE MODEL AT END OF TIME STEP    1, STRESS PERIOD   9
  ------------------------------------------------------------------------------

     CUMULATIVE VOLUMES      L**3       RATES FOR THIS TIME STEP      L**3/T
     ------------------                 ------------------------

           IN:                                      IN:
           ---                                      ---
             STORAGE =    34266111.2443               STORAGE =        7377.8570
       CONSTANT HEAD =    22281781.6157         CONSTANT HEAD =       34187.5125
               WELLS =           0.0000                 WELLS =           0.0000
            RECHARGE =    18878400.0000              RECHARGE =       13800.0000
      STREAM LEAKAGE =     7318953.3191        STREAM LEAKAGE =       11348.5798

            TOTAL IN =    82745246.1790              TOTAL IN =       66713.9493

          OUT:                                     OUT:
          ----                                     ----
             STORAGE =      902032.6262               STORAGE =           0.0000
       CONSTANT HEAD =           0.0000         CONSTANT HEAD =           0.0000
               WELLS =    25198272.0664                 WELLS =       30654.8322
            RECHARGE =           0.0000              RECHARGE =           0.0000
      STREAM LEAKAGE =    56644943.3159        STREAM LEAKAGE =       36059.1179

           TOTAL OUT =    82745248.0086             TOTAL OUT =       66713.9501

            IN - OUT =          -1.8296              IN - OUT =      -7.7365E-04

 PERCENT DISCREPANCY =          -0.00     PERCENT DISCREPANCY =          -0.00






         TIME SUMMARY AT END OF TIME STEP    1 IN STRESS PERIOD    9
                    SECONDS     MINUTES      HOURS       DAYS        YEARS
                    -----------------------------------------------------------
   TIME STEP LENGTH 7.94880E+06 1.32480E+05  2208.0      92.000     0.25188    
 STRESS PERIOD TIME 7.94880E+06 1.32480E+05  2208.0      92.000     0.25188    
         TOTAL TIME 7.10208E+07 1.18368E+06  19728.      822.00      2.2505    
1
1
                            STRESS PERIOD NO.   10, LENGTH =   91.00000    
                            -----------------------------------------------

                              NUMBER OF TIME STEPS =     1

                               MULTIPLIER FOR DELT =     1.500

                            INITIAL TIME STEP SIZE =   91.00000    

 WELL NO.  LAYER   ROW   COL   STRESS RATE         
 --------------------------------------------------
      1      1     14      6       0.000    
      2      1      3      9       0.000    
      3      1     20     10       0.000    
      4      1     14     20       0.000    
      5      1     17     24      -1629.    
      6      1      9     25     -0.1155E+05
      7      1      8     20      -8674.    
      8      1     10     13      -8797.    

      8 WELLS

                 RECHARGE =  2.000000E-03

 REUSING STREAM SEGMENT DATA FROM LAST STRESS PERIOD
 
 SOLVING FOR HEAD 


     7 CALLS TO PCG ROUTINE FOR TIME STEP   1 IN STRESS PERIOD   10
    26 TOTAL ITERATIONS

 OUTPUT CONTROL FOR STRESS PERIOD   10   TIME STEP    1
    SAVE BUDGET
    SAVE HEAD FOR ALL LAYERS
    PRINT HEAD FOR ALL LAYERS
 UBDSV2 SAVING "STREAMFLOW OUT  " ON UNIT  50 AT TIME STEP  1, STRESS PERIOD  10



 STREAM LISTING     PERIOD     10   STEP        1

 LAYER ROW COL. STREAM  RCH.  FLOW INTO     FLOW TO   FLOW OUT OF   OVRLND.     DIRECT     STREAM       STREAM     STREAM     STREAM   STREAMBED  STREAMBED
                SEG.NO.  NO.  STRM. RCH.    AQUIFER    STRM. RCH.    RUNOFF     PRECIP       ET          HEAD       DEPTH      WIDTH   CONDCTNC.   GRADIENT

   1   13    1     1     1    1.0000E+05 -1.9224E+03   1.0192E+05  0.000E+00  0.000E+00  0.000E+00  4.84068E+01  1.455E-01  2.000E+01  2.000E+04 -9.612E-02
   1   13    2     1     2    1.0192E+05 -2.8905E+03   1.0481E+05  0.000E+00  0.000E+00  0.000E+00  4.79316E+01  1.476E-01  2.000E+01  2.000E+04 -1.445E-01
   1   14    3     1     3    1.0481E+05 -5.7007E+02   1.0538E+05  0.000E+00  0.000E+00  0.000E+00  4.74559E+01  1.490E-01  2.000E+01  2.000E+04 -2.850E-02
   1   15    4     1     4    1.0538E+05 -5.5975E+02   1.0594E+05  0.000E+00  0.000E+00  0.000E+00  4.69791E+01  1.495E-01  2.000E+01  2.000E+04 -2.799E-02
   1   16    5     1     5    1.0594E+05 -2.0876E+03   1.0803E+05  0.000E+00  0.000E+00  0.000E+00  4.65029E+01  1.506E-01  2.000E+01  2.000E+04 -1.044E-01
   1   16    6     1     6    1.0803E+05 -1.2913E+03   1.0932E+05  0.000E+00  0.000E+00  0.000E+00  4.60271E+01  1.521E-01  2.000E+01  2.000E+04 -6.457E-02
   1   16    7     1     7    1.0932E+05 -1.2566E+03   1.1058E+05  0.000E+00  0.000E+00  0.000E+00  4.55509E+01  1.531E-01  2.000E+01  2.000E+04 -6.283E-02
   1   16    8     1     8    1.1058E+05 -1.2465E+03   1.1182E+05  0.000E+00  0.000E+00  0.000E+00  4.50746E+01  1.542E-01  2.000E+01  2.000E+04 -6.233E-02
   1   16    9     1     9    1.1182E+05 -1.2370E+03   1.1306E+05  0.000E+00  0.000E+00  0.000E+00  4.45984E+01  1.552E-01  2.000E+01  2.000E+04 -6.185E-02
   1   16   10     1    10    1.1306E+05 -1.2269E+03   1.1429E+05  0.000E+00  0.000E+00  0.000E+00  4.41221E+01  1.562E-01  2.000E+01  2.000E+04 -6.134E-02
   1   16   11     1    11    1.1429E+05 -1.2346E+03   1.1552E+05  0.000E+00  0.000E+00  0.000E+00  4.36459E+01  1.572E-01  2.000E+01  2.000E+04 -6.173E-02
   1   16   12     1    12    1.1552E+05 -1.9434E+03   1.1747E+05  0.000E+00  0.000E+00  0.000E+00  4.31699E+01  1.585E-01  2.000E+01  2.000E+04 -9.717E-02
   1   15   13     1    13    1.1747E+05 -1.3729E+03   1.1884E+05  0.000E+00  0.000E+00  0.000E+00  4.26940E+01  1.599E-01  2.000E+01  2.000E+04 -6.864E-02
   1   14   14     1    14    1.1884E+05 -1.1609E+03   1.2000E+05  0.000E+00  0.000E+00  0.000E+00  4.22177E+01  1.609E-01  2.000E+01  2.000E+04 -5.805E-02
   1   13   15     1    15    1.2000E+05 -1.0302E+03   1.2103E+05  0.000E+00  0.000E+00  0.000E+00  4.17413E+01  1.618E-01  2.000E+01  2.000E+04 -5.151E-02
   1   12   16     1    16    1.2103E+05 -1.0810E+03   1.2211E+05  0.000E+00  0.000E+00  0.000E+00  4.12649E+01  1.626E-01  2.000E+01  2.000E+04 -5.405E-02
   1   12   17     1    17    1.2211E+05 -1.0520E+03   1.2316E+05  0.000E+00  0.000E+00  0.000E+00  4.07885E+01  1.635E-01  2.000E+01  2.000E+04 -5.260E-02
   1   12   18     1    18    1.2316E+05 -9.9363E+02   1.2416E+05  0.000E+00  0.000E+00  0.000E+00  4.03120E+01  1.643E-01  2.000E+01  2.000E+04 -4.968E-02
   1   12   19     1    19    1.2416E+05 -9.9200E+02   1.2515E+05  0.000E+00  0.000E+00  0.000E+00  3.98356E+01  1.651E-01  2.000E+01  2.000E+04 -4.960E-02
   1   13   20     1    20    1.2515E+05 -1.2949E+03   1.2644E+05  0.000E+00  0.000E+00  0.000E+00  3.93592E+01  1.660E-01  2.000E+01  2.000E+04 -6.474E-02
   1   14   21     1    21    1.2644E+05 -1.6192E+03   1.2806E+05  0.000E+00  0.000E+00  0.000E+00  3.88831E+01  1.672E-01  2.000E+01  2.000E+04 -8.096E-02
   1   14   22     1    22    1.2806E+05  4.9892E+03   1.2307E+05  0.000E+00  0.000E+00  0.000E+00  3.84045E+01  1.658E-01  2.000E+01  2.000E+04  2.495E-01
   1    9   30     2     1    5.0000E+04 -5.4987E+02   5.0550E+04  0.000E+00  0.000E+00  0.000E+00  4.02412E+01  1.162E-01  2.000E+01  2.000E+04 -2.749E-02
   1    9   29     2     2    5.0550E+04 -7.7178E+02   5.1322E+04  0.000E+00  0.000E+00  0.000E+00  3.99922E+01  1.172E-01  2.000E+01  2.000E+04 -3.859E-02
   1    9   28     2     3    5.1322E+04 -7.9183E+02   5.2113E+04  0.000E+00  0.000E+00  0.000E+00  3.97432E+01  1.182E-01  2.000E+01  2.000E+04 -3.959E-02
   1    9   27     2     4    5.2113E+04  3.7521E+01   5.2076E+04  0.000E+00  0.000E+00  0.000E+00  3.94938E+01  1.188E-01  2.000E+01  2.000E+04  1.876E-03
   1   10   26     2     5    5.2076E+04  1.6758E+03   5.0400E+04  0.000E+00  0.000E+00  0.000E+00  3.92426E+01  1.176E-01  2.000E+01  2.000E+04  8.379E-02
   1   11   25     2     6    5.0400E+04  8.8472E+02   4.9515E+04  0.000E+00  0.000E+00  0.000E+00  3.89908E+01  1.158E-01  2.000E+01  2.000E+04  4.424E-02
   1   12   24     2     7    4.9515E+04 -3.4970E+02   4.9865E+04  0.000E+00  0.000E+00  0.000E+00  3.87404E+01  1.154E-01  2.000E+01  2.000E+04 -1.749E-02
   1   13   23     2     8    4.9865E+04 -1.7643E+02   5.0042E+04  0.000E+00  0.000E+00  0.000E+00  3.84908E+01  1.158E-01  2.000E+01  2.000E+04 -8.821E-03
   1   14   22     2     9    5.0042E+04  1.6948E+03   4.8347E+04  0.000E+00  0.000E+00  0.000E+00  3.82397E+01  1.147E-01  2.000E+01  2.000E+04  8.474E-02
   1   14   22     3     1    1.7142E+05 -8.6219E+03   1.8004E+05  0.000E+00  0.000E+00  0.000E+00  3.77239E+01  1.683E-01  2.000E+01  2.000E+04 -4.311E-01
   1   15   23     3     2    1.8004E+05 -5.4414E+02   1.8059E+05  0.000E+00  0.000E+00  0.000E+00  3.68376E+01  1.710E-01  2.000E+01  2.000E+04 -2.721E-02
   1   15   24     3     3    1.8059E+05 -1.6307E+02   1.8075E+05  0.000E+00  0.000E+00  0.000E+00  3.59489E+01  1.712E-01  2.000E+01  2.000E+04 -8.154E-03
   1   15   25     3     4    1.8075E+05 -2.3852E+02   1.8099E+05  0.000E+00  0.000E+00  0.000E+00  3.50602E+01  1.713E-01  2.000E+01  2.000E+04 -1.193E-02
   1   15   26     3     5    1.8099E+05 -3.8537E+02   1.8137E+05  0.000E+00  0.000E+00  0.000E+00  3.41715E+01  1.715E-01  2.000E+01  2.000E+04 -1.927E-02
   1   16   27     3     6    1.8137E+05 -4.0488E+02   1.8178E+05  0.000E+00  0.000E+00  0.000E+00  3.32828E+01  1.717E-01  2.000E+01  2.000E+04 -2.024E-02
   1   17   28     3     7    1.8178E+05 -1.8267E+03   1.8361E+05  0.000E+00  0.000E+00  0.000E+00  3.23945E+01  1.723E-01  2.000E+01  2.000E+04 -9.133E-02
   1   18   29     3     8    1.8361E+05 -3.1892E+03   1.8679E+05  0.000E+00  0.000E+00  0.000E+00  3.15071E+01  1.737E-01  2.000E+01  2.000E+04 -1.595E-01
   1   18   30     3     9    1.8679E+05 -3.4295E+03   1.9022E+05  0.000E+00  0.000E+00  0.000E+00  3.06200E+01  1.756E-01  2.000E+01  2.000E+04 -1.715E-01



1
              HEAD IN LAYER   1 AT END OF TIME STEP   1 IN STRESS PERIOD   10
  ---------------------------------------------------------------------------

          1      2      3      4      5      6      7      8      9     10
         11     12     13     14     15     16     17     18     19     20
         21     22     23     24     25     26     27     28     29     30
 .........................................................................
   1  ****** ****** ****** ****** ****** ****** ****** ****** ****** ******
      ****** ****** ****** ****** ****** ****** ****** ****** ****** ******
      ****** ****** ****** ****** ****** ****** ****** ****** ****** ******
   2  ****** ****** ****** ****** ****** ****** ****** ****** ****** ******
      ****** ****** ****** ****** ****** ****** ****** ****** ****** ******
      ****** ****** ****** ****** ****** ****** ****** ****** ****** ******
   3  ****** ****** ****** ****** ****** ****** ****** ****** ****** ******
      ****** ****** ****** ****** ****** ****** ****** ****** ****** ******
      ****** ****** ****** ****** ****** ****** ****** ****** ****** ******
   4  ****** ****** ****** ****** ****** ****** ****** ****** ****** ******
      ****** ****** ****** ****** ****** ****** ****** ****** ****** ******
      ****** ****** ****** ****** ****** ****** ****** ****** ****** ******
   5  ****** ****** ****** ****** ****** ****** ****** ****** ****** ******
      ****** ****** ****** ****** ****** ****** ****** ****** ****** ******
      ****** ****** ****** ****** ****** ****** ****** ****** ****** ******
   6  ****** ****** ****** ****** ****** ****** ****** ****** ****** ******
      ****** ****** ****** ****** ****** ****** ****** ****** ****** ******
      ****** ****** ****** ****** ****** ****** ****** ****** ****** ******
   7  ****** ****** ****** ****** ****** ****** ****** ****** ****** ******
      ****** ****** ****** ****** ****** ****** ****** ****** ****** ******
      ****** ****** ****** ****** ****** ****** ****** ****** ****** ******
   8  ****** ****** ****** ****** ****** ****** ****** ****** ****** ******
      ****** ****** ****** ****** ****** ****** ****** ****** ****** ******
      ****** ****** ****** ****** ****** ****** ****** ****** ****** ******
   9  ****** ****** ****** ****** ****** ****** ****** ****** ****** ******
      ****** ****** ****** ****** ****** ****** ****** ****** ****** ******
      ****** ****** ****** ****** ****** ****** ****** ****** ****** ******
  10  ****** ****** ****** ****** ****** ****** ****** ****** ****** ******
      ****** ****** ****** ****** ****** ****** ****** ****** ****** ******
      ****** ****** ****** ****** ****** ****** ****** ****** ****** ******
  11  ****** ****** ****** ****** ****** ****** ****** ****** ****** ******
      ****** ****** ****** ****** ****** ****** ****** ****** ****** ******
      ****** ****** ****** ****** ****** ****** ****** ****** ****** ******
  12  ****** ****** ****** ****** ****** ****** ****** ****** ****** ******
      ****** ****** ****** ****** ****** ****** ****** ****** ****** ******
      ****** ****** ****** ****** ****** ****** ****** ****** ****** ******
  13  ****** ****** ****** ****** ****** ****** ****** ****** ****** ******
      ****** ****** ****** ****** ****** ****** ****** ****** ****** ******
      ****** ****** ****** ****** ****** ****** ****** ****** ****** ******
  14  ****** ****** ****** ****** ****** ****** ****** ****** ****** ******
      ****** ****** ****** ****** ****** ****** ****** ****** ****** ******
      ****** ****** ****** ****** ****** ****** ****** ****** ****** ******
  15  ****** ****** ****** ****** ****** ****** ****** ****** ****** ******
      ****** ****** ****** ****** ****** ****** ****** ****** ****** ******
      ****** ****** ****** ****** ****** ****** ****** ****** ****** ******
  16  ****** ****** ****** ****** ****** ****** ****** ****** ****** ******
      ****** ****** ****** ****** ****** ****** ****** ****** ****** ******
      ****** ****** ****** ****** ****** ****** ****** ****** ****** ******
  17  ****** ****** ****** ****** ****** ****** ****** ****** ****** ******
      ****** ****** ****** ****** ****** ****** ****** ****** ****** ******
      ****** ****** ****** ****** ****** ****** ****** ****** ****** ******
  18  ****** ****** ****** ****** ****** ****** ****** ****** ****** ******
      ****** ****** ****** ****** ****** ****** ****** ****** ****** ******
      ****** ****** ****** ****** ****** ****** ****** ****** ****** ******
  19  ****** ****** ****** ****** ****** ****** ****** ****** ****** ******
      ****** ****** ****** ****** ****** ****** ****** ****** ****** ******
      ****** ****** ****** ****** ****** ****** ****** ****** ****** ******
  20  ****** ****** ****** ****** ****** ****** ****** ****** ****** ******
      ****** ****** ****** ****** ****** ****** ****** ****** ****** ******
      ****** ****** ****** ****** ****** ****** ****** ****** ****** ******
  21  ****** ****** ****** ****** ****** ****** ****** ****** ****** ******
      ****** ****** ****** ****** ****** ****** ****** ****** ****** ******
      ****** ****** ****** ****** ****** ****** ****** ****** ****** ******
  22  ****** ****** ****** ****** ****** ****** ****** ****** ****** ******
      ****** ****** ****** ****** ****** ****** ****** ****** ****** ******
      ****** ****** ****** ****** ****** ****** ****** ****** ****** ******
  23  ****** ****** ****** ****** ****** ****** ****** ****** ****** ******
      ****** ****** ****** ****** ****** ****** ****** ****** ****** ******
      ****** ****** ****** ****** ****** ****** ****** ****** ****** ******
  24  ****** ****** ****** ****** ****** ****** ****** ****** ****** ******
      ****** ****** ****** ****** ****** ****** ****** ****** ****** ******
      ****** ****** ****** ****** ****** ****** ****** ****** ****** ******
  25  ****** ****** ****** ****** ****** ****** ****** ****** ****** ******
      ****** ****** ****** ****** ****** ****** ****** ****** ****** ******
      ****** ****** ****** ****** ****** ****** ****** ****** ****** ******

 HEAD WILL BE SAVED ON UNIT   51 AT END OF TIME STEP    1, STRESS PERIOD   10
1
  VOLUMETRIC BUDGET FOR ENTIRE MODEL AT END OF TIME STEP    1, STRESS PERIOD  10
  ------------------------------------------------------------------------------

     CUMULATIVE VOLUMES      L**3       RATES FOR THIS TIME STEP      L**3/T
     ------------------                 ------------------------

           IN:                                      IN:
           ---                                      ---
             STORAGE =    34266111.2443               STORAGE =           0.0000
       CONSTANT HEAD =    25125287.1745         CONSTANT HEAD =       31247.3138
               WELLS =           0.0000                 WELLS =           0.0000
            RECHARGE =    23901600.0000              RECHARGE =       55200.0000
      STREAM LEAKAGE =     8163623.4025        STREAM LEAKAGE =        9282.0888

            TOTAL IN =    91456621.8213              TOTAL IN =       95729.4027

          OUT:                                     OUT:
          ----                                     ----
             STORAGE =     2318735.6732               STORAGE =       15568.1654
       CONSTANT HEAD =           0.0000         CONSTANT HEAD =           0.0000
               WELLS =    27987861.7964                 WELLS =       30654.8322
            RECHARGE =           0.0000              RECHARGE =           0.0000
      STREAM LEAKAGE =    61150025.8414        STREAM LEAKAGE =       49506.4014

           TOTAL OUT =    91456623.3109             TOTAL OUT =       95729.3989

            IN - OUT =          -1.4896              IN - OUT =       3.7358E-03

 PERCENT DISCREPANCY =          -0.00     PERCENT DISCREPANCY =           0.00






         TIME SUMMARY AT END OF TIME STEP    1 IN STRESS PERIOD   10
                    SECONDS     MINUTES      HOURS       DAYS        YEARS
                    -----------------------------------------------------------
   TIME STEP LENGTH 7.86240E+06 1.31040E+05  2184.0      91.000     0.24914    
 STRESS PERIOD TIME 7.86240E+06 1.31040E+05  2184.0      91.000     0.24914    
         TOTAL TIME 7.88832E+07 1.31472E+06  21912.      913.00      2.4997    
1
1
                            STRESS PERIOD NO.   11, LENGTH =   91.00000    
                            -----------------------------------------------

                              NUMBER OF TIME STEPS =     1

                               MULTIPLIER FOR DELT =     1.500

                            INITIAL TIME STEP SIZE =   91.00000    

 WELL NO.  LAYER   ROW   COL   STRESS RATE         
 --------------------------------------------------
      1      1     14      6       0.000    
      2      1      3      9       0.000    
      3      1     20     10       0.000    
      4      1     14     20       0.000    
      5      1     17     24      -1629.    
      6      1      9     25     -0.1155E+05
      7      1      8     20      -8674.    
      8      1     10     13      -8797.    

      8 WELLS

                 RECHARGE =   0.00000    

 REUSING STREAM SEGMENT DATA FROM LAST STRESS PERIOD
 
 SOLVING FOR HEAD 


     7 CALLS TO PCG ROUTINE FOR TIME STEP   1 IN STRESS PERIOD   11
    26 TOTAL ITERATIONS

 OUTPUT CONTROL FOR STRESS PERIOD   11   TIME STEP    1
    SAVE BUDGET
    SAVE HEAD FOR ALL LAYERS
    PRINT HEAD FOR ALL LAYERS
 UBDSV2 SAVING "STREAMFLOW OUT  " ON UNIT  50 AT TIME STEP  1, STRESS PERIOD  11



 STREAM LISTING     PERIOD     11   STEP        1

 LAYER ROW COL. STREAM  RCH.  FLOW INTO     FLOW TO   FLOW OUT OF   OVRLND.     DIRECT     STREAM       STREAM     STREAM     STREAM   STREAMBED  STREAMBED
                SEG.NO.  NO.  STRM. RCH.    AQUIFER    STRM. RCH.    RUNOFF     PRECIP       ET          HEAD       DEPTH      WIDTH   CONDCTNC.   GRADIENT

   1   13    1     1     1    1.0000E+05 -1.3514E+03   1.0135E+05  0.000E+00  0.000E+00  0.000E+00  4.84066E+01  1.452E-01  2.000E+01  2.000E+04 -6.757E-02
   1   13    2     1     2    1.0135E+05 -2.2545E+03   1.0361E+05  0.000E+00  0.000E+00  0.000E+00  4.79309E+01  1.468E-01  2.000E+01  2.000E+04 -1.127E-01
   1   14    3     1     3    1.0361E+05 -3.3858E+02   1.0394E+05  0.000E+00  0.000E+00  0.000E+00  4.74547E+01  1.479E-01  2.000E+01  2.000E+04 -1.693E-02
   1   15    4     1     4    1.0394E+05 -3.1738E+02   1.0426E+05  0.000E+00  0.000E+00  0.000E+00  4.69777E+01  1.482E-01  2.000E+01  2.000E+04 -1.587E-02
   1   16    5     1     5    1.0426E+05 -1.3997E+03   1.0566E+05  0.000E+00  0.000E+00  0.000E+00  4.65012E+01  1.489E-01  2.000E+01  2.000E+04 -6.998E-02
   1   16    6     1     6    1.0566E+05 -8.7671E+02   1.0654E+05  0.000E+00  0.000E+00  0.000E+00  4.60249E+01  1.499E-01  2.000E+01  2.000E+04 -4.384E-02
   1   16    7     1     7    1.0654E+05 -8.5956E+02   1.0740E+05  0.000E+00  0.000E+00  0.000E+00  4.55483E+01  1.506E-01  2.000E+01  2.000E+04 -4.298E-02
   1   16    8     1     8    1.0740E+05 -8.5498E+02   1.0825E+05  0.000E+00  0.000E+00  0.000E+00  4.50718E+01  1.513E-01  2.000E+01  2.000E+04 -4.275E-02
   1   16    9     1     9    1.0825E+05 -8.4771E+02   1.0910E+05  0.000E+00  0.000E+00  0.000E+00  4.45952E+01  1.521E-01  2.000E+01  2.000E+04 -4.239E-02
   1   16   10     1    10    1.0910E+05 -8.3884E+02   1.0994E+05  0.000E+00  0.000E+00  0.000E+00  4.41187E+01  1.528E-01  2.000E+01  2.000E+04 -4.194E-02
   1   16   11     1    11    1.0994E+05 -8.4494E+02   1.1078E+05  0.000E+00  0.000E+00  0.000E+00  4.36421E+01  1.535E-01  2.000E+01  2.000E+04 -4.225E-02
   1   16   12     1    12    1.1078E+05 -1.2975E+03   1.1208E+05  0.000E+00  0.000E+00  0.000E+00  4.31657E+01  1.544E-01  2.000E+01  2.000E+04 -6.488E-02
   1   15   13     1    13    1.1208E+05 -6.8331E+02   1.1277E+05  0.000E+00  0.000E+00  0.000E+00  4.26893E+01  1.552E-01  2.000E+01  2.000E+04 -3.417E-02
   1   14   14     1    14    1.1277E+05 -4.5309E+02   1.1322E+05  0.000E+00  0.000E+00  0.000E+00  4.22125E+01  1.557E-01  2.000E+01  2.000E+04 -2.265E-02
   1   13   15     1    15    1.1322E+05 -3.2750E+02   1.1355E+05  0.000E+00  0.000E+00  0.000E+00  4.17355E+01  1.560E-01  2.000E+01  2.000E+04 -1.638E-02
   1   12   16     1    16    1.1355E+05 -4.0094E+02   1.1395E+05  0.000E+00  0.000E+00  0.000E+00  4.12585E+01  1.563E-01  2.000E+01  2.000E+04 -2.005E-02
   1   12   17     1    17    1.1395E+05 -5.4397E+02   1.1449E+05  0.000E+00  0.000E+00  0.000E+00  4.07817E+01  1.567E-01  2.000E+01  2.000E+04 -2.720E-02
   1   12   18     1    18    1.1449E+05 -4.9353E+02   1.1498E+05  0.000E+00  0.000E+00  0.000E+00  4.03048E+01  1.571E-01  2.000E+01  2.000E+04 -2.468E-02
   1   12   19     1    19    1.1498E+05 -3.7808E+02   1.1536E+05  0.000E+00  0.000E+00  0.000E+00  3.98279E+01  1.574E-01  2.000E+01  2.000E+04 -1.890E-02
   1   13   20     1    20    1.1536E+05 -6.8219E+02   1.1604E+05  0.000E+00  0.000E+00  0.000E+00  3.93511E+01  1.579E-01  2.000E+01  2.000E+04 -3.411E-02
   1   14   21     1    21    1.1604E+05 -1.0224E+03   1.1707E+05  0.000E+00  0.000E+00  0.000E+00  3.88745E+01  1.586E-01  2.000E+01  2.000E+04 -5.112E-02
   1   14   22     1    22    1.1707E+05  5.1389E+03   1.1193E+05  0.000E+00  0.000E+00  0.000E+00  3.83955E+01  1.569E-01  2.000E+01  2.000E+04  2.569E-01
   1    9   30     2     1    5.0000E+04 -6.1516E+01   5.0062E+04  0.000E+00  0.000E+00  0.000E+00  4.02409E+01  1.159E-01  2.000E+01  2.000E+04 -3.076E-03
   1    9   29     2     2    5.0062E+04 -2.8645E+02   5.0348E+04  0.000E+00  0.000E+00  0.000E+00  3.99911E+01  1.161E-01  2.000E+01  2.000E+04 -1.432E-02
   1    9   28     2     3    5.0348E+04 -3.0861E+02   5.0657E+04  0.000E+00  0.000E+00  0.000E+00  3.97416E+01  1.166E-01  2.000E+01  2.000E+04 -1.543E-02
   1    9   27     2     4    5.0657E+04  6.7809E+02   4.9978E+04  0.000E+00  0.000E+00  0.000E+00  3.94913E+01  1.163E-01  2.000E+01  2.000E+04  3.390E-02
   1   10   26     2     5    4.9978E+04  2.3306E+03   4.7648E+04  0.000E+00  0.000E+00  0.000E+00  3.92392E+01  1.142E-01  2.000E+01  2.000E+04  1.165E-01
   1   11   25     2     6    4.7648E+04  1.5156E+03   4.6132E+04  0.000E+00  0.000E+00  0.000E+00  3.89865E+01  1.115E-01  2.000E+01  2.000E+04  7.578E-02
   1   12   24     2     7    4.6132E+04  2.2412E+02   4.5908E+04  0.000E+00  0.000E+00  0.000E+00  3.87352E+01  1.102E-01  2.000E+01  2.000E+04  1.121E-02
   1   13   23     2     8    4.5908E+04  9.4719E+00   4.5899E+04  0.000E+00  0.000E+00  0.000E+00  3.84851E+01  1.101E-01  2.000E+01  2.000E+04  4.736E-04
   1   14   22     2     9    4.5899E+04  1.9022E+03   4.3996E+04  0.000E+00  0.000E+00  0.000E+00  3.82337E+01  1.087E-01  2.000E+01  2.000E+04  9.511E-02
   1   14   22     3     1    1.5592E+05 -8.4758E+03   1.6440E+05  0.000E+00  0.000E+00  0.000E+00  3.77148E+01  1.592E-01  2.000E+01  2.000E+04 -4.238E-01
   1   15   23     3     2    1.6440E+05 -3.5222E+02   1.6475E+05  0.000E+00  0.000E+00  0.000E+00  3.68285E+01  1.619E-01  2.000E+01  2.000E+04 -1.761E-02
   1   15   24     3     3    1.6475E+05  1.9829E+00   1.6475E+05  0.000E+00  0.000E+00  0.000E+00  3.59397E+01  1.620E-01  2.000E+01  2.000E+04  9.914E-05
   1   15   25     3     4    1.6475E+05 -6.9627E+01   1.6482E+05  0.000E+00  0.000E+00  0.000E+00  3.50509E+01  1.620E-01  2.000E+01  2.000E+04 -3.481E-03
   1   15   26     3     5    1.6482E+05 -1.8973E+02   1.6501E+05  0.000E+00  0.000E+00  0.000E+00  3.41621E+01  1.621E-01  2.000E+01  2.000E+04 -9.486E-03
   1   16   27     3     6    1.6501E+05 -1.8195E+02   1.6519E+05  0.000E+00  0.000E+00  0.000E+00  3.32733E+01  1.622E-01  2.000E+01  2.000E+04 -9.098E-03
   1   17   28     3     7    1.6519E+05 -1.2173E+03   1.6641E+05  0.000E+00  0.000E+00  0.000E+00  3.23848E+01  1.626E-01  2.000E+01  2.000E+04 -6.086E-02
   1   18   29     3     8    1.6641E+05 -2.5679E+03   1.6898E+05  0.000E+00  0.000E+00  0.000E+00  3.14970E+01  1.637E-01  2.000E+01  2.000E+04 -1.284E-01
   1   18   30     3     9    1.6898E+05 -2.9406E+03   1.7192E+05  0.000E+00  0.000E+00  0.000E+00  3.06097E+01  1.653E-01  2.000E+01  2.000E+04 -1.470E-01



1
              HEAD IN LAYER   1 AT END OF TIME STEP   1 IN STRESS PERIOD   11
  ---------------------------------------------------------------------------

          1      2      3      4      5      6      7      8      9     10
         11     12     13     14     15     16     17     18     19     20
         21     22     23     24     25     26     27     28     29     30
 .........................................................................
   1  ****** ****** ****** ****** ****** ****** ****** ****** ****** ******
      ****** ****** ****** ****** ****** ****** ****** ****** ****** ******
      ****** ****** ****** ****** ****** ****** ****** ****** ****** ******
   2  ****** ****** ****** ****** ****** ****** ****** ****** ****** ******
      ****** ****** ****** ****** ****** ****** ****** ****** ****** ******
      ****** ****** ****** ****** ****** ****** ****** ****** ****** ******
   3  ****** ****** ****** ****** ****** ****** ****** ****** ****** ******
      ****** ****** ****** ****** ****** ****** ****** ****** ****** ******
      ****** ****** ****** ****** ****** ****** ****** ****** ****** ******
   4  ****** ****** ****** ****** ****** ****** ****** ****** ****** ******
      ****** ****** ****** ****** ****** ****** ****** ****** ****** ******
      ****** ****** ****** ****** ****** ****** ****** ****** ****** ******
   5  ****** ****** ****** ****** ****** ****** ****** ****** ****** ******
      ****** ****** ****** ****** ****** ****** ****** ****** ****** ******
      ****** ****** ****** ****** ****** ****** ****** ****** ****** ******
   6  ****** ****** ****** ****** ****** ****** ****** ****** ****** ******
      ****** ****** ****** ****** ****** ****** ****** ****** ****** ******
      ****** ****** ****** ****** ****** ****** ****** ****** ****** ******
   7  ****** ****** ****** ****** ****** ****** ****** ****** ****** ******
      ****** ****** ****** ****** ****** ****** ****** ****** ****** ******
      ****** ****** ****** ****** ****** ****** ****** ****** ****** ******
   8  ****** ****** ****** ****** ****** ****** ****** ****** ****** ******
      ****** ****** ****** ****** ****** ****** ****** ****** ****** ******
      ****** ****** ****** ****** ****** ****** ****** ****** ****** ******
   9  ****** ****** ****** ****** ****** ****** ****** ****** ****** ******
      ****** ****** ****** ****** ****** ****** ****** ****** ****** ******
      ****** ****** ****** ****** ****** ****** ****** ****** ****** ******
  10  ****** ****** ****** ****** ****** ****** ****** ****** ****** ******
      ****** ****** ****** ****** ****** ****** ****** ****** ****** ******
      ****** ****** ****** ****** ****** ****** ****** ****** ****** ******
  11  ****** ****** ****** ****** ****** ****** ****** ****** ****** ******
      ****** ****** ****** ****** ****** ****** ****** ****** ****** ******
      ****** ****** ****** ****** ****** ****** ****** ****** ****** ******
  12  ****** ****** ****** ****** ****** ****** ****** ****** ****** ******
      ****** ****** ****** ****** ****** ****** ****** ****** ****** ******
      ****** ****** ****** ****** ****** ****** ****** ****** ****** ******
  13  ****** ****** ****** ****** ****** ****** ****** ****** ****** ******
      ****** ****** ****** ****** ****** ****** ****** ****** ****** ******
      ****** ****** ****** ****** ****** ****** ****** ****** ****** ******
  14  ****** ****** ****** ****** ****** ****** ****** ****** ****** ******
      ****** ****** ****** ****** ****** ****** ****** ****** ****** ******
      ****** ****** ****** ****** ****** ****** ****** ****** ****** ******
  15  ****** ****** ****** ****** ****** ****** ****** ****** ****** ******
      ****** ****** ****** ****** ****** ****** ****** ****** ****** ******
      ****** ****** ****** ****** ****** ****** ****** ****** ****** ******
  16  ****** ****** ****** ****** ****** ****** ****** ****** ****** ******
      ****** ****** ****** ****** ****** ****** ****** ****** ****** ******
      ****** ****** ****** ****** ****** ****** ****** ****** ****** ******
  17  ****** ****** ****** ****** ****** ****** ****** ****** ****** ******
      ****** ****** ****** ****** ****** ****** ****** ****** ****** ******
      ****** ****** ****** ****** ****** ****** ****** ****** ****** ******
  18  ****** ****** ****** ****** ****** ****** ****** ****** ****** ******
      ****** ****** ****** ****** ****** ****** ****** ****** ****** ******
      ****** ****** ****** ****** ****** ****** ****** ****** ****** ******
  19  ****** ****** ****** ****** ****** ****** ****** ****** ****** ******
      ****** ****** ****** ****** ****** ****** ****** ****** ****** ******
      ****** ****** ****** ****** ****** ****** ****** ****** ****** ******
  20  ****** ****** ****** ****** ****** ****** ****** ****** ****** ******
      ****** ****** ****** ****** ****** ****** ****** ****** ****** ******
      ****** ****** ****** ****** ****** ****** ****** ****** ****** ******
  21  ****** ****** ****** ****** ****** ****** ****** ****** ****** ******
      ****** ****** ****** ****** ****** ****** ****** ****** ****** ******
      ****** ****** ****** ****** ****** ****** ****** ****** ****** ******
  22  ****** ****** ****** ****** ****** ****** ****** ****** ****** ******
      ****** ****** ****** ****** ****** ****** ****** ****** ****** ******
      ****** ****** ****** ****** ****** ****** ****** ****** ****** ******
  23  ****** ****** ****** ****** ****** ****** ****** ****** ****** ******
      ****** ****** ****** ****** ****** ****** ****** ****** ****** ******
      ****** ****** ****** ****** ****** ****** ****** ****** ****** ******
  24  ****** ****** ****** ****** ****** ****** ****** ****** ****** ******
      ****** ****** ****** ****** ****** ****** ****** ****** ****** ******
      ****** ****** ****** ****** ****** ****** ****** ****** ****** ******
  25  ****** ****** ****** ****** ****** ****** ****** ****** ****** ******
      ****** ****** ****** ****** ****** ****** ****** ****** ****** ******
      ****** ****** ****** ****** ****** ****** ****** ****** ****** ******

 HEAD WILL BE SAVED ON UNIT   51 AT END OF TIME STEP    1, STRESS PERIOD   11
1
  VOLUMETRIC BUDGET FOR ENTIRE MODEL AT END OF TIME STEP    1, STRESS PERIOD  11
  ------------------------------------------------------------------------------

     CUMULATIVE VOLUMES      L**3       RATES FOR THIS TIME STEP      L**3/T
     ------------------                 ------------------------

           IN:                                      IN:
           ---                                      ---
             STORAGE =    35906835.3352               STORAGE =       18029.9351
       CONSTANT HEAD =    28268652.8330         CONSTANT HEAD =       34542.4798
               WELLS =           0.0000                 WELLS =           0.0000
            RECHARGE =    23901600.0000              RECHARGE =           0.0000
      STREAM LEAKAGE =     9237519.6334        STREAM LEAKAGE =       11801.0575

            TOTAL IN =    97314607.8017              TOTAL IN =       64373.4723

          OUT:                                     OUT:
          ----                                     ----
             STORAGE =     2318735.6732               STORAGE =           0.0000
       CONSTANT HEAD =           0.0000         CONSTANT HEAD =           0.0000
               WELLS =    30777451.5264                 WELLS =       30654.8322
            RECHARGE =           0.0000              RECHARGE =           0.0000
      STREAM LEAKAGE =    64218422.5313        STREAM LEAKAGE =       33718.6449

           TOTAL OUT =    97314609.7309             TOTAL OUT =       64373.4771

            IN - OUT =          -1.9292              IN - OUT =      -4.8304E-03

 PERCENT DISCREPANCY =          -0.00     PERCENT DISCREPANCY =          -0.00






         TIME SUMMARY AT END OF TIME STEP    1 IN STRESS PERIOD   11
                    SECONDS     MINUTES      HOURS       DAYS        YEARS
                    -----------------------------------------------------------
   TIME STEP LENGTH 7.86240E+06 1.31040E+05  2184.0      91.000     0.24914    
 STRESS PERIOD TIME 7.86240E+06 1.31040E+05  2184.0      91.000     0.24914    
         TOTAL TIME 8.67456E+07 1.44576E+06  24096.      1004.0      2.7488    
1
1
                            STRESS PERIOD NO.   12, LENGTH =   91.00000    
                            -----------------------------------------------

                              NUMBER OF TIME STEPS =     1

                               MULTIPLIER FOR DELT =     1.500

                            INITIAL TIME STEP SIZE =   91.00000    

 WELL NO.  LAYER   ROW   COL   STRESS RATE         
 --------------------------------------------------
      1      1     14      6       0.000    
      2      1      3      9       0.000    
      3      1     20     10       0.000    
      4      1     14     20       0.000    
      5      1     17     24      -1629.    
      6      1      9     25     -0.1155E+05
      7      1      8     20      -8674.    
      8      1     10     13      -8797.    

      8 WELLS

                 RECHARGE =  1.000000E-03

 REUSING STREAM SEGMENT DATA FROM LAST STRESS PERIOD
 
 SOLVING FOR HEAD 


     7 CALLS TO PCG ROUTINE FOR TIME STEP   1 IN STRESS PERIOD   12
    24 TOTAL ITERATIONS

 OUTPUT CONTROL FOR STRESS PERIOD   12   TIME STEP    1
    SAVE BUDGET
    SAVE HEAD FOR ALL LAYERS
    PRINT HEAD FOR ALL LAYERS
 UBDSV2 SAVING "STREAMFLOW OUT  " ON UNIT  50 AT TIME STEP  1, STRESS PERIOD  12



 STREAM LISTING     PERIOD     12   STEP        1

 LAYER ROW COL. STREAM  RCH.  FLOW INTO     FLOW TO   FLOW OUT OF   OVRLND.     DIRECT     STREAM       STREAM     STREAM     STREAM   STREAMBED  STREAMBED
                SEG.NO.  NO.  STRM. RCH.    AQUIFER    STRM. RCH.    RUNOFF     PRECIP       ET          HEAD       DEPTH      WIDTH   CONDCTNC.   GRADIENT

   1   13    1     1     1    1.0000E+05 -1.4933E+03   1.0149E+05  0.000E+00  0.000E+00  0.000E+00  4.84067E+01  1.453E-01  2.000E+01  2.000E+04 -7.466E-02
   1   13    2     1     2    1.0149E+05 -2.4067E+03   1.0390E+05  0.000E+00  0.000E+00  0.000E+00  4.79311E+01  1.470E-01  2.000E+01  2.000E+04 -1.203E-01
   1   14    3     1     3    1.0390E+05 -4.1668E+02   1.0432E+05  0.000E+00  0.000E+00  0.000E+00  4.74550E+01  1.482E-01  2.000E+01  2.000E+04 -2.083E-02
   1   15    4     1     4    1.0432E+05 -3.9938E+02   1.0472E+05  0.000E+00  0.000E+00  0.000E+00  4.69781E+01  1.485E-01  2.000E+01  2.000E+04 -1.997E-02
   1   16    5     1     5    1.0472E+05 -1.6093E+03   1.0633E+05  0.000E+00  0.000E+00  0.000E+00  4.65017E+01  1.494E-01  2.000E+01  2.000E+04 -8.047E-02
   1   16    6     1     6    1.0633E+05 -1.0069E+03   1.0733E+05  0.000E+00  0.000E+00  0.000E+00  4.60255E+01  1.505E-01  2.000E+01  2.000E+04 -5.035E-02
   1   16    7     1     7    1.0733E+05 -9.8463E+02   1.0832E+05  0.000E+00  0.000E+00  0.000E+00  4.55491E+01  1.513E-01  2.000E+01  2.000E+04 -4.923E-02
   1   16    8     1     8    1.0832E+05 -9.7902E+02   1.0930E+05  0.000E+00  0.000E+00  0.000E+00  4.50726E+01  1.522E-01  2.000E+01  2.000E+04 -4.895E-02
   1   16    9     1     9    1.0930E+05 -9.7222E+02   1.1027E+05  0.000E+00  0.000E+00  0.000E+00  4.45962E+01  1.530E-01  2.000E+01  2.000E+04 -4.861E-02
   1   16   10     1    10    1.1027E+05 -9.6476E+02   1.1123E+05  0.000E+00  0.000E+00  0.000E+00  4.41197E+01  1.538E-01  2.000E+01  2.000E+04 -4.824E-02
   1   16   11     1    11    1.1123E+05 -9.7319E+02   1.1221E+05  0.000E+00  0.000E+00  0.000E+00  4.36432E+01  1.546E-01  2.000E+01  2.000E+04 -4.866E-02
   1   16   12     1    12    1.1221E+05 -1.4991E+03   1.1371E+05  0.000E+00  0.000E+00  0.000E+00  4.31670E+01  1.556E-01  2.000E+01  2.000E+04 -7.495E-02
   1   15   13     1    13    1.1371E+05 -8.9951E+02   1.1460E+05  0.000E+00  0.000E+00  0.000E+00  4.26907E+01  1.566E-01  2.000E+01  2.000E+04 -4.498E-02
   1   14   14     1    14    1.1460E+05 -6.6951E+02   1.1527E+05  0.000E+00  0.000E+00  0.000E+00  4.22141E+01  1.573E-01  2.000E+01  2.000E+04 -3.348E-02
   1   13   15     1    15    1.1527E+05 -5.3632E+02   1.1581E+05  0.000E+00  0.000E+00  0.000E+00  4.17373E+01  1.577E-01  2.000E+01  2.000E+04 -2.682E-02
   1   12   16     1    16    1.1581E+05 -5.8277E+02   1.1639E+05  0.000E+00  0.000E+00  0.000E+00  4.12605E+01  1.582E-01  2.000E+01  2.000E+04 -2.914E-02
   1   12   17     1    17    1.1639E+05 -6.9666E+02   1.1709E+05  0.000E+00  0.000E+00  0.000E+00  4.07837E+01  1.587E-01  2.000E+01  2.000E+04 -3.483E-02
   1   12   18     1    18    1.1709E+05 -6.4854E+02   1.1774E+05  0.000E+00  0.000E+00  0.000E+00  4.03070E+01  1.593E-01  2.000E+01  2.000E+04 -3.243E-02
   1   12   19     1    19    1.1774E+05 -5.6978E+02   1.1831E+05  0.000E+00  0.000E+00  0.000E+00  3.98302E+01  1.598E-01  2.000E+01  2.000E+04 -2.849E-02
   1   13   20     1    20    1.1831E+05 -8.9236E+02   1.1920E+05  0.000E+00  0.000E+00  0.000E+00  3.93535E+01  1.604E-01  2.000E+01  2.000E+04 -4.462E-02
   1   14   21     1    21    1.1920E+05 -1.2167E+03   1.2042E+05  0.000E+00  0.000E+00  0.000E+00  3.88771E+01  1.612E-01  2.000E+01  2.000E+04 -6.083E-02
   1   14   22     1    22    1.2042E+05  5.0847E+03   1.1533E+05  0.000E+00  0.000E+00  0.000E+00  3.83983E+01  1.597E-01  2.000E+01  2.000E+04  2.542E-01
   1    9   30     2     1    5.0000E+04 -2.3775E+02   5.0238E+04  0.000E+00  0.000E+00  0.000E+00  4.02410E+01  1.160E-01  2.000E+01  2.000E+04 -1.189E-02
   1    9   29     2     2    5.0238E+04 -4.6062E+02   5.0698E+04  0.000E+00  0.000E+00  0.000E+00  3.99915E+01  1.165E-01  2.000E+01  2.000E+04 -2.303E-02
   1    9   28     2     3    5.0698E+04 -4.7922E+02   5.1178E+04  0.000E+00  0.000E+00  0.000E+00  3.97422E+01  1.172E-01  2.000E+01  2.000E+04 -2.396E-02
   1    9   27     2     4    5.1178E+04  4.6945E+02   5.0708E+04  0.000E+00  0.000E+00  0.000E+00  3.94922E+01  1.172E-01  2.000E+01  2.000E+04  2.347E-02
   1   10   26     2     5    5.0708E+04  2.1013E+03   4.8607E+04  0.000E+00  0.000E+00  0.000E+00  3.92404E+01  1.154E-01  2.000E+01  2.000E+04  1.051E-01
   1   11   25     2     6    4.8607E+04  1.2902E+03   4.7317E+04  0.000E+00  0.000E+00  0.000E+00  3.89880E+01  1.130E-01  2.000E+01  2.000E+04  6.451E-02
   1   12   24     2     7    4.7317E+04  1.8400E+01   4.7298E+04  0.000E+00  0.000E+00  0.000E+00  3.87371E+01  1.121E-01  2.000E+01  2.000E+04  9.200E-04
   1   13   23     2     8    4.7298E+04 -6.8068E+01   4.7366E+04  0.000E+00  0.000E+00  0.000E+00  3.84871E+01  1.121E-01  2.000E+01  2.000E+04 -3.403E-03
   1   14   22     2     9    4.7366E+04  1.8360E+03   4.5530E+04  0.000E+00  0.000E+00  0.000E+00  3.82359E+01  1.109E-01  2.000E+01  2.000E+04  9.180E-02
   1   14   22     3     1    1.6086E+05 -8.5265E+03   1.6939E+05  0.000E+00  0.000E+00  0.000E+00  3.77177E+01  1.622E-01  2.000E+01  2.000E+04 -4.263E-01
   1   15   23     3     2    1.6939E+05 -4.2430E+02   1.6981E+05  0.000E+00  0.000E+00  0.000E+00  3.68315E+01  1.648E-01  2.000E+01  2.000E+04 -2.122E-02
   1   15   24     3     3    1.6981E+05 -6.3133E+01   1.6988E+05  0.000E+00  0.000E+00  0.000E+00  3.59427E+01  1.649E-01  2.000E+01  2.000E+04 -3.157E-03
   1   15   25     3     4    1.6988E+05 -1.3601E+02   1.7001E+05  0.000E+00  0.000E+00  0.000E+00  3.50539E+01  1.650E-01  2.000E+01  2.000E+04 -6.801E-03
   1   15   26     3     5    1.7001E+05 -2.6722E+02   1.7028E+05  0.000E+00  0.000E+00  0.000E+00  3.41651E+01  1.651E-01  2.000E+01  2.000E+04 -1.336E-02
   1   16   27     3     6    1.7028E+05 -2.6877E+02   1.7055E+05  0.000E+00  0.000E+00  0.000E+00  3.32764E+01  1.653E-01  2.000E+01  2.000E+04 -1.344E-02
   1   17   28     3     7    1.7055E+05 -1.4381E+03   1.7199E+05  0.000E+00  0.000E+00  0.000E+00  3.23880E+01  1.658E-01  2.000E+01  2.000E+04 -7.191E-02
   1   18   29     3     8    1.7199E+05 -2.7688E+03   1.7476E+05  0.000E+00  0.000E+00  0.000E+00  3.15003E+01  1.670E-01  2.000E+01  2.000E+04 -1.384E-01
   1   18   30     3     9    1.7476E+05 -3.1090E+03   1.7786E+05  0.000E+00  0.000E+00  0.000E+00  3.06131E+01  1.687E-01  2.000E+01  2.000E+04 -1.554E-01



1
              HEAD IN LAYER   1 AT END OF TIME STEP   1 IN STRESS PERIOD   12
  ---------------------------------------------------------------------------

          1      2      3      4      5      6      7      8      9     10
         11     12     13     14     15     16     17     18     19     20
         21     22     23     24     25     26     27     28     29     30
 .........................................................................
   1  ****** ****** ****** ****** ****** ****** ****** ****** ****** ******
      ****** ****** ****** ****** ****** ****** ****** ****** ****** ******
      ****** ****** ****** ****** ****** ****** ****** ****** ****** ******
   2  ****** ****** ****** ****** ****** ****** ****** ****** ****** ******
      ****** ****** ****** ****** ****** ****** ****** ****** ****** ******
      ****** ****** ****** ****** ****** ****** ****** ****** ****** ******
   3  ****** ****** ****** ****** ****** ****** ****** ****** ****** ******
      ****** ****** ****** ****** ****** ****** ****** ****** ****** ******
      ****** ****** ****** ****** ****** ****** ****** ****** ****** ******
   4  ****** ****** ****** ****** ****** ****** ****** ****** ****** ******
      ****** ****** ****** ****** ****** ****** ****** ****** ****** ******
      ****** ****** ****** ****** ****** ****** ****** ****** ****** ******
   5  ****** ****** ****** ****** ****** ****** ****** ****** ****** ******
      ****** ****** ****** ****** ****** ****** ****** ****** ****** ******
      ****** ****** ****** ****** ****** ****** ****** ****** ****** ******
   6  ****** ****** ****** ****** ****** ****** ****** ****** ****** ******
      ****** ****** ****** ****** ****** ****** ****** ****** ****** ******
      ****** ****** ****** ****** ****** ****** ****** ****** ****** ******
   7  ****** ****** ****** ****** ****** ****** ****** ****** ****** ******
      ****** ****** ****** ****** ****** ****** ****** ****** ****** ******
      ****** ****** ****** ****** ****** ****** ****** ****** ****** ******
   8  ****** ****** ****** ****** ****** ****** ****** ****** ****** ******
      ****** ****** ****** ****** ****** ****** ****** ****** ****** ******
      ****** ****** ****** ****** ****** ****** ****** ****** ****** ******
   9  ****** ****** ****** ****** ****** ****** ****** ****** ****** ******
      ****** ****** ****** ****** ****** ****** ****** ****** ****** ******
      ****** ****** ****** ****** ****** ****** ****** ****** ****** ******
  10  ****** ****** ****** ****** ****** ****** ****** ****** ****** ******
      ****** ****** ****** ****** ****** ****** ****** ****** ****** ******
      ****** ****** ****** ****** ****** ****** ****** ****** ****** ******
  11  ****** ****** ****** ****** ****** ****** ****** ****** ****** ******
      ****** ****** ****** ****** ****** ****** ****** ****** ****** ******
      ****** ****** ****** ****** ****** ****** ****** ****** ****** ******
  12  ****** ****** ****** ****** ****** ****** ****** ****** ****** ******
      ****** ****** ****** ****** ****** ****** ****** ****** ****** ******
      ****** ****** ****** ****** ****** ****** ****** ****** ****** ******
  13  ****** ****** ****** ****** ****** ****** ****** ****** ****** ******
      ****** ****** ****** ****** ****** ****** ****** ****** ****** ******
      ****** ****** ****** ****** ****** ****** ****** ****** ****** ******
  14  ****** ****** ****** ****** ****** ****** ****** ****** ****** ******
      ****** ****** ****** ****** ****** ****** ****** ****** ****** ******
      ****** ****** ****** ****** ****** ****** ****** ****** ****** ******
  15  ****** ****** ****** ****** ****** ****** ****** ****** ****** ******
      ****** ****** ****** ****** ****** ****** ****** ****** ****** ******
      ****** ****** ****** ****** ****** ****** ****** ****** ****** ******
  16  ****** ****** ****** ****** ****** ****** ****** ****** ****** ******
      ****** ****** ****** ****** ****** ****** ****** ****** ****** ******
      ****** ****** ****** ****** ****** ****** ****** ****** ****** ******
  17  ****** ****** ****** ****** ****** ****** ****** ****** ****** ******
      ****** ****** ****** ****** ****** ****** ****** ****** ****** ******
      ****** ****** ****** ****** ****** ****** ****** ****** ****** ******
  18  ****** ****** ****** ****** ****** ****** ****** ****** ****** ******
      ****** ****** ****** ****** ****** ****** ****** ****** ****** ******
      ****** ****** ****** ****** ****** ****** ****** ****** ****** ******
  19  ****** ****** ****** ****** ****** ****** ****** ****** ****** ******
      ****** ****** ****** ****** ****** ****** ****** ****** ****** ******
      ****** ****** ****** ****** ****** ****** ****** ****** ****** ******
  20  ****** ****** ****** ****** ****** ****** ****** ****** ****** ******
      ****** ****** ****** ****** ****** ****** ****** ****** ****** ******
      ****** ****** ****** ****** ****** ****** ****** ****** ****** ******
  21  ****** ****** ****** ****** ****** ****** ****** ****** ****** ******
      ****** ****** ****** ****** ****** ****** ****** ****** ****** ******
      ****** ****** ****** ****** ****** ****** ****** ****** ****** ******
  22  ****** ****** ****** ****** ****** ****** ****** ****** ****** ******
      ****** ****** ****** ****** ****** ****** ****** ****** ****** ******
      ****** ****** ****** ****** ****** ****** ****** ****** ****** ******
  23  ****** ****** ****** ****** ****** ****** ****** ****** ****** ******
      ****** ****** ****** ****** ****** ****** ****** ****** ****** ******
      ****** ****** ****** ****** ****** ****** ****** ****** ****** ******
  24  ****** ****** ****** ****** ****** ****** ****** ****** ****** ******
      ****** ****** ****** ****** ****** ****** ****** ****** ****** ******
      ****** ****** ****** ****** ****** ****** ****** ****** ****** ******
  25  ****** ****** ****** ****** ****** ****** ****** ****** ****** ******
      ****** ****** ****** ****** ****** ****** ****** ****** ****** ******
      ****** ****** ****** ****** ****** ****** ****** ****** ****** ******

 HEAD WILL BE SAVED ON UNIT   51 AT END OF TIME STEP    1, STRESS PERIOD   12
1
  VOLUMETRIC BUDGET FOR ENTIRE MODEL AT END OF TIME STEP    1, STRESS PERIOD  12
  ------------------------------------------------------------------------------

     CUMULATIVE VOLUMES      L**3       RATES FOR THIS TIME STEP      L**3/T
     ------------------                 ------------------------

           IN:                                      IN:
           ---                                      ---
             STORAGE =    35908978.0749               STORAGE =          23.5466
       CONSTANT HEAD =    31349304.4679         CONSTANT HEAD =       33853.3147
               WELLS =           0.0000                 WELLS =           0.0000
            RECHARGE =    26413200.0000              RECHARGE =       27600.0000
      STREAM LEAKAGE =    10220314.8972        STREAM LEAKAGE =       10799.9480

            TOTAL IN =   103891797.4400              TOTAL IN =       72276.8092

          OUT:                                     OUT:
          ----                                     ----
             STORAGE =     2587845.9016               STORAGE =        2957.2553
       CONSTANT HEAD =           0.0000         CONSTANT HEAD =           0.0000
               WELLS =    33567041.2564                 WELLS =       30654.8322
            RECHARGE =           0.0000              RECHARGE =           0.0000
      STREAM LEAKAGE =    67736912.1299        STREAM LEAKAGE =       38664.7209

           TOTAL OUT =   103891799.2879             TOTAL OUT =       72276.8083

            IN - OUT =          -1.8479              IN - OUT =       8.9313E-04

 PERCENT DISCREPANCY =          -0.00     PERCENT DISCREPANCY =           0.00






         TIME SUMMARY AT END OF TIME STEP    1 IN STRESS PERIOD   12
                    SECONDS     MINUTES      HOURS       DAYS        YEARS
                    -----------------------------------------------------------
   TIME STEP LENGTH 7.86240E+06 1.31040E+05  2184.0      91.000     0.24914    
 STRESS PERIOD TIME 7.86240E+06 1.31040E+05  2184.0      91.000     0.24914    
         TOTAL TIME 9.46080E+07 1.57680E+06  26280.      1095.0      2.9979    
1

 Run end date and time (yyyy/mm/dd hh:mm:ss): 2018/10/10 18:14:52
 Elapsed run time:  0.056 Seconds

