                                  MODFLOW-2005     
      U.S. GEOLOGICAL SURVEY MODULAR FINITE-DIFFERENCE GROUND-WATER FLOW MODEL
                            VERSION 1.11.00 8/8/2013

 LIST FILE: supply2.lst
                         UNIT   10

 OPENING ..\data\supply.dis
 FILE TYPE:DIS   UNIT   11   STATUS:OLD    
 FORMAT:FORMATTED              ACCESS:SEQUENTIAL          

 OPENING ..\data\supply.ba6
 FILE TYPE:BAS6   UNIT   12   STATUS:OLD    
 FORMAT:FORMATTED              ACCESS:SEQUENTIAL          

 OPENING ..\data\supply_het.bc6
 FILE TYPE:BCF6   UNIT   13   STATUS:OLD    
 FORMAT:FORMATTED              ACCESS:SEQUENTIAL          

 OPENING ..\data\supply.rch
 FILE TYPE:RCH   UNIT   15   STATUS:OLD    
 FORMAT:FORMATTED              ACCESS:SEQUENTIAL          

 OPENING ..\data\supply2.sfr
 FILE TYPE:SFR   UNIT   16   STATUS:OLD    
 FORMAT:FORMATTED              ACCESS:SEQUENTIAL          

 OPENING ..\data\supply.oc
 FILE TYPE:OC   UNIT   17   STATUS:OLD    
 FORMAT:FORMATTED              ACCESS:SEQUENTIAL          

 OPENING ..\data\supply.pcg
 FILE TYPE:PCG   UNIT   18   STATUS:OLD    
 FORMAT:FORMATTED              ACCESS:SEQUENTIAL          

 OPENING supply2.wel
 FILE TYPE:WEL   UNIT   19   STATUS:OLD    
 FORMAT:FORMATTED              ACCESS:SEQUENTIAL          

 OPENING supply2sf.cbc
 FILE TYPE:DATA(BINARY)   UNIT   50   STATUS:UNKNOWN
 FORMAT:BINARY                 ACCESS:SEQUENTIAL          

 OPENING supply2hd.bhd
 FILE TYPE:DATA(BINARY)   UNIT   51   STATUS:UNKNOWN
 FORMAT:BINARY                 ACCESS:SEQUENTIAL          

 BAS -- BASIC PACKAGE, VERSION 7, 5/2/2005 INPUT READ FROM UNIT   12
 
 MODFLOW was compiled using uniform precision
 Precision of REAL and DOUBLE PRECISION variables:          15

 DISCRETIZATION INPUT DATA READ FROM UNIT   11
    1 LAYERS        25 ROWS        30 COLUMNS
   12 STRESS PERIOD(S) IN SIMULATION
 MODEL TIME UNIT IS DAYS
 MODEL LENGTH UNIT IS UNDEFINED
  Confining bed flag for each layer:
   0

                     DELR =   200.000    

                     DELC =   200.000    

 TOP ELEVATION OF LAYER 1 =  100.0000    

   MODEL LAYER BOTTOM EL. =   0.00000     FOR LAYER   1


 STRESS PERIOD     LENGTH       TIME STEPS     MULTIPLIER FOR DELT    SS FLAG
 ----------------------------------------------------------------------------
        1         92.00000          1                    1.500         TR
        2         91.00000          1                    1.500         TR
        3         91.00000          1                    1.500         TR
        4         91.00000          1                    1.500         TR
        5         92.00000          1                    1.500         TR
        6         91.00000          1                    1.500         TR
        7         91.00000          1                    1.500         TR
        8         91.00000          1                    1.500         TR
        9         92.00000          1                    1.500         TR
       10         91.00000          1                    1.500         TR
       11         91.00000          1                    1.500         TR
       12         91.00000          1                    1.500         TR

 TRANSIENT SIMULATION



 
 #MODOFC transient water supply sample problem                                   
 #                                                                               
 THE FREE FORMAT OPTION HAS BEEN SELECTED



                     BOUNDARY ARRAY FOR LAYER   1
 READING ON UNIT   12 WITH FORMAT: (20I4)              

 AQUIFER HEAD WILL BE SET TO   0.0000     AT ALL NO-FLOW NODES (IBOUND=0).



                       INITIAL HEAD FOR LAYER   1
 READING ON UNIT   12 WITH FORMAT: (10F13.0)           

 OUTPUT CONTROL IS SPECIFIED ONLY AT TIME STEPS FOR WHICH OUTPUT IS DESIRED
 COMPACT CELL-BY-CELL BUDGET FILES WILL BE WRITTEN
 HEAD PRINT FORMAT CODE IS  18    DRAWDOWN PRINT FORMAT CODE IS   0
 HEADS WILL BE SAVED ON UNIT   51    DRAWDOWNS WILL BE SAVED ON UNIT    0

 BCF -- BLOCK-CENTERED FLOW PACKAGE, VERSION 7, 5/2/2005
         INPUT READ FROM UNIT 13
 TRANSIENT SIMULATION
 HEAD AT CELLS THAT CONVERT TO DRY=   0.0000    
 WETTING CAPABILITY IS NOT ACTIVE
      LAYER  LAYER-TYPE CODE     INTERBLOCK T
      --------------------------------------------
         1            0          0 -- HARMONIC    

 COLUMN TO ROW ANISOTROPY =  1.000000    

     PRIMARY STORAGE COEF =  5.000000E-02 FOR LAYER   1



               TRANSMIS. ALONG ROWS FOR LAYER   1
 READING ON UNIT   13 WITH FORMAT: (FREE)              

 WEL -- WELL PACKAGE, VERSION 7, 5/2/2005 INPUT READ FROM UNIT   19
 # Well package input file written by MMProc
 No named parameters
 MAXIMUM OF      4 ACTIVE WELLS AT ONE TIME


     0 Well parameters

 RCH -- RECHARGE PACKAGE, VERSION 7, 5/2/2005 INPUT READ FROM UNIT   15
 No named parameters
 OPTION 1 -- RECHARGE TO TOP LAYER


     0 Recharge parameters

 SFR7 -- STREAMFLOW ROUTING PACKAGE, VERSION 1.0.7, 2013-01-15
         INPUT READ FROM UNIT  16
 #  Supply2 test problem for GWM-VI
 #  The eighth entry in the first data line is ISTCB2 -
 #    Setting this to a negative number indicates that
 #    streamflows out of the reach will be saved to a
 #    binary file.  The absolute value of ISTCB2 is the
 #    unit to which unformatted flows will be written.
 #
 No named parameters
 Segment information will not be 
 read by reach
 No named parameters
 No specifed inflow files


 NUMBER OF STREAM REACHES IS   40

 NUMBER OF STREAM SEGMENTS IS    3

 NUMBER OF STREAM PARAMETERS IS    0

 NUMBER OF STREAM SEGMENTS DEFINED USING PARAMETERS IS              0

 MAXIMUM ERROR FOR STREAM LEAKAGE RATES IS  1.00E-04

 CONSTANT FOR MANNINGS EQUATION IS  1.2839E+05





   STREAM NETWORK DESCRIPTION: 

   LAYER    ROW    COL   SEGMENT   REACH     LENGTH
                          NUMBER   NUMBER    IN CELL        
   --------------------------------------------------
      1     13      1       1        1    2.0000E+02
      1     13      2       1        2    2.0000E+02
      1     14      3       1        3    2.0000E+02
      1     15      4       1        4    2.0000E+02
      1     16      5       1        5    2.0000E+02
      1     16      6       1        6    2.0000E+02
      1     16      7       1        7    2.0000E+02
      1     16      8       1        8    2.0000E+02
      1     16      9       1        9    2.0000E+02
      1     16     10       1       10    2.0000E+02
      1     16     11       1       11    2.0000E+02
      1     16     12       1       12    2.0000E+02
      1     15     13       1       13    2.0000E+02
      1     14     14       1       14    2.0000E+02
      1     13     15       1       15    2.0000E+02
      1     12     16       1       16    2.0000E+02
      1     12     17       1       17    2.0000E+02
      1     12     18       1       18    2.0000E+02
      1     12     19       1       19    2.0000E+02
      1     13     20       1       20    2.0000E+02
      1     14     21       1       21    2.0000E+02
      1     14     22       1       22    2.0000E+02
      1      9     30       2        1    2.0000E+02
      1      9     29       2        2    2.0000E+02
      1      9     28       2        3    2.0000E+02
      1      9     27       2        4    2.0000E+02
      1     10     26       2        5    2.0000E+02
      1     11     25       2        6    2.0000E+02
      1     12     24       2        7    2.0000E+02
      1     13     23       2        8    2.0000E+02
      1     14     22       2        9    2.0000E+02
      1     14     22       3        1    2.0000E+02
      1     15     23       3        2    2.0000E+02
      1     15     24       3        3    2.0000E+02
      1     15     25       3        4    2.0000E+02
      1     15     26       3        5    2.0000E+02
      1     16     27       3        6    2.0000E+02
      1     17     28       3        7    2.0000E+02
      1     18     29       3        8    2.0000E+02
      1     18     30       3        9    2.0000E+02




 PCG -- CONJUGATE-GRADIENT SOLUTION PACKAGE, VERSION 7, 5/2/2005
 MAXIMUM OF    500 CALLS OF SOLUTION ROUTINE
 MAXIMUM OF      5 INTERNAL ITERATIONS PER CALL TO SOLUTION ROUTINE
 MATRIX PRECONDITIONING TYPE :    1



                                    SOLUTION BY THE CONJUGATE-GRADIENT METHOD
                                   -------------------------------------------
                    MAXIMUM NUMBER OF CALLS TO PCG ROUTINE =      500
                        MAXIMUM ITERATIONS PER CALL TO PCG =        5
                               MATRIX PRECONDITIONING TYPE =        1
        RELAXATION FACTOR (ONLY USED WITH PRECOND. TYPE 1) =    0.10000E+01
 PARAMETER OF POLYNOMIAL PRECOND. = 2 (2) OR IS CALCULATED :        0
                         HEAD CHANGE CRITERION FOR CLOSURE =    0.10000E-05
                     RESIDUAL CHANGE CRITERION FOR CLOSURE =    0.10000E+01
            PCG HEAD AND RESIDUAL CHANGE PRINTOUT INTERVAL =        1
     PRINTING FROM SOLVER IS LIMITED(1) OR SUPPRESSED (>1) =        1
                            STEADY-STATE DAMPING PARAMETER =    0.10000E+01
                               TRANSIENT DAMPING PARAMETER =    0.10000E+01
1
                            STRESS PERIOD NO.    1, LENGTH =   92.00000    
                            -----------------------------------------------

                              NUMBER OF TIME STEPS =     1

                               MULTIPLIER FOR DELT =     1.500

                            INITIAL TIME STEP SIZE =   92.00000    

 WELL NO.  LAYER   ROW   COL   STRESS RATE         
 --------------------------------------------------
      1      1      8     16      -9735.    
      2      1     14     29      -8048.    
      3      1     19     28      -9398.    
      4      1     18      3      -9037.    

      4 WELLS

                 RECHARGE =  5.000000E-04



 CLASSIFICATION & COUNT OF STREAM SEGMENTS BASED ON SOURCE OF INFLOW:

                HEADWATER     DIVERSION     RECEIVES TRIBUTARY FLOW
                ---------     ---------     -----------------------
                     2              0               1



                    INPUT DATA FOR EACH STREAM SEGMENT
 ---------------------------------------------------------------------------------------------

 SEGMENT    SEG.     INFLOW   OVERLAND   STREAM    STREAM   ICALC  OUTFLOW  DIVERSION PRIORITY
    NO.    LENGTH     RATE     RUNOFF      ET       PPT.    METH.  TO SEG.  FROM SEG.    NO.

      1  4.400E+03 1.000E+05 0.000E+00 0.000E+00 0.000E+00    1        3        0        0
      2  1.800E+03 5.000E+04 0.000E+00 0.000E+00 0.000E+00    1        3        0        0
      3  1.800E+03 0.000E+00 0.000E+00 0.000E+00 0.000E+00    1        0        0        0


         STREAMBED PROPERTIES AND STREAM DIMENSIONS

 SEGMENT     BED HYD. COND.      BED THICKNESS     ELEV.-TOP OF BED     WIDTH OF STREAM     DEPTH OF STREAM    STREAM ROUGHNESS
    No.     UPPER     LOWER     UPPER     LOWER     UPPER     LOWER     UPPER     LOWER     UPPER     LOWER   CHANNEL      BANK

     1  5.000E+00 5.000E+00 1.000E+00 1.000E+00 4.850E+01 3.800E+01 2.000E+01 2.000E+01                     5.000E-02
     2  5.000E+00 5.000E+00 1.000E+00 1.000E+00 4.025E+01 3.800E+01 2.000E+01 2.000E+01                     5.000E-02
     3  5.000E+00 5.000E+00 1.000E+00 1.000E+00 3.800E+01 3.000E+01 2.000E+01 2.000E+01                     5.000E-02



 
 SOLVING FOR HEAD 


     9 CALLS TO PCG ROUTINE FOR TIME STEP   1 IN STRESS PERIOD    1
    36 TOTAL ITERATIONS

 OUTPUT CONTROL FOR STRESS PERIOD    1   TIME STEP    1
    SAVE BUDGET
    SAVE HEAD FOR ALL LAYERS
    PRINT HEAD FOR ALL LAYERS
 UBDSV2 SAVING "STREAMFLOW OUT  " ON UNIT  50 AT TIME STEP  1, STRESS PERIOD   1



 STREAM LISTING     PERIOD      1   STEP        1

 LAYER ROW COL. STREAM  RCH.  FLOW INTO     FLOW TO   FLOW OUT OF   OVRLND.     DIRECT     STREAM       STREAM     STREAM     STREAM   STREAMBED  STREAMBED
                SEG.NO.  NO.  STRM. RCH.    AQUIFER    STRM. RCH.    RUNOFF     PRECIP       ET          HEAD       DEPTH      WIDTH   CONDCTNC.   GRADIENT

   1   13    1     1     1    1.0000E+05 -5.6432E+03   1.0564E+05  0.000E+00  0.000E+00  0.000E+00  4.84085E+01  1.471E-01  2.000E+01  2.000E+04 -2.822E-01
   1   13    2     1     2    1.0564E+05 -7.1310E+03   1.1277E+05  0.000E+00  0.000E+00  0.000E+00  4.79366E+01  1.525E-01  2.000E+01  2.000E+04 -3.565E-01
   1   14    3     1     3    1.1277E+05 -2.0323E+03   1.1481E+05  0.000E+00  0.000E+00  0.000E+00  4.74631E+01  1.563E-01  2.000E+01  2.000E+04 -1.016E-01
   1   15    4     1     4    1.1481E+05 -1.9866E+03   1.1679E+05  0.000E+00  0.000E+00  0.000E+00  4.69875E+01  1.580E-01  2.000E+01  2.000E+04 -9.933E-02
   1   16    5     1     5    1.1679E+05 -5.2700E+03   1.2206E+05  0.000E+00  0.000E+00  0.000E+00  4.65132E+01  1.609E-01  2.000E+01  2.000E+04 -2.635E-01
   1   16    6     1     6    1.2206E+05 -3.7687E+03   1.2583E+05  0.000E+00  0.000E+00  0.000E+00  4.60395E+01  1.645E-01  2.000E+01  2.000E+04 -1.884E-01
   1   16    7     1     7    1.2583E+05 -3.8359E+03   1.2967E+05  0.000E+00  0.000E+00  0.000E+00  4.55653E+01  1.675E-01  2.000E+01  2.000E+04 -1.918E-01
   1   16    8     1     8    1.2967E+05 -3.9101E+03   1.3358E+05  0.000E+00  0.000E+00  0.000E+00  4.50910E+01  1.706E-01  2.000E+01  2.000E+04 -1.955E-01
   1   16    9     1     9    1.3358E+05 -3.9660E+03   1.3754E+05  0.000E+00  0.000E+00  0.000E+00  4.46168E+01  1.736E-01  2.000E+01  2.000E+04 -1.983E-01
   1   16   10     1    10    1.3754E+05 -4.0038E+03   1.4155E+05  0.000E+00  0.000E+00  0.000E+00  4.41426E+01  1.767E-01  2.000E+01  2.000E+04 -2.002E-01
   1   16   11     1    11    1.4155E+05 -4.0636E+03   1.4561E+05  0.000E+00  0.000E+00  0.000E+00  4.36683E+01  1.797E-01  2.000E+01  2.000E+04 -2.032E-01
   1   16   12     1    12    1.4561E+05 -6.9315E+03   1.5254E+05  0.000E+00  0.000E+00  0.000E+00  4.31952E+01  1.838E-01  2.000E+01  2.000E+04 -3.466E-01
   1   15   13     1    13    1.5254E+05 -7.2190E+03   1.5976E+05  0.000E+00  0.000E+00  0.000E+00  4.27231E+01  1.890E-01  2.000E+01  2.000E+04 -3.610E-01
   1   14   14     1    14    1.5976E+05 -7.6345E+03   1.6740E+05  0.000E+00  0.000E+00  0.000E+00  4.22512E+01  1.943E-01  2.000E+01  2.000E+04 -3.817E-01
   1   13   15     1    15    1.6740E+05 -7.8151E+03   1.7521E+05  0.000E+00  0.000E+00  0.000E+00  4.17793E+01  1.998E-01  2.000E+01  2.000E+04 -3.908E-01
   1   12   16     1    16    1.7521E+05 -8.0246E+03   1.8324E+05  0.000E+00  0.000E+00  0.000E+00  4.13076E+01  2.053E-01  2.000E+01  2.000E+04 -4.012E-01
   1   12   17     1    17    1.8324E+05 -5.7810E+03   1.8902E+05  0.000E+00  0.000E+00  0.000E+00  4.08350E+01  2.100E-01  2.000E+01  2.000E+04 -2.891E-01
   1   12   18     1    18    1.8902E+05 -5.7480E+03   1.9477E+05  0.000E+00  0.000E+00  0.000E+00  4.03616E+01  2.139E-01  2.000E+01  2.000E+04 -2.874E-01
   1   12   19     1    19    1.9477E+05 -7.3686E+03   2.0213E+05  0.000E+00  0.000E+00  0.000E+00  3.98887E+01  2.182E-01  2.000E+01  2.000E+04 -3.684E-01
   1   13   20     1    20    2.0213E+05 -6.7349E+03   2.0887E+05  0.000E+00  0.000E+00  0.000E+00  3.94160E+01  2.229E-01  2.000E+01  2.000E+04 -3.367E-01
   1   14   21     1    21    2.0887E+05 -6.3859E+03   2.1525E+05  0.000E+00  0.000E+00  0.000E+00  3.89430E+01  2.271E-01  2.000E+01  2.000E+04 -3.193E-01
   1   14   22     1    22    2.1525E+05  3.6459E+03   2.1161E+05  0.000E+00  0.000E+00  0.000E+00  3.84666E+01  2.280E-01  2.000E+01  2.000E+04  1.823E-01
   1    9   30     2     1    5.0000E+04 -4.3259E+03   5.4326E+04  0.000E+00  0.000E+00  0.000E+00  4.02438E+01  1.188E-01  2.000E+01  2.000E+04 -2.163E-01
   1    9   29     2     2    5.4326E+04 -4.6625E+03   5.8988E+04  0.000E+00  0.000E+00  0.000E+00  3.99999E+01  1.249E-01  2.000E+01  2.000E+04 -2.331E-01
   1    9   28     2     3    5.8988E+04 -5.0407E+03   6.4029E+04  0.000E+00  0.000E+00  0.000E+00  3.97562E+01  1.312E-01  2.000E+01  2.000E+04 -2.520E-01
   1    9   27     2     4    6.4029E+04 -8.0052E+03   7.2034E+04  0.000E+00  0.000E+00  0.000E+00  3.95144E+01  1.394E-01  2.000E+01  2.000E+04 -4.003E-01
   1   10   26     2     5    7.2034E+04 -6.8365E+03   7.8871E+04  0.000E+00  0.000E+00  0.000E+00  3.92733E+01  1.483E-01  2.000E+01  2.000E+04 -3.418E-01
   1   11   25     2     6    7.8871E+04 -6.3683E+03   8.5239E+04  0.000E+00  0.000E+00  0.000E+00  3.90310E+01  1.560E-01  2.000E+01  2.000E+04 -3.184E-01
   1   12   24     2     7    8.5239E+04 -6.0719E+03   9.1311E+04  0.000E+00  0.000E+00  0.000E+00  3.87880E+01  1.630E-01  2.000E+01  2.000E+04 -3.036E-01
   1   13   23     2     8    9.1311E+04 -1.6319E+03   9.2943E+04  0.000E+00  0.000E+00  0.000E+00  3.85422E+01  1.672E-01  2.000E+01  2.000E+04 -8.159E-02
   1   14   22     2     9    9.2943E+04  1.7338E+02   9.2770E+04  0.000E+00  0.000E+00  0.000E+00  3.82930E+01  1.680E-01  2.000E+01  2.000E+04  8.669E-03
   1   14   22     3     1    3.0438E+05 -9.8484E+03   3.1423E+05  0.000E+00  0.000E+00  0.000E+00  3.77919E+01  2.363E-01  2.000E+01  2.000E+04 -4.924E-01
   1   15   23     3     2    3.1423E+05 -1.9790E+03   3.1621E+05  0.000E+00  0.000E+00  0.000E+00  3.69057E+01  2.390E-01  2.000E+01  2.000E+04 -9.895E-02
   1   15   24     3     3    3.1621E+05 -1.5187E+03   3.1772E+05  0.000E+00  0.000E+00  0.000E+00  3.60176E+01  2.398E-01  2.000E+01  2.000E+04 -7.594E-02
   1   15   25     3     4    3.1772E+05 -1.5540E+03   3.1928E+05  0.000E+00  0.000E+00  0.000E+00  3.51294E+01  2.405E-01  2.000E+01  2.000E+04 -7.770E-02
   1   15   26     3     5    3.1928E+05 -1.7144E+03   3.2099E+05  0.000E+00  0.000E+00  0.000E+00  3.42413E+01  2.413E-01  2.000E+01  2.000E+04 -8.572E-02
   1   16   27     3     6    3.2099E+05 -1.8009E+03   3.2279E+05  0.000E+00  0.000E+00  0.000E+00  3.33532E+01  2.421E-01  2.000E+01  2.000E+04 -9.005E-02
   1   17   28     3     7    3.2279E+05 -3.3072E+03   3.2610E+05  0.000E+00  0.000E+00  0.000E+00  3.24654E+01  2.432E-01  2.000E+01  2.000E+04 -1.654E-01
   1   18   29     3     8    3.2610E+05 -4.0466E+03   3.3015E+05  0.000E+00  0.000E+00  0.000E+00  3.15782E+01  2.449E-01  2.000E+01  2.000E+04 -2.023E-01
   1   18   30     3     9    3.3015E+05 -5.3158E+03   3.3546E+05  0.000E+00  0.000E+00  0.000E+00  3.06914E+01  2.470E-01  2.000E+01  2.000E+04 -2.658E-01



1
              HEAD IN LAYER   1 AT END OF TIME STEP   1 IN STRESS PERIOD    1
  ---------------------------------------------------------------------------

          1      2      3      4      5      6      7      8      9     10
         11     12     13     14     15     16     17     18     19     20
         21     22     23     24     25     26     27     28     29     30
 .........................................................................
   1  ****** ****** ****** ****** ****** ****** ****** ****** ****** ******
      ****** ****** ****** ****** ****** ****** ****** ****** ****** ******
      ****** ****** ****** ****** ****** ****** ****** ****** ****** ******
   2  ****** ****** ****** ****** ****** ****** ****** ****** ****** ******
      ****** ****** ****** ****** ****** ****** ****** ****** ****** ******
      ****** ****** ****** ****** ****** ****** ****** ****** ****** ******
   3  ****** ****** ****** ****** ****** ****** ****** ****** ****** ******
      ****** ****** ****** ****** ****** ****** ****** ****** ****** ******
      ****** ****** ****** ****** ****** ****** ****** ****** ****** ******
   4  ****** ****** ****** ****** ****** ****** ****** ****** ****** ******
      ****** ****** ****** ****** ****** ****** ****** ****** ****** ******
      ****** ****** ****** ****** ****** ****** ****** ****** ****** ******
   5  ****** ****** ****** ****** ****** ****** ****** ****** ****** ******
      ****** ****** ****** ****** ****** ****** ****** ****** ****** ******
      ****** ****** ****** ****** ****** ****** ****** ****** ****** ******
   6  ****** ****** ****** ****** ****** ****** ****** ****** ****** ******
      ****** ****** ****** ****** ****** ****** ****** ****** ****** ******
      ****** ****** ****** ****** ****** ****** ****** ****** ****** ******
   7  ****** ****** ****** ****** ****** ****** ****** ****** ****** ******
      ****** ****** ****** ****** ****** ****** ****** ****** ****** ******
      ****** ****** ****** ****** ****** ****** ****** ****** ****** ******
   8  ****** ****** ****** ****** ****** ****** ****** ****** ****** ******
      ****** ****** ****** ****** ****** ****** ****** ****** ****** ******
      ****** ****** ****** ****** ****** ****** ****** ****** ****** ******
   9  ****** ****** ****** ****** ****** ****** ****** ****** ****** ******
      ****** ****** ****** ****** ****** ****** ****** ****** ****** ******
      ****** ****** ****** ****** ****** ****** ****** ****** ****** ******
  10  ****** ****** ****** ****** ****** ****** ****** ****** ****** ******
      ****** ****** ****** ****** ****** ****** ****** ****** ****** ******
      ****** ****** ****** ****** ****** ****** ****** ****** ****** ******
  11  ****** ****** ****** ****** ****** ****** ****** ****** ****** ******
      ****** ****** ****** ****** ****** ****** ****** ****** ****** ******
      ****** ****** ****** ****** ****** ****** ****** ****** ****** ******
  12  ****** ****** ****** ****** ****** ****** ****** ****** ****** ******
      ****** ****** ****** ****** ****** ****** ****** ****** ****** ******
      ****** ****** ****** ****** ****** ****** ****** ****** ****** ******
  13  ****** ****** ****** ****** ****** ****** ****** ****** ****** ******
      ****** ****** ****** ****** ****** ****** ****** ****** ****** ******
      ****** ****** ****** ****** ****** ****** ****** ****** ****** ******
  14  ****** ****** ****** ****** ****** ****** ****** ****** ****** ******
      ****** ****** ****** ****** ****** ****** ****** ****** ****** ******
      ****** ****** ****** ****** ****** ****** ****** ****** ****** ******
  15  ****** ****** ****** ****** ****** ****** ****** ****** ****** ******
      ****** ****** ****** ****** ****** ****** ****** ****** ****** ******
      ****** ****** ****** ****** ****** ****** ****** ****** ****** ******
  16  ****** ****** ****** ****** ****** ****** ****** ****** ****** ******
      ****** ****** ****** ****** ****** ****** ****** ****** ****** ******
      ****** ****** ****** ****** ****** ****** ****** ****** ****** ******
  17  ****** ****** ****** ****** ****** ****** ****** ****** ****** ******
      ****** ****** ****** ****** ****** ****** ****** ****** ****** ******
      ****** ****** ****** ****** ****** ****** ****** ****** ****** ******
  18  ****** ****** ****** ****** ****** ****** ****** ****** ****** ******
      ****** ****** ****** ****** ****** ****** ****** ****** ****** ******
      ****** ****** ****** ****** ****** ****** ****** ****** ****** ******
  19  ****** ****** ****** ****** ****** ****** ****** ****** ****** ******
      ****** ****** ****** ****** ****** ****** ****** ****** ****** ******
      ****** ****** ****** ****** ****** ****** ****** ****** ****** ******
  20  ****** ****** ****** ****** ****** ****** ****** ****** ****** ******
      ****** ****** ****** ****** ****** ****** ****** ****** ****** ******
      ****** ****** ****** ****** ****** ****** ****** ****** ****** ******
  21  ****** ****** ****** ****** ****** ****** ****** ****** ****** ******
      ****** ****** ****** ****** ****** ****** ****** ****** ****** ******
      ****** ****** ****** ****** ****** ****** ****** ****** ****** ******
  22  ****** ****** ****** ****** ****** ****** ****** ****** ****** ******
      ****** ****** ****** ****** ****** ****** ****** ****** ****** ******
      ****** ****** ****** ****** ****** ****** ****** ****** ****** ******
  23  ****** ****** ****** ****** ****** ****** ****** ****** ****** ******
      ****** ****** ****** ****** ****** ****** ****** ****** ****** ******
      ****** ****** ****** ****** ****** ****** ****** ****** ****** ******
  24  ****** ****** ****** ****** ****** ****** ****** ****** ****** ******
      ****** ****** ****** ****** ****** ****** ****** ****** ****** ******
      ****** ****** ****** ****** ****** ****** ****** ****** ****** ******
  25  ****** ****** ****** ****** ****** ****** ****** ****** ****** ******
      ****** ****** ****** ****** ****** ****** ****** ****** ****** ******
      ****** ****** ****** ****** ****** ****** ****** ****** ****** ******

 HEAD WILL BE SAVED ON UNIT   51 AT END OF TIME STEP    1, STRESS PERIOD    1
1
  VOLUMETRIC BUDGET FOR ENTIRE MODEL AT END OF TIME STEP    1, STRESS PERIOD   1
  ------------------------------------------------------------------------------

     CUMULATIVE VOLUMES      L**3       RATES FOR THIS TIME STEP      L**3/T
     ------------------                 ------------------------

           IN:                                      IN:
           ---                                      ---
             STORAGE =    17962473.5789               STORAGE =      195244.2780
       CONSTANT HEAD =     1162616.7285         CONSTANT HEAD =       12637.1384
               WELLS =           0.0000                 WELLS =           0.0000
            RECHARGE =     1269600.0000              RECHARGE =       13800.0000
      STREAM LEAKAGE =      351375.5122        STREAM LEAKAGE =        3819.2990

            TOTAL IN =    20746065.8196              TOTAL IN =      225500.7154

          OUT:                                     OUT:
          ----                                     ----
             STORAGE =           0.0000               STORAGE =           0.0000
       CONSTANT HEAD =           0.0000         CONSTANT HEAD =           0.0000
               WELLS =     3332078.2179                 WELLS =       36218.2415
            RECHARGE =           0.0000              RECHARGE =           0.0000
      STREAM LEAKAGE =    17413987.8917        STREAM LEAKAGE =      189282.4771

           TOTAL OUT =    20746066.1097             TOTAL OUT =      225500.7186

            IN - OUT =          -0.2901              IN - OUT =      -3.1531E-03

 PERCENT DISCREPANCY =          -0.00     PERCENT DISCREPANCY =          -0.00






         TIME SUMMARY AT END OF TIME STEP    1 IN STRESS PERIOD    1
                    SECONDS     MINUTES      HOURS       DAYS        YEARS
                    -----------------------------------------------------------
   TIME STEP LENGTH 7.94880E+06 1.32480E+05  2208.0      92.000     0.25188    
 STRESS PERIOD TIME 7.94880E+06 1.32480E+05  2208.0      92.000     0.25188    
         TOTAL TIME 7.94880E+06 1.32480E+05  2208.0      92.000     0.25188    
1
1
                            STRESS PERIOD NO.    2, LENGTH =   91.00000    
                            -----------------------------------------------

                              NUMBER OF TIME STEPS =     1

                               MULTIPLIER FOR DELT =     1.500

                            INITIAL TIME STEP SIZE =   91.00000    

 WELL NO.  LAYER   ROW   COL   STRESS RATE         
 --------------------------------------------------
      1      1      8     16      -9735.    
      2      1     14     29      -8048.    
      3      1     19     28      -9398.    
      4      1     18      3      -9037.    

      4 WELLS

                 RECHARGE =  2.000000E-03

 REUSING STREAM SEGMENT DATA FROM LAST STRESS PERIOD
 
 SOLVING FOR HEAD 


     7 CALLS TO PCG ROUTINE FOR TIME STEP   1 IN STRESS PERIOD    2
    27 TOTAL ITERATIONS

 OUTPUT CONTROL FOR STRESS PERIOD    2   TIME STEP    1
    SAVE BUDGET
    SAVE HEAD FOR ALL LAYERS
    PRINT HEAD FOR ALL LAYERS
 UBDSV2 SAVING "STREAMFLOW OUT  " ON UNIT  50 AT TIME STEP  1, STRESS PERIOD   2



 STREAM LISTING     PERIOD      2   STEP        1

 LAYER ROW COL. STREAM  RCH.  FLOW INTO     FLOW TO   FLOW OUT OF   OVRLND.     DIRECT     STREAM       STREAM     STREAM     STREAM   STREAMBED  STREAMBED
                SEG.NO.  NO.  STRM. RCH.    AQUIFER    STRM. RCH.    RUNOFF     PRECIP       ET          HEAD       DEPTH      WIDTH   CONDCTNC.   GRADIENT

   1   13    1     1     1    1.0000E+05 -3.3216E+03   1.0332E+05  0.000E+00  0.000E+00  0.000E+00  4.84075E+01  1.461E-01  2.000E+01  2.000E+04 -1.661E-01
   1   13    2     1     2    1.0332E+05 -4.6111E+03   1.0793E+05  0.000E+00  0.000E+00  0.000E+00  4.79336E+01  1.495E-01  2.000E+01  2.000E+04 -2.306E-01
   1   14    3     1     3    1.0793E+05 -8.8201E+02   1.0881E+05  0.000E+00  0.000E+00  0.000E+00  4.74586E+01  1.518E-01  2.000E+01  2.000E+04 -4.410E-02
   1   15    4     1     4    1.0881E+05 -7.6727E+02   1.0958E+05  0.000E+00  0.000E+00  0.000E+00  4.69820E+01  1.525E-01  2.000E+01  2.000E+04 -3.836E-02
   1   16    5     1     5    1.0958E+05 -1.7524E+03   1.1133E+05  0.000E+00  0.000E+00  0.000E+00  4.65058E+01  1.535E-01  2.000E+01  2.000E+04 -8.762E-02
   1   16    6     1     6    1.1133E+05 -1.7677E+03   1.1310E+05  0.000E+00  0.000E+00  0.000E+00  4.60300E+01  1.550E-01  2.000E+01  2.000E+04 -8.839E-02
   1   16    7     1     7    1.1310E+05 -1.9689E+03   1.1507E+05  0.000E+00  0.000E+00  0.000E+00  4.55543E+01  1.566E-01  2.000E+01  2.000E+04 -9.845E-02
   1   16    8     1     8    1.1507E+05 -2.0923E+03   1.1716E+05  0.000E+00  0.000E+00  0.000E+00  4.50787E+01  1.582E-01  2.000E+01  2.000E+04 -1.046E-01
   1   16    9     1     9    1.1716E+05 -2.1644E+03   1.1933E+05  0.000E+00  0.000E+00  0.000E+00  4.46031E+01  1.600E-01  2.000E+01  2.000E+04 -1.082E-01
   1   16   10     1    10    1.1933E+05 -2.1994E+03   1.2153E+05  0.000E+00  0.000E+00  0.000E+00  4.41276E+01  1.617E-01  2.000E+01  2.000E+04 -1.100E-01
   1   16   11     1    11    1.2153E+05 -2.2431E+03   1.2377E+05  0.000E+00  0.000E+00  0.000E+00  4.36521E+01  1.635E-01  2.000E+01  2.000E+04 -1.122E-01
   1   16   12     1    12    1.2377E+05 -3.9973E+03   1.2777E+05  0.000E+00  0.000E+00  0.000E+00  4.31773E+01  1.660E-01  2.000E+01  2.000E+04 -1.999E-01
   1   15   13     1    13    1.2777E+05 -3.9369E+03   1.3170E+05  0.000E+00  0.000E+00  0.000E+00  4.27032E+01  1.691E-01  2.000E+01  2.000E+04 -1.968E-01
   1   14   14     1    14    1.3170E+05 -4.2098E+03   1.3591E+05  0.000E+00  0.000E+00  0.000E+00  4.22291E+01  1.723E-01  2.000E+01  2.000E+04 -2.105E-01
   1   13   15     1    15    1.3591E+05 -4.3532E+03   1.4027E+05  0.000E+00  0.000E+00  0.000E+00  4.17551E+01  1.756E-01  2.000E+01  2.000E+04 -2.177E-01
   1   12   16     1    16    1.4027E+05 -4.6550E+03   1.4492E+05  0.000E+00  0.000E+00  0.000E+00  4.12812E+01  1.790E-01  2.000E+01  2.000E+04 -2.328E-01
   1   12   17     1    17    1.4492E+05 -3.1579E+03   1.4808E+05  0.000E+00  0.000E+00  0.000E+00  4.08069E+01  1.819E-01  2.000E+01  2.000E+04 -1.579E-01
   1   12   18     1    18    1.4808E+05 -3.1449E+03   1.5123E+05  0.000E+00  0.000E+00  0.000E+00  4.03320E+01  1.842E-01  2.000E+01  2.000E+04 -1.572E-01
   1   12   19     1    19    1.5123E+05 -4.1447E+03   1.5537E+05  0.000E+00  0.000E+00  0.000E+00  3.98574E+01  1.869E-01  2.000E+01  2.000E+04 -2.072E-01
   1   13   20     1    20    1.5537E+05 -3.6027E+03   1.5897E+05  0.000E+00  0.000E+00  0.000E+00  3.93829E+01  1.897E-01  2.000E+01  2.000E+04 -1.801E-01
   1   14   21     1    21    1.5897E+05 -3.6566E+03   1.6263E+05  0.000E+00  0.000E+00  0.000E+00  3.89083E+01  1.924E-01  2.000E+01  2.000E+04 -1.828E-01
   1   14   22     1    22    1.6263E+05  4.3994E+03   1.5823E+05  0.000E+00  0.000E+00  0.000E+00  3.84307E+01  1.921E-01  2.000E+01  2.000E+04  2.200E-01
   1    9   30     2     1    5.0000E+04 -1.4459E+03   5.1446E+04  0.000E+00  0.000E+00  0.000E+00  4.02419E+01  1.169E-01  2.000E+01  2.000E+04 -7.229E-02
   1    9   29     2     2    5.1446E+04 -1.8082E+03   5.3254E+04  0.000E+00  0.000E+00  0.000E+00  3.99941E+01  1.191E-01  2.000E+01  2.000E+04 -9.041E-02
   1    9   28     2     3    5.3254E+04 -2.2289E+03   5.5483E+04  0.000E+00  0.000E+00  0.000E+00  3.97468E+01  1.218E-01  2.000E+01  2.000E+04 -1.114E-01
   1    9   27     2     4    5.5483E+04 -4.4487E+03   5.9932E+04  0.000E+00  0.000E+00  0.000E+00  3.95013E+01  1.263E-01  2.000E+01  2.000E+04 -2.224E-01
   1   10   26     2     5    5.9932E+04 -3.0727E+03   6.3004E+04  0.000E+00  0.000E+00  0.000E+00  3.92561E+01  1.311E-01  2.000E+01  2.000E+04 -1.536E-01
   1   11   25     2     6    6.3004E+04 -2.7803E+03   6.5785E+04  0.000E+00  0.000E+00  0.000E+00  3.90099E+01  1.349E-01  2.000E+01  2.000E+04 -1.390E-01
   1   12   24     2     7    6.5785E+04 -2.9015E+03   6.8686E+04  0.000E+00  0.000E+00  0.000E+00  3.87634E+01  1.384E-01  2.000E+01  2.000E+04 -1.451E-01
   1   13   23     2     8    6.8686E+04 -5.8092E+02   6.9267E+04  0.000E+00  0.000E+00  0.000E+00  3.85155E+01  1.405E-01  2.000E+01  2.000E+04 -2.905E-02
   1   14   22     2     9    6.9267E+04  1.0895E+03   6.8178E+04  0.000E+00  0.000E+00  0.000E+00  3.82652E+01  1.402E-01  2.000E+01  2.000E+04  5.448E-02
   1   14   22     3     1    2.2641E+05 -9.1368E+03   2.3554E+05  0.000E+00  0.000E+00  0.000E+00  3.77539E+01  1.984E-01  2.000E+01  2.000E+04 -4.568E-01
   1   15   23     3     2    2.3554E+05 -1.0329E+03   2.3658E+05  0.000E+00  0.000E+00  0.000E+00  3.68676E+01  2.010E-01  2.000E+01  2.000E+04 -5.164E-02
   1   15   24     3     3    2.3658E+05 -6.4281E+02   2.3722E+05  0.000E+00  0.000E+00  0.000E+00  3.59792E+01  2.014E-01  2.000E+01  2.000E+04 -3.214E-02
   1   15   25     3     4    2.3722E+05 -6.2658E+02   2.3785E+05  0.000E+00  0.000E+00  0.000E+00  3.50906E+01  2.017E-01  2.000E+01  2.000E+04 -3.133E-02
   1   15   26     3     5    2.3785E+05 -5.3704E+02   2.3838E+05  0.000E+00  0.000E+00  0.000E+00  3.42020E+01  2.020E-01  2.000E+01  2.000E+04 -2.685E-02
   1   16   27     3     6    2.3838E+05 -4.2933E+02   2.3881E+05  0.000E+00  0.000E+00  0.000E+00  3.33134E+01  2.023E-01  2.000E+01  2.000E+04 -2.147E-02
   1   17   28     3     7    2.3881E+05  5.8955E+02   2.3822E+05  0.000E+00  0.000E+00  0.000E+00  3.24244E+01  2.022E-01  2.000E+01  2.000E+04  2.948E-02
   1   18   29     3     8    2.3822E+05 -5.2080E+02   2.3874E+05  0.000E+00  0.000E+00  0.000E+00  3.15355E+01  2.022E-01  2.000E+01  2.000E+04 -2.604E-02
   1   18   30     3     9    2.3874E+05 -2.3991E+03   2.4114E+05  0.000E+00  0.000E+00  0.000E+00  3.06474E+01  2.029E-01  2.000E+01  2.000E+04 -1.200E-01



1
              HEAD IN LAYER   1 AT END OF TIME STEP   1 IN STRESS PERIOD    2
  ---------------------------------------------------------------------------

          1      2      3      4      5      6      7      8      9     10
         11     12     13     14     15     16     17     18     19     20
         21     22     23     24     25     26     27     28     29     30
 .........................................................................
   1  ****** ****** ****** ****** ****** ****** ****** ****** ****** ******
      ****** ****** ****** ****** ****** ****** ****** ****** ****** ******
      ****** ****** ****** ****** ****** ****** ****** ****** ****** ******
   2  ****** ****** ****** ****** ****** ****** ****** ****** ****** ******
      ****** ****** ****** ****** ****** ****** ****** ****** ****** ******
      ****** ****** ****** ****** ****** ****** ****** ****** ****** ******
   3  ****** ****** ****** ****** ****** ****** ****** ****** ****** ******
      ****** ****** ****** ****** ****** ****** ****** ****** ****** ******
      ****** ****** ****** ****** ****** ****** ****** ****** ****** ******
   4  ****** ****** ****** ****** ****** ****** ****** ****** ****** ******
      ****** ****** ****** ****** ****** ****** ****** ****** ****** ******
      ****** ****** ****** ****** ****** ****** ****** ****** ****** ******
   5  ****** ****** ****** ****** ****** ****** ****** ****** ****** ******
      ****** ****** ****** ****** ****** ****** ****** ****** ****** ******
      ****** ****** ****** ****** ****** ****** ****** ****** ****** ******
   6  ****** ****** ****** ****** ****** ****** ****** ****** ****** ******
      ****** ****** ****** ****** ****** ****** ****** ****** ****** ******
      ****** ****** ****** ****** ****** ****** ****** ****** ****** ******
   7  ****** ****** ****** ****** ****** ****** ****** ****** ****** ******
      ****** ****** ****** ****** ****** ****** ****** ****** ****** ******
      ****** ****** ****** ****** ****** ****** ****** ****** ****** ******
   8  ****** ****** ****** ****** ****** ****** ****** ****** ****** ******
      ****** ****** ****** ****** ****** ****** ****** ****** ****** ******
      ****** ****** ****** ****** ****** ****** ****** ****** ****** ******
   9  ****** ****** ****** ****** ****** ****** ****** ****** ****** ******
      ****** ****** ****** ****** ****** ****** ****** ****** ****** ******
      ****** ****** ****** ****** ****** ****** ****** ****** ****** ******
  10  ****** ****** ****** ****** ****** ****** ****** ****** ****** ******
      ****** ****** ****** ****** ****** ****** ****** ****** ****** ******
      ****** ****** ****** ****** ****** ****** ****** ****** ****** ******
  11  ****** ****** ****** ****** ****** ****** ****** ****** ****** ******
      ****** ****** ****** ****** ****** ****** ****** ****** ****** ******
      ****** ****** ****** ****** ****** ****** ****** ****** ****** ******
  12  ****** ****** ****** ****** ****** ****** ****** ****** ****** ******
      ****** ****** ****** ****** ****** ****** ****** ****** ****** ******
      ****** ****** ****** ****** ****** ****** ****** ****** ****** ******
  13  ****** ****** ****** ****** ****** ****** ****** ****** ****** ******
      ****** ****** ****** ****** ****** ****** ****** ****** ****** ******
      ****** ****** ****** ****** ****** ****** ****** ****** ****** ******
  14  ****** ****** ****** ****** ****** ****** ****** ****** ****** ******
      ****** ****** ****** ****** ****** ****** ****** ****** ****** ******
      ****** ****** ****** ****** ****** ****** ****** ****** ****** ******
  15  ****** ****** ****** ****** ****** ****** ****** ****** ****** ******
      ****** ****** ****** ****** ****** ****** ****** ****** ****** ******
      ****** ****** ****** ****** ****** ****** ****** ****** ****** ******
  16  ****** ****** ****** ****** ****** ****** ****** ****** ****** ******
      ****** ****** ****** ****** ****** ****** ****** ****** ****** ******
      ****** ****** ****** ****** ****** ****** ****** ****** ****** ******
  17  ****** ****** ****** ****** ****** ****** ****** ****** ****** ******
      ****** ****** ****** ****** ****** ****** ****** ****** ****** ******
      ****** ****** ****** ****** ****** ****** ****** ****** ****** ******
  18  ****** ****** ****** ****** ****** ****** ****** ****** ****** ******
      ****** ****** ****** ****** ****** ****** ****** ****** ****** ******
      ****** ****** ****** ****** ****** ****** ****** ****** ****** ******
  19  ****** ****** ****** ****** ****** ****** ****** ****** ****** ******
      ****** ****** ****** ****** ****** ****** ****** ****** ****** ******
      ****** ****** ****** ****** ****** ****** ****** ****** ****** ******
  20  ****** ****** ****** ****** ****** ****** ****** ****** ****** ******
      ****** ****** ****** ****** ****** ****** ****** ****** ****** ******
      ****** ****** ****** ****** ****** ****** ****** ****** ****** ******
  21  ****** ****** ****** ****** ****** ****** ****** ****** ****** ******
      ****** ****** ****** ****** ****** ****** ****** ****** ****** ******
      ****** ****** ****** ****** ****** ****** ****** ****** ****** ******
  22  ****** ****** ****** ****** ****** ****** ****** ****** ****** ******
      ****** ****** ****** ****** ****** ****** ****** ****** ****** ******
      ****** ****** ****** ****** ****** ****** ****** ****** ****** ******
  23  ****** ****** ****** ****** ****** ****** ****** ****** ****** ******
      ****** ****** ****** ****** ****** ****** ****** ****** ****** ******
      ****** ****** ****** ****** ****** ****** ****** ****** ****** ******
  24  ****** ****** ****** ****** ****** ****** ****** ****** ****** ******
      ****** ****** ****** ****** ****** ****** ****** ****** ****** ******
      ****** ****** ****** ****** ****** ****** ****** ****** ****** ******
  25  ****** ****** ****** ****** ****** ****** ****** ****** ****** ******
      ****** ****** ****** ****** ****** ****** ****** ****** ****** ******
      ****** ****** ****** ****** ****** ****** ****** ****** ****** ******

 HEAD WILL BE SAVED ON UNIT   51 AT END OF TIME STEP    1, STRESS PERIOD    2
1
  VOLUMETRIC BUDGET FOR ENTIRE MODEL AT END OF TIME STEP    1, STRESS PERIOD   2
  ------------------------------------------------------------------------------

     CUMULATIVE VOLUMES      L**3       RATES FOR THIS TIME STEP      L**3/T
     ------------------                 ------------------------

           IN:                                      IN:
           ---                                      ---
             STORAGE =    22957138.3758               STORAGE =       54886.4263
       CONSTANT HEAD =     2734668.6221         CONSTANT HEAD =       17275.2955
               WELLS =           0.0000                 WELLS =           0.0000
            RECHARGE =     6292800.0000              RECHARGE =       55200.0000
      STREAM LEAKAGE =      904517.0259        STREAM LEAKAGE =        6078.4782

            TOTAL IN =    32889124.0239              TOTAL IN =      133440.2000

          OUT:                                     OUT:
          ----                                     ----
             STORAGE =           0.0000               STORAGE =           0.0000
       CONSTANT HEAD =           0.0000         CONSTANT HEAD =           0.0000
               WELLS =     6627938.1944                 WELLS =       36218.2415
            RECHARGE =           0.0000              RECHARGE =           0.0000
      STREAM LEAKAGE =    26261187.1511        STREAM LEAKAGE =       97221.9699

           TOTAL OUT =    32889125.3455             TOTAL OUT =      133440.2114

            IN - OUT =          -1.3216              IN - OUT =      -1.1336E-02

 PERCENT DISCREPANCY =          -0.00     PERCENT DISCREPANCY =          -0.00






         TIME SUMMARY AT END OF TIME STEP    1 IN STRESS PERIOD    2
                    SECONDS     MINUTES      HOURS       DAYS        YEARS
                    -----------------------------------------------------------
   TIME STEP LENGTH 7.86240E+06 1.31040E+05  2184.0      91.000     0.24914    
 STRESS PERIOD TIME 7.86240E+06 1.31040E+05  2184.0      91.000     0.24914    
         TOTAL TIME 1.58112E+07 2.63520E+05  4392.0      183.00     0.50103    
1
1
                            STRESS PERIOD NO.    3, LENGTH =   91.00000    
                            -----------------------------------------------

                              NUMBER OF TIME STEPS =     1

                               MULTIPLIER FOR DELT =     1.500

                            INITIAL TIME STEP SIZE =   91.00000    

 WELL NO.  LAYER   ROW   COL   STRESS RATE         
 --------------------------------------------------
      1      1      8     16      -9735.    
      2      1     14     29      -8048.    
      3      1     19     28      -9398.    
      4      1     18      3      -9037.    

      4 WELLS

                 RECHARGE =   0.00000    

 REUSING STREAM SEGMENT DATA FROM LAST STRESS PERIOD
 
 SOLVING FOR HEAD 


     7 CALLS TO PCG ROUTINE FOR TIME STEP   1 IN STRESS PERIOD    3
    27 TOTAL ITERATIONS

 OUTPUT CONTROL FOR STRESS PERIOD    3   TIME STEP    1
    SAVE BUDGET
    SAVE HEAD FOR ALL LAYERS
    PRINT HEAD FOR ALL LAYERS
 UBDSV2 SAVING "STREAMFLOW OUT  " ON UNIT  50 AT TIME STEP  1, STRESS PERIOD   3



 STREAM LISTING     PERIOD      3   STEP        1

 LAYER ROW COL. STREAM  RCH.  FLOW INTO     FLOW TO   FLOW OUT OF   OVRLND.     DIRECT     STREAM       STREAM     STREAM     STREAM   STREAMBED  STREAMBED
                SEG.NO.  NO.  STRM. RCH.    AQUIFER    STRM. RCH.    RUNOFF     PRECIP       ET          HEAD       DEPTH      WIDTH   CONDCTNC.   GRADIENT

   1   13    1     1     1    1.0000E+05 -1.9892E+03   1.0199E+05  0.000E+00  0.000E+00  0.000E+00  4.84069E+01  1.455E-01  2.000E+01  2.000E+04 -9.946E-02
   1   13    2     1     2    1.0199E+05 -3.1279E+03   1.0512E+05  0.000E+00  0.000E+00  0.000E+00  4.79318E+01  1.477E-01  2.000E+01  2.000E+04 -1.564E-01
   1   14    3     1     3    1.0512E+05 -3.9593E+02   1.0551E+05  0.000E+00  0.000E+00  0.000E+00  4.74560E+01  1.492E-01  2.000E+01  2.000E+04 -1.980E-02
   1   15    4     1     4    1.0551E+05 -2.2876E+02   1.0574E+05  0.000E+00  0.000E+00  0.000E+00  4.69790E+01  1.495E-01  2.000E+01  2.000E+04 -1.144E-02
   1   16    5     1     5    1.0574E+05  2.5490E+02   1.0549E+05  0.000E+00  0.000E+00  0.000E+00  4.65017E+01  1.495E-01  2.000E+01  2.000E+04  1.275E-02
   1   16    6     1     6    1.0549E+05 -6.8140E+02   1.0617E+05  0.000E+00  0.000E+00  0.000E+00  4.60247E+01  1.497E-01  2.000E+01  2.000E+04 -3.407E-02
   1   16    7     1     7    1.0617E+05 -9.6092E+02   1.0713E+05  0.000E+00  0.000E+00  0.000E+00  4.55481E+01  1.503E-01  2.000E+01  2.000E+04 -4.805E-02
   1   16    8     1     8    1.0713E+05 -1.1150E+03   1.0824E+05  0.000E+00  0.000E+00  0.000E+00  4.50717E+01  1.512E-01  2.000E+01  2.000E+04 -5.575E-02
   1   16    9     1     9    1.0824E+05 -1.2012E+03   1.0945E+05  0.000E+00  0.000E+00  0.000E+00  4.45954E+01  1.522E-01  2.000E+01  2.000E+04 -6.006E-02
   1   16   10     1    10    1.0945E+05 -1.2443E+03   1.1069E+05  0.000E+00  0.000E+00  0.000E+00  4.41191E+01  1.532E-01  2.000E+01  2.000E+04 -6.221E-02
   1   16   11     1    11    1.1069E+05 -1.2881E+03   1.1198E+05  0.000E+00  0.000E+00  0.000E+00  4.36429E+01  1.543E-01  2.000E+01  2.000E+04 -6.441E-02
   1   16   12     1    12    1.1198E+05 -2.3507E+03   1.1433E+05  0.000E+00  0.000E+00  0.000E+00  4.31671E+01  1.558E-01  2.000E+01  2.000E+04 -1.175E-01
   1   15   13     1    13    1.1433E+05 -2.2535E+03   1.1658E+05  0.000E+00  0.000E+00  0.000E+00  4.26918E+01  1.577E-01  2.000E+01  2.000E+04 -1.127E-01
   1   14   14     1    14    1.1658E+05 -2.4714E+03   1.1905E+05  0.000E+00  0.000E+00  0.000E+00  4.22164E+01  1.596E-01  2.000E+01  2.000E+04 -1.236E-01
   1   13   15     1    15    1.1905E+05 -2.5979E+03   1.2165E+05  0.000E+00  0.000E+00  0.000E+00  4.17412E+01  1.617E-01  2.000E+01  2.000E+04 -1.299E-01
   1   12   16     1    16    1.2165E+05 -2.8107E+03   1.2446E+05  0.000E+00  0.000E+00  0.000E+00  4.12661E+01  1.638E-01  2.000E+01  2.000E+04 -1.405E-01
   1   12   17     1    17    1.2446E+05 -1.8377E+03   1.2630E+05  0.000E+00  0.000E+00  0.000E+00  4.07907E+01  1.657E-01  2.000E+01  2.000E+04 -9.188E-02
   1   12   18     1    18    1.2630E+05 -1.8500E+03   1.2815E+05  0.000E+00  0.000E+00  0.000E+00  4.03149E+01  1.671E-01  2.000E+01  2.000E+04 -9.250E-02
   1   12   19     1    19    1.2815E+05 -2.5215E+03   1.3067E+05  0.000E+00  0.000E+00  0.000E+00  3.98393E+01  1.689E-01  2.000E+01  2.000E+04 -1.261E-01
   1   13   20     1    20    1.3067E+05 -2.1372E+03   1.3281E+05  0.000E+00  0.000E+00  0.000E+00  3.93639E+01  1.707E-01  2.000E+01  2.000E+04 -1.069E-01
   1   14   21     1    21    1.3281E+05 -2.1748E+03   1.3498E+05  0.000E+00  0.000E+00  0.000E+00  3.88882E+01  1.723E-01  2.000E+01  2.000E+04 -1.087E-01
   1   14   22     1    22    1.3498E+05  4.7523E+03   1.3023E+05  0.000E+00  0.000E+00  0.000E+00  3.84100E+01  1.713E-01  2.000E+01  2.000E+04  2.376E-01
   1    9   30     2     1    5.0000E+04 -2.0658E+02   5.0207E+04  0.000E+00  0.000E+00  0.000E+00  4.02410E+01  1.160E-01  2.000E+01  2.000E+04 -1.033E-02
   1    9   29     2     2    5.0207E+04 -5.7280E+02   5.0779E+04  0.000E+00  0.000E+00  0.000E+00  3.99915E+01  1.165E-01  2.000E+01  2.000E+04 -2.864E-02
   1    9   28     2     3    5.0779E+04 -9.8474E+02   5.1764E+04  0.000E+00  0.000E+00  0.000E+00  3.97426E+01  1.176E-01  2.000E+01  2.000E+04 -4.924E-02
   1    9   27     2     4    5.1764E+04 -2.6728E+03   5.4437E+04  0.000E+00  0.000E+00  0.000E+00  3.94951E+01  1.201E-01  2.000E+01  2.000E+04 -1.336E-01
   1   10   26     2     5    5.4437E+04 -1.3954E+03   5.5832E+04  0.000E+00  0.000E+00  0.000E+00  3.92479E+01  1.229E-01  2.000E+01  2.000E+04 -6.977E-02
   1   11   25     2     6    5.5832E+04 -1.2174E+03   5.7050E+04  0.000E+00  0.000E+00  0.000E+00  3.89996E+01  1.246E-01  2.000E+01  2.000E+04 -6.087E-02
   1   12   24     2     7    5.7050E+04 -1.5137E+03   5.8563E+04  0.000E+00  0.000E+00  0.000E+00  3.87514E+01  1.264E-01  2.000E+01  2.000E+04 -7.568E-02
   1   13   23     2     8    5.8563E+04 -2.4060E+02   5.8804E+04  0.000E+00  0.000E+00  0.000E+00  3.85026E+01  1.276E-01  2.000E+01  2.000E+04 -1.203E-02
   1   14   22     2     9    5.8804E+04  1.5861E+03   5.7218E+04  0.000E+00  0.000E+00  0.000E+00  3.82517E+01  1.267E-01  2.000E+01  2.000E+04  7.931E-02
   1   14   22     3     1    1.8745E+05 -8.7873E+03   1.9624E+05  0.000E+00  0.000E+00  0.000E+00  3.77330E+01  1.774E-01  2.000E+01  2.000E+04 -4.394E-01
   1   15   23     3     2    1.9624E+05 -6.3748E+02   1.9687E+05  0.000E+00  0.000E+00  0.000E+00  3.68467E+01  1.800E-01  2.000E+01  2.000E+04 -3.187E-02
   1   15   24     3     3    1.9687E+05 -3.1504E+02   1.9719E+05  0.000E+00  0.000E+00  0.000E+00  3.59581E+01  1.803E-01  2.000E+01  2.000E+04 -1.575E-02
   1   15   25     3     4    1.9719E+05 -2.7882E+02   1.9747E+05  0.000E+00  0.000E+00  0.000E+00  3.50694E+01  1.805E-01  2.000E+01  2.000E+04 -1.394E-02
   1   15   26     3     5    1.9747E+05 -1.1206E+02   1.9758E+05  0.000E+00  0.000E+00  0.000E+00  3.41806E+01  1.806E-01  2.000E+01  2.000E+04 -5.603E-03
   1   16   27     3     6    1.9758E+05  6.4816E+01   1.9751E+05  0.000E+00  0.000E+00  0.000E+00  3.32917E+01  1.806E-01  2.000E+01  2.000E+04  3.241E-03
   1   17   28     3     7    1.9751E+05  2.1324E+03   1.9538E+05  0.000E+00  0.000E+00  0.000E+00  3.24022E+01  1.800E-01  2.000E+01  2.000E+04  1.066E-01
   1   18   29     3     8    1.9538E+05  1.1448E+03   1.9424E+05  0.000E+00  0.000E+00  0.000E+00  3.15124E+01  1.791E-01  2.000E+01  2.000E+04  5.724E-02
   1   18   30     3     9    1.9424E+05 -1.1513E+03   1.9539E+05  0.000E+00  0.000E+00  0.000E+00  3.06235E+01  1.791E-01  2.000E+01  2.000E+04 -5.756E-02



1
              HEAD IN LAYER   1 AT END OF TIME STEP   1 IN STRESS PERIOD    3
  ---------------------------------------------------------------------------

          1      2      3      4      5      6      7      8      9     10
         11     12     13     14     15     16     17     18     19     20
         21     22     23     24     25     26     27     28     29     30
 .........................................................................
   1  ****** ****** ****** ****** ****** ****** ****** ****** ****** ******
      ****** ****** ****** ****** ****** ****** ****** ****** ****** ******
      ****** ****** ****** ****** ****** ****** ****** ****** ****** ******
   2  ****** ****** ****** ****** ****** ****** ****** ****** ****** ******
      ****** ****** ****** ****** ****** ****** ****** ****** ****** ******
      ****** ****** ****** ****** ****** ****** ****** ****** ****** ******
   3  ****** ****** ****** ****** ****** ****** ****** ****** ****** ******
      ****** ****** ****** ****** ****** ****** ****** ****** ****** ******
      ****** ****** ****** ****** ****** ****** ****** ****** ****** ******
   4  ****** ****** ****** ****** ****** ****** ****** ****** ****** ******
      ****** ****** ****** ****** ****** ****** ****** ****** ****** ******
      ****** ****** ****** ****** ****** ****** ****** ****** ****** ******
   5  ****** ****** ****** ****** ****** ****** ****** ****** ****** ******
      ****** ****** ****** ****** ****** ****** ****** ****** ****** ******
      ****** ****** ****** ****** ****** ****** ****** ****** ****** ******
   6  ****** ****** ****** ****** ****** ****** ****** ****** ****** ******
      ****** ****** ****** ****** ****** ****** ****** ****** ****** ******
      ****** ****** ****** ****** ****** ****** ****** ****** ****** ******
   7  ****** ****** ****** ****** ****** ****** ****** ****** ****** ******
      ****** ****** ****** ****** ****** ****** ****** ****** ****** ******
      ****** ****** ****** ****** ****** ****** ****** ****** ****** ******
   8  ****** ****** ****** ****** ****** ****** ****** ****** ****** ******
      ****** ****** ****** ****** ****** ****** ****** ****** ****** ******
      ****** ****** ****** ****** ****** ****** ****** ****** ****** ******
   9  ****** ****** ****** ****** ****** ****** ****** ****** ****** ******
      ****** ****** ****** ****** ****** ****** ****** ****** ****** ******
      ****** ****** ****** ****** ****** ****** ****** ****** ****** ******
  10  ****** ****** ****** ****** ****** ****** ****** ****** ****** ******
      ****** ****** ****** ****** ****** ****** ****** ****** ****** ******
      ****** ****** ****** ****** ****** ****** ****** ****** ****** ******
  11  ****** ****** ****** ****** ****** ****** ****** ****** ****** ******
      ****** ****** ****** ****** ****** ****** ****** ****** ****** ******
      ****** ****** ****** ****** ****** ****** ****** ****** ****** ******
  12  ****** ****** ****** ****** ****** ****** ****** ****** ****** ******
      ****** ****** ****** ****** ****** ****** ****** ****** ****** ******
      ****** ****** ****** ****** ****** ****** ****** ****** ****** ******
  13  ****** ****** ****** ****** ****** ****** ****** ****** ****** ******
      ****** ****** ****** ****** ****** ****** ****** ****** ****** ******
      ****** ****** ****** ****** ****** ****** ****** ****** ****** ******
  14  ****** ****** ****** ****** ****** ****** ****** ****** ****** ******
      ****** ****** ****** ****** ****** ****** ****** ****** ****** ******
      ****** ****** ****** ****** ****** ****** ****** ****** ****** ******
  15  ****** ****** ****** ****** ****** ****** ****** ****** ****** ******
      ****** ****** ****** ****** ****** ****** ****** ****** ****** ******
      ****** ****** ****** ****** ****** ****** ****** ****** ****** ******
  16  ****** ****** ****** ****** ****** ****** ****** ****** ****** ******
      ****** ****** ****** ****** ****** ****** ****** ****** ****** ******
      ****** ****** ****** ****** ****** ****** ****** ****** ****** ******
  17  ****** ****** ****** ****** ****** ****** ****** ****** ****** ******
      ****** ****** ****** ****** ****** ****** ****** ****** ****** ******
      ****** ****** ****** ****** ****** ****** ****** ****** ****** ******
  18  ****** ****** ****** ****** ****** ****** ****** ****** ****** ******
      ****** ****** ****** ****** ****** ****** ****** ****** ****** ******
      ****** ****** ****** ****** ****** ****** ****** ****** ****** ******
  19  ****** ****** ****** ****** ****** ****** ****** ****** ****** ******
      ****** ****** ****** ****** ****** ****** ****** ****** ****** ******
      ****** ****** ****** ****** ****** ****** ****** ****** ****** ******
  20  ****** ****** ****** ****** ****** ****** ****** ****** ****** ******
      ****** ****** ****** ****** ****** ****** ****** ****** ****** ******
      ****** ****** ****** ****** ****** ****** ****** ****** ****** ******
  21  ****** ****** ****** ****** ****** ****** ****** ****** ****** ******
      ****** ****** ****** ****** ****** ****** ****** ****** ****** ******
      ****** ****** ****** ****** ****** ****** ****** ****** ****** ******
  22  ****** ****** ****** ****** ****** ****** ****** ****** ****** ******
      ****** ****** ****** ****** ****** ****** ****** ****** ****** ******
      ****** ****** ****** ****** ****** ****** ****** ****** ****** ******
  23  ****** ****** ****** ****** ****** ****** ****** ****** ****** ******
      ****** ****** ****** ****** ****** ****** ****** ****** ****** ******
      ****** ****** ****** ****** ****** ****** ****** ****** ****** ******
  24  ****** ****** ****** ****** ****** ****** ****** ****** ****** ******
      ****** ****** ****** ****** ****** ****** ****** ****** ****** ******
      ****** ****** ****** ****** ****** ****** ****** ****** ****** ******
  25  ****** ****** ****** ****** ****** ****** ****** ****** ****** ******
      ****** ****** ****** ****** ****** ****** ****** ****** ****** ******
      ****** ****** ****** ****** ****** ****** ****** ****** ****** ******

 HEAD WILL BE SAVED ON UNIT   51 AT END OF TIME STEP    1, STRESS PERIOD    3
1
  VOLUMETRIC BUDGET FOR ENTIRE MODEL AT END OF TIME STEP    1, STRESS PERIOD   3
  ------------------------------------------------------------------------------

     CUMULATIVE VOLUMES      L**3       RATES FOR THIS TIME STEP      L**3/T
     ------------------                 ------------------------

           IN:                                      IN:
           ---                                      ---
             STORAGE =    28023828.9691               STORAGE =       55677.9186
       CONSTANT HEAD =     5094200.8033         CONSTANT HEAD =       25928.9251
               WELLS =           0.0000                 WELLS =           0.0000
            RECHARGE =     6292800.0000              RECHARGE =           0.0000
      STREAM LEAKAGE =     1808628.9268        STREAM LEAKAGE =        9935.2956

            TOTAL IN =    41219458.6991              TOTAL IN =       91542.1393

          OUT:                                     OUT:
          ----                                     ----
             STORAGE =           0.0000               STORAGE =           0.0000
       CONSTANT HEAD =           0.0000         CONSTANT HEAD =           0.0000
               WELLS =     9923798.1708                 WELLS =       36218.2415
            RECHARGE =           0.0000              RECHARGE =           0.0000
      STREAM LEAKAGE =    31295662.5685        STREAM LEAKAGE =       55323.9057

           TOTAL OUT =    41219460.7394             TOTAL OUT =       91542.1472

            IN - OUT =          -2.0402              IN - OUT =      -7.8969E-03

 PERCENT DISCREPANCY =          -0.00     PERCENT DISCREPANCY =          -0.00






         TIME SUMMARY AT END OF TIME STEP    1 IN STRESS PERIOD    3
                    SECONDS     MINUTES      HOURS       DAYS        YEARS
                    -----------------------------------------------------------
   TIME STEP LENGTH 7.86240E+06 1.31040E+05  2184.0      91.000     0.24914    
 STRESS PERIOD TIME 7.86240E+06 1.31040E+05  2184.0      91.000     0.24914    
         TOTAL TIME 2.36736E+07 3.94560E+05  6576.0      274.00     0.75017    
1
1
                            STRESS PERIOD NO.    4, LENGTH =   91.00000    
                            -----------------------------------------------

                              NUMBER OF TIME STEPS =     1

                               MULTIPLIER FOR DELT =     1.500

                            INITIAL TIME STEP SIZE =   91.00000    

 WELL NO.  LAYER   ROW   COL   STRESS RATE         
 --------------------------------------------------
      1      1      8     16      -9735.    
      2      1     14     29      -8048.    
      3      1     19     28      -9398.    
      4      1     18      3      -9037.    

      4 WELLS

                 RECHARGE =  1.000000E-03

 REUSING STREAM SEGMENT DATA FROM LAST STRESS PERIOD
 
 SOLVING FOR HEAD 


     6 CALLS TO PCG ROUTINE FOR TIME STEP   1 IN STRESS PERIOD    4
    23 TOTAL ITERATIONS

 OUTPUT CONTROL FOR STRESS PERIOD    4   TIME STEP    1
    SAVE BUDGET
    SAVE HEAD FOR ALL LAYERS
    PRINT HEAD FOR ALL LAYERS
 UBDSV2 SAVING "STREAMFLOW OUT  " ON UNIT  50 AT TIME STEP  1, STRESS PERIOD   4



 STREAM LISTING     PERIOD      4   STEP        1

 LAYER ROW COL. STREAM  RCH.  FLOW INTO     FLOW TO   FLOW OUT OF   OVRLND.     DIRECT     STREAM       STREAM     STREAM     STREAM   STREAMBED  STREAMBED
                SEG.NO.  NO.  STRM. RCH.    AQUIFER    STRM. RCH.    RUNOFF     PRECIP       ET          HEAD       DEPTH      WIDTH   CONDCTNC.   GRADIENT

   1   13    1     1     1    1.0000E+05 -1.7165E+03   1.0172E+05  0.000E+00  0.000E+00  0.000E+00  4.84068E+01  1.454E-01  2.000E+01  2.000E+04 -8.583E-02
   1   13    2     1     2    1.0172E+05 -2.8174E+03   1.0453E+05  0.000E+00  0.000E+00  0.000E+00  4.79314E+01  1.473E-01  2.000E+01  2.000E+04 -1.409E-01
   1   14    3     1     3    1.0453E+05 -3.5699E+02   1.0489E+05  0.000E+00  0.000E+00  0.000E+00  4.74555E+01  1.487E-01  2.000E+01  2.000E+04 -1.785E-02
   1   15    4     1     4    1.0489E+05 -1.7676E+02   1.0507E+05  0.000E+00  0.000E+00  0.000E+00  4.69785E+01  1.489E-01  2.000E+01  2.000E+04 -8.838E-03
   1   16    5     1     5    1.0507E+05  6.4355E+02   1.0442E+05  0.000E+00  0.000E+00  0.000E+00  4.65010E+01  1.487E-01  2.000E+01  2.000E+04  3.218E-02
   1   16    6     1     6    1.0442E+05 -4.9706E+02   1.0492E+05  0.000E+00  0.000E+00  0.000E+00  4.60237E+01  1.487E-01  2.000E+01  2.000E+04 -2.485E-02
   1   16    7     1     7    1.0492E+05 -7.9566E+02   1.0572E+05  0.000E+00  0.000E+00  0.000E+00  4.55469E+01  1.492E-01  2.000E+01  2.000E+04 -3.978E-02
   1   16    8     1     8    1.0572E+05 -9.5911E+02   1.0668E+05  0.000E+00  0.000E+00  0.000E+00  4.50704E+01  1.500E-01  2.000E+01  2.000E+04 -4.796E-02
   1   16    9     1     9    1.0668E+05 -1.0522E+03   1.0773E+05  0.000E+00  0.000E+00  0.000E+00  4.45940E+01  1.508E-01  2.000E+01  2.000E+04 -5.261E-02
   1   16   10     1    10    1.0773E+05 -1.1023E+03   1.0883E+05  0.000E+00  0.000E+00  0.000E+00  4.41176E+01  1.517E-01  2.000E+01  2.000E+04 -5.512E-02
   1   16   11     1    11    1.0883E+05 -1.1494E+03   1.0998E+05  0.000E+00  0.000E+00  0.000E+00  4.36413E+01  1.527E-01  2.000E+01  2.000E+04 -5.747E-02
   1   16   12     1    12    1.0998E+05 -2.0706E+03   1.1205E+05  0.000E+00  0.000E+00  0.000E+00  4.31654E+01  1.540E-01  2.000E+01  2.000E+04 -1.035E-01
   1   15   13     1    13    1.1205E+05 -1.9943E+03   1.1404E+05  0.000E+00  0.000E+00  0.000E+00  4.26898E+01  1.557E-01  2.000E+01  2.000E+04 -9.971E-02
   1   14   14     1    14    1.1404E+05 -2.1876E+03   1.1623E+05  0.000E+00  0.000E+00  0.000E+00  4.22142E+01  1.574E-01  2.000E+01  2.000E+04 -1.094E-01
   1   13   15     1    15    1.1623E+05 -2.2852E+03   1.1852E+05  0.000E+00  0.000E+00  0.000E+00  4.17388E+01  1.592E-01  2.000E+01  2.000E+04 -1.143E-01
   1   12   16     1    16    1.1852E+05 -2.3928E+03   1.2091E+05  0.000E+00  0.000E+00  0.000E+00  4.12634E+01  1.611E-01  2.000E+01  2.000E+04 -1.196E-01
   1   12   17     1    17    1.2091E+05 -1.5904E+03   1.2250E+05  0.000E+00  0.000E+00  0.000E+00  4.07877E+01  1.627E-01  2.000E+01  2.000E+04 -7.952E-02
   1   12   18     1    18    1.2250E+05 -1.6218E+03   1.2412E+05  0.000E+00  0.000E+00  0.000E+00  4.03118E+01  1.640E-01  2.000E+01  2.000E+04 -8.109E-02
   1   12   19     1    19    1.2412E+05 -2.2386E+03   1.2636E+05  0.000E+00  0.000E+00  0.000E+00  3.98360E+01  1.656E-01  2.000E+01  2.000E+04 -1.119E-01
   1   13   20     1    20    1.2636E+05 -1.9611E+03   1.2832E+05  0.000E+00  0.000E+00  0.000E+00  3.93604E+01  1.672E-01  2.000E+01  2.000E+04 -9.805E-02
   1   14   21     1    21    1.2832E+05 -1.9420E+03   1.3026E+05  0.000E+00  0.000E+00  0.000E+00  3.88847E+01  1.688E-01  2.000E+01  2.000E+04 -9.710E-02
   1   14   22     1    22    1.3026E+05  4.7858E+03   1.2548E+05  0.000E+00  0.000E+00  0.000E+00  3.84063E+01  1.676E-01  2.000E+01  2.000E+04  2.393E-01
   1    9   30     2     1    5.0000E+04 -1.0877E+02   5.0109E+04  0.000E+00  0.000E+00  0.000E+00  4.02409E+01  1.159E-01  2.000E+01  2.000E+04 -5.438E-03
   1    9   29     2     2    5.0109E+04 -4.6819E+02   5.0577E+04  0.000E+00  0.000E+00  0.000E+00  3.99913E+01  1.163E-01  2.000E+01  2.000E+04 -2.341E-02
   1    9   28     2     3    5.0577E+04 -8.6018E+02   5.1437E+04  0.000E+00  0.000E+00  0.000E+00  3.97423E+01  1.173E-01  2.000E+01  2.000E+04 -4.301E-02
   1    9   27     2     4    5.1437E+04 -2.3944E+03   5.3832E+04  0.000E+00  0.000E+00  0.000E+00  3.94945E+01  1.195E-01  2.000E+01  2.000E+04 -1.197E-01
   1   10   26     2     5    5.3832E+04 -1.2240E+03   5.5056E+04  0.000E+00  0.000E+00  0.000E+00  3.92469E+01  1.219E-01  2.000E+01  2.000E+04 -6.120E-02
   1   11   25     2     6    5.5056E+04 -1.0863E+03   5.6142E+04  0.000E+00  0.000E+00  0.000E+00  3.89985E+01  1.235E-01  2.000E+01  2.000E+04 -5.432E-02
   1   12   24     2     7    5.6142E+04 -1.4026E+03   5.7544E+04  0.000E+00  0.000E+00  0.000E+00  3.87501E+01  1.251E-01  2.000E+01  2.000E+04 -7.013E-02
   1   13   23     2     8    5.7544E+04 -2.6419E+02   5.7809E+04  0.000E+00  0.000E+00  0.000E+00  3.85012E+01  1.262E-01  2.000E+01  2.000E+04 -1.321E-02
   1   14   22     2     9    5.7809E+04  1.6664E+03   5.6142E+04  0.000E+00  0.000E+00  0.000E+00  3.82503E+01  1.253E-01  2.000E+01  2.000E+04  8.332E-02
   1   14   22     3     1    1.8162E+05 -8.7451E+03   1.9037E+05  0.000E+00  0.000E+00  0.000E+00  3.77297E+01  1.742E-01  2.000E+01  2.000E+04 -4.373E-01
   1   15   23     3     2    1.9037E+05 -6.1249E+02   1.9098E+05  0.000E+00  0.000E+00  0.000E+00  3.68435E+01  1.768E-01  2.000E+01  2.000E+04 -3.062E-02
   1   15   24     3     3    1.9098E+05 -3.1204E+02   1.9129E+05  0.000E+00  0.000E+00  0.000E+00  3.59548E+01  1.771E-01  2.000E+01  2.000E+04 -1.560E-02
   1   15   25     3     4    1.9129E+05 -2.7450E+02   1.9156E+05  0.000E+00  0.000E+00  0.000E+00  3.50661E+01  1.772E-01  2.000E+01  2.000E+04 -1.372E-02
   1   15   26     3     5    1.9156E+05 -1.1480E+02   1.9168E+05  0.000E+00  0.000E+00  0.000E+00  3.41773E+01  1.773E-01  2.000E+01  2.000E+04 -5.740E-03
   1   16   27     3     6    1.9168E+05  7.2755E+01   1.9161E+05  0.000E+00  0.000E+00  0.000E+00  3.32884E+01  1.773E-01  2.000E+01  2.000E+04  3.638E-03
   1   17   28     3     7    1.9161E+05  2.2308E+03   1.8938E+05  0.000E+00  0.000E+00  0.000E+00  3.23989E+01  1.767E-01  2.000E+01  2.000E+04  1.115E-01
   1   18   29     3     8    1.8938E+05  1.4088E+03   1.8797E+05  0.000E+00  0.000E+00  0.000E+00  3.15090E+01  1.757E-01  2.000E+01  2.000E+04  7.044E-02
   1   18   30     3     9    1.8797E+05 -1.0100E+03   1.8898E+05  0.000E+00  0.000E+00  0.000E+00  3.06200E+01  1.756E-01  2.000E+01  2.000E+04 -5.050E-02



1
              HEAD IN LAYER   1 AT END OF TIME STEP   1 IN STRESS PERIOD    4
  ---------------------------------------------------------------------------

          1      2      3      4      5      6      7      8      9     10
         11     12     13     14     15     16     17     18     19     20
         21     22     23     24     25     26     27     28     29     30
 .........................................................................
   1  ****** ****** ****** ****** ****** ****** ****** ****** ****** ******
      ****** ****** ****** ****** ****** ****** ****** ****** ****** ******
      ****** ****** ****** ****** ****** ****** ****** ****** ****** ******
   2  ****** ****** ****** ****** ****** ****** ****** ****** ****** ******
      ****** ****** ****** ****** ****** ****** ****** ****** ****** ******
      ****** ****** ****** ****** ****** ****** ****** ****** ****** ******
   3  ****** ****** ****** ****** ****** ****** ****** ****** ****** ******
      ****** ****** ****** ****** ****** ****** ****** ****** ****** ******
      ****** ****** ****** ****** ****** ****** ****** ****** ****** ******
   4  ****** ****** ****** ****** ****** ****** ****** ****** ****** ******
      ****** ****** ****** ****** ****** ****** ****** ****** ****** ******
      ****** ****** ****** ****** ****** ****** ****** ****** ****** ******
   5  ****** ****** ****** ****** ****** ****** ****** ****** ****** ******
      ****** ****** ****** ****** ****** ****** ****** ****** ****** ******
      ****** ****** ****** ****** ****** ****** ****** ****** ****** ******
   6  ****** ****** ****** ****** ****** ****** ****** ****** ****** ******
      ****** ****** ****** ****** ****** ****** ****** ****** ****** ******
      ****** ****** ****** ****** ****** ****** ****** ****** ****** ******
   7  ****** ****** ****** ****** ****** ****** ****** ****** ****** ******
      ****** ****** ****** ****** ****** ****** ****** ****** ****** ******
      ****** ****** ****** ****** ****** ****** ****** ****** ****** ******
   8  ****** ****** ****** ****** ****** ****** ****** ****** ****** ******
      ****** ****** ****** ****** ****** ****** ****** ****** ****** ******
      ****** ****** ****** ****** ****** ****** ****** ****** ****** ******
   9  ****** ****** ****** ****** ****** ****** ****** ****** ****** ******
      ****** ****** ****** ****** ****** ****** ****** ****** ****** ******
      ****** ****** ****** ****** ****** ****** ****** ****** ****** ******
  10  ****** ****** ****** ****** ****** ****** ****** ****** ****** ******
      ****** ****** ****** ****** ****** ****** ****** ****** ****** ******
      ****** ****** ****** ****** ****** ****** ****** ****** ****** ******
  11  ****** ****** ****** ****** ****** ****** ****** ****** ****** ******
      ****** ****** ****** ****** ****** ****** ****** ****** ****** ******
      ****** ****** ****** ****** ****** ****** ****** ****** ****** ******
  12  ****** ****** ****** ****** ****** ****** ****** ****** ****** ******
      ****** ****** ****** ****** ****** ****** ****** ****** ****** ******
      ****** ****** ****** ****** ****** ****** ****** ****** ****** ******
  13  ****** ****** ****** ****** ****** ****** ****** ****** ****** ******
      ****** ****** ****** ****** ****** ****** ****** ****** ****** ******
      ****** ****** ****** ****** ****** ****** ****** ****** ****** ******
  14  ****** ****** ****** ****** ****** ****** ****** ****** ****** ******
      ****** ****** ****** ****** ****** ****** ****** ****** ****** ******
      ****** ****** ****** ****** ****** ****** ****** ****** ****** ******
  15  ****** ****** ****** ****** ****** ****** ****** ****** ****** ******
      ****** ****** ****** ****** ****** ****** ****** ****** ****** ******
      ****** ****** ****** ****** ****** ****** ****** ****** ****** ******
  16  ****** ****** ****** ****** ****** ****** ****** ****** ****** ******
      ****** ****** ****** ****** ****** ****** ****** ****** ****** ******
      ****** ****** ****** ****** ****** ****** ****** ****** ****** ******
  17  ****** ****** ****** ****** ****** ****** ****** ****** ****** ******
      ****** ****** ****** ****** ****** ****** ****** ****** ****** ******
      ****** ****** ****** ****** ****** ****** ****** ****** ****** ******
  18  ****** ****** ****** ****** ****** ****** ****** ****** ****** ******
      ****** ****** ****** ****** ****** ****** ****** ****** ****** ******
      ****** ****** ****** ****** ****** ****** ****** ****** ****** ******
  19  ****** ****** ****** ****** ****** ****** ****** ****** ****** ******
      ****** ****** ****** ****** ****** ****** ****** ****** ****** ******
      ****** ****** ****** ****** ****** ****** ****** ****** ****** ******
  20  ****** ****** ****** ****** ****** ****** ****** ****** ****** ******
      ****** ****** ****** ****** ****** ****** ****** ****** ****** ******
      ****** ****** ****** ****** ****** ****** ****** ****** ****** ******
  21  ****** ****** ****** ****** ****** ****** ****** ****** ****** ******
      ****** ****** ****** ****** ****** ****** ****** ****** ****** ******
      ****** ****** ****** ****** ****** ****** ****** ****** ****** ******
  22  ****** ****** ****** ****** ****** ****** ****** ****** ****** ******
      ****** ****** ****** ****** ****** ****** ****** ****** ****** ******
      ****** ****** ****** ****** ****** ****** ****** ****** ****** ******
  23  ****** ****** ****** ****** ****** ****** ****** ****** ****** ******
      ****** ****** ****** ****** ****** ****** ****** ****** ****** ******
      ****** ****** ****** ****** ****** ****** ****** ****** ****** ******
  24  ****** ****** ****** ****** ****** ****** ****** ****** ****** ******
      ****** ****** ****** ****** ****** ****** ****** ****** ****** ******
      ****** ****** ****** ****** ****** ****** ****** ****** ****** ******
  25  ****** ****** ****** ****** ****** ****** ****** ****** ****** ******
      ****** ****** ****** ****** ****** ****** ****** ****** ****** ******
      ****** ****** ****** ****** ****** ****** ****** ****** ****** ******

 HEAD WILL BE SAVED ON UNIT   51 AT END OF TIME STEP    1, STRESS PERIOD    4
1
  VOLUMETRIC BUDGET FOR ENTIRE MODEL AT END OF TIME STEP    1, STRESS PERIOD   4
  ------------------------------------------------------------------------------

     CUMULATIVE VOLUMES      L**3       RATES FOR THIS TIME STEP      L**3/T
     ------------------                 ------------------------

           IN:                                      IN:
           ---                                      ---
             STORAGE =    29752305.2907               STORAGE =       18994.2453
       CONSTANT HEAD =     7697442.2582         CONSTANT HEAD =       28607.0490
               WELLS =           0.0000                 WELLS =           0.0000
            RECHARGE =     8804400.0000              RECHARGE =       27600.0000
      STREAM LEAKAGE =     2792169.1969        STREAM LEAKAGE =       10808.1348

            TOTAL IN =    49046316.7459              TOTAL IN =       86009.4291

          OUT:                                     OUT:
          ----                                     ----
             STORAGE =         516.7740               STORAGE =           5.6788
       CONSTANT HEAD =           0.0000         CONSTANT HEAD =           0.0000
               WELLS =    13219658.1473                 WELLS =       36218.2415
            RECHARGE =           0.0000              RECHARGE =           0.0000
      STREAM LEAKAGE =    35826143.9490        STREAM LEAKAGE =       49785.5097

           TOTAL OUT =    49046318.8702             TOTAL OUT =       86009.4300

            IN - OUT =          -2.1243              IN - OUT =      -9.2422E-04

 PERCENT DISCREPANCY =          -0.00     PERCENT DISCREPANCY =          -0.00






         TIME SUMMARY AT END OF TIME STEP    1 IN STRESS PERIOD    4
                    SECONDS     MINUTES      HOURS       DAYS        YEARS
                    -----------------------------------------------------------
   TIME STEP LENGTH 7.86240E+06 1.31040E+05  2184.0      91.000     0.24914    
 STRESS PERIOD TIME 7.86240E+06 1.31040E+05  2184.0      91.000     0.24914    
         TOTAL TIME 3.15360E+07 5.25600E+05  8760.0      365.00     0.99932    
1
1
                            STRESS PERIOD NO.    5, LENGTH =   92.00000    
                            -----------------------------------------------

                              NUMBER OF TIME STEPS =     1

                               MULTIPLIER FOR DELT =     1.500

                            INITIAL TIME STEP SIZE =   92.00000    

 WELL NO.  LAYER   ROW   COL   STRESS RATE         
 --------------------------------------------------
      1      1      8     16      -9735.    
      2      1     14     29      -8048.    
      3      1     19     28      -9398.    
      4      1     18      3      -9037.    

      4 WELLS

                 RECHARGE =  5.000000E-04

 REUSING STREAM SEGMENT DATA FROM LAST STRESS PERIOD
 
 SOLVING FOR HEAD 


     7 CALLS TO PCG ROUTINE FOR TIME STEP   1 IN STRESS PERIOD    5
    26 TOTAL ITERATIONS

 OUTPUT CONTROL FOR STRESS PERIOD    5   TIME STEP    1
    SAVE BUDGET
    SAVE HEAD FOR ALL LAYERS
    PRINT HEAD FOR ALL LAYERS
 UBDSV2 SAVING "STREAMFLOW OUT  " ON UNIT  50 AT TIME STEP  1, STRESS PERIOD   5



 STREAM LISTING     PERIOD      5   STEP        1

 LAYER ROW COL. STREAM  RCH.  FLOW INTO     FLOW TO   FLOW OUT OF   OVRLND.     DIRECT     STREAM       STREAM     STREAM     STREAM   STREAMBED  STREAMBED
                SEG.NO.  NO.  STRM. RCH.    AQUIFER    STRM. RCH.    RUNOFF     PRECIP       ET          HEAD       DEPTH      WIDTH   CONDCTNC.   GRADIENT

   1   13    1     1     1    1.0000E+05 -1.2819E+03   1.0128E+05  0.000E+00  0.000E+00  0.000E+00  4.84066E+01  1.452E-01  2.000E+01  2.000E+04 -6.410E-02
   1   13    2     1     2    1.0128E+05 -2.3283E+03   1.0361E+05  0.000E+00  0.000E+00  0.000E+00  4.79309E+01  1.468E-01  2.000E+01  2.000E+04 -1.164E-01
   1   14    3     1     3    1.0361E+05 -2.2982E+02   1.0384E+05  0.000E+00  0.000E+00  0.000E+00  4.74547E+01  1.479E-01  2.000E+01  2.000E+04 -1.149E-02
   1   15    4     1     4    1.0384E+05 -4.1751E+01   1.0388E+05  0.000E+00  0.000E+00  0.000E+00  4.69775E+01  1.480E-01  2.000E+01  2.000E+04 -2.088E-03
   1   16    5     1     5    1.0388E+05  1.1124E+03   1.0277E+05  0.000E+00  0.000E+00  0.000E+00  4.64998E+01  1.475E-01  2.000E+01  2.000E+04  5.562E-02
   1   16    6     1     6    1.0277E+05 -2.2850E+02   1.0300E+05  0.000E+00  0.000E+00  0.000E+00  4.60221E+01  1.471E-01  2.000E+01  2.000E+04 -1.143E-02
   1   16    7     1     7    1.0300E+05 -5.4070E+02   1.0354E+05  0.000E+00  0.000E+00  0.000E+00  4.55452E+01  1.475E-01  2.000E+01  2.000E+04 -2.704E-02
   1   16    8     1     8    1.0354E+05 -7.0992E+02   1.0425E+05  0.000E+00  0.000E+00  0.000E+00  4.50685E+01  1.480E-01  2.000E+01  2.000E+04 -3.550E-02
   1   16    9     1     9    1.0425E+05 -8.0781E+02   1.0506E+05  0.000E+00  0.000E+00  0.000E+00  4.45918E+01  1.487E-01  2.000E+01  2.000E+04 -4.039E-02
   1   16   10     1    10    1.0506E+05 -8.6300E+02   1.0592E+05  0.000E+00  0.000E+00  0.000E+00  4.41153E+01  1.494E-01  2.000E+01  2.000E+04 -4.315E-02
   1   16   11     1    11    1.0592E+05 -9.1110E+02   1.0683E+05  0.000E+00  0.000E+00  0.000E+00  4.36388E+01  1.501E-01  2.000E+01  2.000E+04 -4.555E-02
   1   16   12     1    12    1.0683E+05 -1.6474E+03   1.0848E+05  0.000E+00  0.000E+00  0.000E+00  4.31626E+01  1.512E-01  2.000E+01  2.000E+04 -8.237E-02
   1   15   13     1    13    1.0848E+05 -1.5498E+03   1.1003E+05  0.000E+00  0.000E+00  0.000E+00  4.26866E+01  1.525E-01  2.000E+01  2.000E+04 -7.749E-02
   1   14   14     1    14    1.1003E+05 -1.7142E+03   1.1174E+05  0.000E+00  0.000E+00  0.000E+00  4.22107E+01  1.539E-01  2.000E+01  2.000E+04 -8.571E-02
   1   13   15     1    15    1.1174E+05 -1.7927E+03   1.1353E+05  0.000E+00  0.000E+00  0.000E+00  4.17349E+01  1.554E-01  2.000E+01  2.000E+04 -8.963E-02
   1   12   16     1    16    1.1353E+05 -1.8502E+03   1.1538E+05  0.000E+00  0.000E+00  0.000E+00  4.12591E+01  1.569E-01  2.000E+01  2.000E+04 -9.251E-02
   1   12   17     1    17    1.1538E+05 -1.2286E+03   1.1661E+05  0.000E+00  0.000E+00  0.000E+00  4.07831E+01  1.581E-01  2.000E+01  2.000E+04 -6.143E-02
   1   12   18     1    18    1.1661E+05 -1.2783E+03   1.1789E+05  0.000E+00  0.000E+00  0.000E+00  4.03069E+01  1.591E-01  2.000E+01  2.000E+04 -6.392E-02
   1   12   19     1    19    1.1789E+05 -1.8225E+03   1.1971E+05  0.000E+00  0.000E+00  0.000E+00  3.98309E+01  1.604E-01  2.000E+01  2.000E+04 -9.112E-02
   1   13   20     1    20    1.1971E+05 -1.6021E+03   1.2132E+05  0.000E+00  0.000E+00  0.000E+00  3.93550E+01  1.618E-01  2.000E+01  2.000E+04 -8.011E-02
   1   14   21     1    21    1.2132E+05 -1.5603E+03   1.2288E+05  0.000E+00  0.000E+00  0.000E+00  3.88790E+01  1.631E-01  2.000E+01  2.000E+04 -7.802E-02
   1   14   22     1    22    1.2288E+05  4.8641E+03   1.1801E+05  0.000E+00  0.000E+00  0.000E+00  3.84004E+01  1.617E-01  2.000E+01  2.000E+04  2.432E-01
   1    9   30     2     1    5.0000E+04  1.2508E+02   4.9875E+04  0.000E+00  0.000E+00  0.000E+00  4.02408E+01  1.158E-01  2.000E+01  2.000E+04  6.254E-03
   1    9   29     2     2    4.9875E+04 -2.3075E+02   5.0106E+04  0.000E+00  0.000E+00  0.000E+00  3.99909E+01  1.159E-01  2.000E+01  2.000E+04 -1.154E-02
   1    9   28     2     3    5.0106E+04 -6.1074E+02   5.0716E+04  0.000E+00  0.000E+00  0.000E+00  3.97414E+01  1.164E-01  2.000E+01  2.000E+04 -3.054E-02
   1    9   27     2     4    5.0716E+04 -2.0009E+03   5.2717E+04  0.000E+00  0.000E+00  0.000E+00  3.94932E+01  1.182E-01  2.000E+01  2.000E+04 -1.000E-01
   1   10   26     2     5    5.2717E+04 -8.7903E+02   5.3596E+04  0.000E+00  0.000E+00  0.000E+00  3.92452E+01  1.202E-01  2.000E+01  2.000E+04 -4.395E-02
   1   11   25     2     6    5.3596E+04 -7.6919E+02   5.4366E+04  0.000E+00  0.000E+00  0.000E+00  3.89963E+01  1.213E-01  2.000E+01  2.000E+04 -3.846E-02
   1   12   24     2     7    5.4366E+04 -1.1129E+03   5.5478E+04  0.000E+00  0.000E+00  0.000E+00  3.87476E+01  1.226E-01  2.000E+01  2.000E+04 -5.565E-02
   1   13   23     2     8    5.5478E+04 -1.9484E+02   5.5673E+04  0.000E+00  0.000E+00  0.000E+00  3.84985E+01  1.235E-01  2.000E+01  2.000E+04 -9.742E-03
   1   14   22     2     9    5.5673E+04  1.8043E+03   5.3869E+04  0.000E+00  0.000E+00  0.000E+00  3.82474E+01  1.224E-01  2.000E+01  2.000E+04  9.022E-02
   1   14   22     3     1    1.7188E+05 -8.6596E+03   1.8054E+05  0.000E+00  0.000E+00  0.000E+00  3.77242E+01  1.686E-01  2.000E+01  2.000E+04 -4.330E-01
   1   15   23     3     2    1.8054E+05 -5.1253E+02   1.8105E+05  0.000E+00  0.000E+00  0.000E+00  3.68379E+01  1.712E-01  2.000E+01  2.000E+04 -2.563E-02
   1   15   24     3     3    1.8105E+05 -2.3847E+02   1.8129E+05  0.000E+00  0.000E+00  0.000E+00  3.59492E+01  1.715E-01  2.000E+01  2.000E+04 -1.192E-02
   1   15   25     3     4    1.8129E+05 -2.0124E+02   1.8149E+05  0.000E+00  0.000E+00  0.000E+00  3.50605E+01  1.716E-01  2.000E+01  2.000E+04 -1.006E-02
   1   15   26     3     5    1.8149E+05 -4.0379E+01   1.8153E+05  0.000E+00  0.000E+00  0.000E+00  3.41717E+01  1.717E-01  2.000E+01  2.000E+04 -2.019E-03
   1   16   27     3     6    1.8153E+05  1.6657E+02   1.8137E+05  0.000E+00  0.000E+00  0.000E+00  3.32827E+01  1.716E-01  2.000E+01  2.000E+04  8.328E-03
   1   17   28     3     7    1.8137E+05  2.5116E+03   1.7886E+05  0.000E+00  0.000E+00  0.000E+00  3.23931E+01  1.709E-01  2.000E+01  2.000E+04  1.256E-01
   1   18   29     3     8    1.7886E+05  1.8042E+03   1.7705E+05  0.000E+00  0.000E+00  0.000E+00  3.15030E+01  1.696E-01  2.000E+01  2.000E+04  9.021E-02
   1   18   30     3     9    1.7705E+05 -7.3827E+02   1.7779E+05  0.000E+00  0.000E+00  0.000E+00  3.06138E+01  1.693E-01  2.000E+01  2.000E+04 -3.691E-02



1
              HEAD IN LAYER   1 AT END OF TIME STEP   1 IN STRESS PERIOD    5
  ---------------------------------------------------------------------------

          1      2      3      4      5      6      7      8      9     10
         11     12     13     14     15     16     17     18     19     20
         21     22     23     24     25     26     27     28     29     30
 .........................................................................
   1  ****** ****** ****** ****** ****** ****** ****** ****** ****** ******
      ****** ****** ****** ****** ****** ****** ****** ****** ****** ******
      ****** ****** ****** ****** ****** ****** ****** ****** ****** ******
   2  ****** ****** ****** ****** ****** ****** ****** ****** ****** ******
      ****** ****** ****** ****** ****** ****** ****** ****** ****** ******
      ****** ****** ****** ****** ****** ****** ****** ****** ****** ******
   3  ****** ****** ****** ****** ****** ****** ****** ****** ****** ******
      ****** ****** ****** ****** ****** ****** ****** ****** ****** ******
      ****** ****** ****** ****** ****** ****** ****** ****** ****** ******
   4  ****** ****** ****** ****** ****** ****** ****** ****** ****** ******
      ****** ****** ****** ****** ****** ****** ****** ****** ****** ******
      ****** ****** ****** ****** ****** ****** ****** ****** ****** ******
   5  ****** ****** ****** ****** ****** ****** ****** ****** ****** ******
      ****** ****** ****** ****** ****** ****** ****** ****** ****** ******
      ****** ****** ****** ****** ****** ****** ****** ****** ****** ******
   6  ****** ****** ****** ****** ****** ****** ****** ****** ****** ******
      ****** ****** ****** ****** ****** ****** ****** ****** ****** ******
      ****** ****** ****** ****** ****** ****** ****** ****** ****** ******
   7  ****** ****** ****** ****** ****** ****** ****** ****** ****** ******
      ****** ****** ****** ****** ****** ****** ****** ****** ****** ******
      ****** ****** ****** ****** ****** ****** ****** ****** ****** ******
   8  ****** ****** ****** ****** ****** ****** ****** ****** ****** ******
      ****** ****** ****** ****** ****** ****** ****** ****** ****** ******
      ****** ****** ****** ****** ****** ****** ****** ****** ****** ******
   9  ****** ****** ****** ****** ****** ****** ****** ****** ****** ******
      ****** ****** ****** ****** ****** ****** ****** ****** ****** ******
      ****** ****** ****** ****** ****** ****** ****** ****** ****** ******
  10  ****** ****** ****** ****** ****** ****** ****** ****** ****** ******
      ****** ****** ****** ****** ****** ****** ****** ****** ****** ******
      ****** ****** ****** ****** ****** ****** ****** ****** ****** ******
  11  ****** ****** ****** ****** ****** ****** ****** ****** ****** ******
      ****** ****** ****** ****** ****** ****** ****** ****** ****** ******
      ****** ****** ****** ****** ****** ****** ****** ****** ****** ******
  12  ****** ****** ****** ****** ****** ****** ****** ****** ****** ******
      ****** ****** ****** ****** ****** ****** ****** ****** ****** ******
      ****** ****** ****** ****** ****** ****** ****** ****** ****** ******
  13  ****** ****** ****** ****** ****** ****** ****** ****** ****** ******
      ****** ****** ****** ****** ****** ****** ****** ****** ****** ******
      ****** ****** ****** ****** ****** ****** ****** ****** ****** ******
  14  ****** ****** ****** ****** ****** ****** ****** ****** ****** ******
      ****** ****** ****** ****** ****** ****** ****** ****** ****** ******
      ****** ****** ****** ****** ****** ****** ****** ****** ****** ******
  15  ****** ****** ****** ****** ****** ****** ****** ****** ****** ******
      ****** ****** ****** ****** ****** ****** ****** ****** ****** ******
      ****** ****** ****** ****** ****** ****** ****** ****** ****** ******
  16  ****** ****** ****** ****** ****** ****** ****** ****** ****** ******
      ****** ****** ****** ****** ****** ****** ****** ****** ****** ******
      ****** ****** ****** ****** ****** ****** ****** ****** ****** ******
  17  ****** ****** ****** ****** ****** ****** ****** ****** ****** ******
      ****** ****** ****** ****** ****** ****** ****** ****** ****** ******
      ****** ****** ****** ****** ****** ****** ****** ****** ****** ******
  18  ****** ****** ****** ****** ****** ****** ****** ****** ****** ******
      ****** ****** ****** ****** ****** ****** ****** ****** ****** ******
      ****** ****** ****** ****** ****** ****** ****** ****** ****** ******
  19  ****** ****** ****** ****** ****** ****** ****** ****** ****** ******
      ****** ****** ****** ****** ****** ****** ****** ****** ****** ******
      ****** ****** ****** ****** ****** ****** ****** ****** ****** ******
  20  ****** ****** ****** ****** ****** ****** ****** ****** ****** ******
      ****** ****** ****** ****** ****** ****** ****** ****** ****** ******
      ****** ****** ****** ****** ****** ****** ****** ****** ****** ******
  21  ****** ****** ****** ****** ****** ****** ****** ****** ****** ******
      ****** ****** ****** ****** ****** ****** ****** ****** ****** ******
      ****** ****** ****** ****** ****** ****** ****** ****** ****** ******
  22  ****** ****** ****** ****** ****** ****** ****** ****** ****** ******
      ****** ****** ****** ****** ****** ****** ****** ****** ****** ******
      ****** ****** ****** ****** ****** ****** ****** ****** ****** ******
  23  ****** ****** ****** ****** ****** ****** ****** ****** ****** ******
      ****** ****** ****** ****** ****** ****** ****** ****** ****** ******
      ****** ****** ****** ****** ****** ****** ****** ****** ****** ******
  24  ****** ****** ****** ****** ****** ****** ****** ****** ****** ******
      ****** ****** ****** ****** ****** ****** ****** ****** ****** ******
      ****** ****** ****** ****** ****** ****** ****** ****** ****** ******
  25  ****** ****** ****** ****** ****** ****** ****** ****** ****** ******
      ****** ****** ****** ****** ****** ****** ****** ****** ****** ******
      ****** ****** ****** ****** ****** ****** ****** ****** ****** ******

 HEAD WILL BE SAVED ON UNIT   51 AT END OF TIME STEP    1, STRESS PERIOD    5
1
  VOLUMETRIC BUDGET FOR ENTIRE MODEL AT END OF TIME STEP    1, STRESS PERIOD   5
  ------------------------------------------------------------------------------

     CUMULATIVE VOLUMES      L**3       RATES FOR THIS TIME STEP      L**3/T
     ------------------                 ------------------------

           IN:                                      IN:
           ---                                      ---
             STORAGE =    31465986.7949               STORAGE =       18626.9729
       CONSTANT HEAD =    10602871.0885         CONSTANT HEAD =       31580.7482
               WELLS =           0.0000                 WELLS =           0.0000
            RECHARGE =    10074000.0000              RECHARGE =       13800.0000
      STREAM LEAKAGE =     3931890.9864        STREAM LEAKAGE =       12388.2803

            TOTAL IN =    56074748.8697              TOTAL IN =       76396.0013

          OUT:                                     OUT:
          ----                                     ----
             STORAGE =         516.7740               STORAGE =           0.0000
       CONSTANT HEAD =           0.0000         CONSTANT HEAD =           0.0000
               WELLS =    16551736.3652                 WELLS =       36218.2415
            RECHARGE =           0.0000              RECHARGE =           0.0000
      STREAM LEAKAGE =    39522498.1582        STREAM LEAKAGE =       40177.7631

           TOTAL OUT =    56074751.2974             TOTAL OUT =       76396.0046

            IN - OUT =          -2.4277              IN - OUT =      -3.2972E-03

 PERCENT DISCREPANCY =          -0.00     PERCENT DISCREPANCY =          -0.00






         TIME SUMMARY AT END OF TIME STEP    1 IN STRESS PERIOD    5
                    SECONDS     MINUTES      HOURS       DAYS        YEARS
                    -----------------------------------------------------------
   TIME STEP LENGTH 7.94880E+06 1.32480E+05  2208.0      92.000     0.25188    
 STRESS PERIOD TIME 7.94880E+06 1.32480E+05  2208.0      92.000     0.25188    
         TOTAL TIME 3.94848E+07 6.58080E+05  10968.      457.00      1.2512    
1
1
                            STRESS PERIOD NO.    6, LENGTH =   91.00000    
                            -----------------------------------------------

                              NUMBER OF TIME STEPS =     1

                               MULTIPLIER FOR DELT =     1.500

                            INITIAL TIME STEP SIZE =   91.00000    

 WELL NO.  LAYER   ROW   COL   STRESS RATE         
 --------------------------------------------------
      1      1      8     16      -9735.    
      2      1     14     29      -8048.    
      3      1     19     28      -9398.    
      4      1     18      3      -9037.    

      4 WELLS

                 RECHARGE =  2.000000E-03

 REUSING STREAM SEGMENT DATA FROM LAST STRESS PERIOD
 
 SOLVING FOR HEAD 


     7 CALLS TO PCG ROUTINE FOR TIME STEP   1 IN STRESS PERIOD    6
    26 TOTAL ITERATIONS

 OUTPUT CONTROL FOR STRESS PERIOD    6   TIME STEP    1
    SAVE BUDGET
    SAVE HEAD FOR ALL LAYERS
    PRINT HEAD FOR ALL LAYERS
 UBDSV2 SAVING "STREAMFLOW OUT  " ON UNIT  50 AT TIME STEP  1, STRESS PERIOD   6



 STREAM LISTING     PERIOD      6   STEP        1

 LAYER ROW COL. STREAM  RCH.  FLOW INTO     FLOW TO   FLOW OUT OF   OVRLND.     DIRECT     STREAM       STREAM     STREAM     STREAM   STREAMBED  STREAMBED
                SEG.NO.  NO.  STRM. RCH.    AQUIFER    STRM. RCH.    RUNOFF     PRECIP       ET          HEAD       DEPTH      WIDTH   CONDCTNC.   GRADIENT

   1   13    1     1     1    1.0000E+05 -1.5859E+03   1.0159E+05  0.000E+00  0.000E+00  0.000E+00  4.84067E+01  1.453E-01  2.000E+01  2.000E+04 -7.930E-02
   1   13    2     1     2    1.0159E+05 -2.6617E+03   1.0425E+05  0.000E+00  0.000E+00  0.000E+00  4.79313E+01  1.472E-01  2.000E+01  2.000E+04 -1.331E-01
   1   14    3     1     3    1.0425E+05 -3.8221E+02   1.0463E+05  0.000E+00  0.000E+00  0.000E+00  4.74553E+01  1.485E-01  2.000E+01  2.000E+04 -1.911E-02
   1   15    4     1     4    1.0463E+05 -2.0509E+02   1.0483E+05  0.000E+00  0.000E+00  0.000E+00  4.69783E+01  1.487E-01  2.000E+01  2.000E+04 -1.025E-02
   1   16    5     1     5    1.0483E+05  6.3298E+02   1.0420E+05  0.000E+00  0.000E+00  0.000E+00  4.65008E+01  1.485E-01  2.000E+01  2.000E+04  3.165E-02
   1   16    6     1     6    1.0420E+05 -5.1209E+02   1.0471E+05  0.000E+00  0.000E+00  0.000E+00  4.60235E+01  1.485E-01  2.000E+01  2.000E+04 -2.560E-02
   1   16    7     1     7    1.0471E+05 -8.1035E+02   1.0552E+05  0.000E+00  0.000E+00  0.000E+00  4.55468E+01  1.491E-01  2.000E+01  2.000E+04 -4.052E-02
   1   16    8     1     8    1.0552E+05 -9.7591E+02   1.0650E+05  0.000E+00  0.000E+00  0.000E+00  4.50703E+01  1.498E-01  2.000E+01  2.000E+04 -4.880E-02
   1   16    9     1     9    1.0650E+05 -1.0741E+03   1.0757E+05  0.000E+00  0.000E+00  0.000E+00  4.45939E+01  1.507E-01  2.000E+01  2.000E+04 -5.371E-02
   1   16   10     1    10    1.0757E+05 -1.1317E+03   1.0871E+05  0.000E+00  0.000E+00  0.000E+00  4.41175E+01  1.516E-01  2.000E+01  2.000E+04 -5.658E-02
   1   16   11     1    11    1.0871E+05 -1.1838E+03   1.0989E+05  0.000E+00  0.000E+00  0.000E+00  4.36412E+01  1.526E-01  2.000E+01  2.000E+04 -5.919E-02
   1   16   12     1    12    1.0989E+05 -2.0886E+03   1.1198E+05  0.000E+00  0.000E+00  0.000E+00  4.31653E+01  1.539E-01  2.000E+01  2.000E+04 -1.044E-01
   1   15   13     1    13    1.1198E+05 -2.0010E+03   1.1398E+05  0.000E+00  0.000E+00  0.000E+00  4.26897E+01  1.556E-01  2.000E+01  2.000E+04 -1.000E-01
   1   14   14     1    14    1.1398E+05 -2.1597E+03   1.1614E+05  0.000E+00  0.000E+00  0.000E+00  4.22142E+01  1.574E-01  2.000E+01  2.000E+04 -1.080E-01
   1   13   15     1    15    1.1614E+05 -2.2179E+03   1.1836E+05  0.000E+00  0.000E+00  0.000E+00  4.17387E+01  1.591E-01  2.000E+01  2.000E+04 -1.109E-01
   1   12   16     1    16    1.1836E+05 -2.2272E+03   1.2058E+05  0.000E+00  0.000E+00  0.000E+00  4.12632E+01  1.609E-01  2.000E+01  2.000E+04 -1.114E-01
   1   12   17     1    17    1.2058E+05 -1.5384E+03   1.2212E+05  0.000E+00  0.000E+00  0.000E+00  4.07875E+01  1.625E-01  2.000E+01  2.000E+04 -7.692E-02
   1   12   18     1    18    1.2212E+05 -1.5925E+03   1.2372E+05  0.000E+00  0.000E+00  0.000E+00  4.03114E+01  1.637E-01  2.000E+01  2.000E+04 -7.963E-02
   1   12   19     1    19    1.2372E+05 -2.2132E+03   1.2593E+05  0.000E+00  0.000E+00  0.000E+00  3.98357E+01  1.652E-01  2.000E+01  2.000E+04 -1.107E-01
   1   13   20     1    20    1.2593E+05 -2.0223E+03   1.2795E+05  0.000E+00  0.000E+00  0.000E+00  3.93601E+01  1.669E-01  2.000E+01  2.000E+04 -1.011E-01
   1   14   21     1    21    1.2795E+05 -1.9706E+03   1.2992E+05  0.000E+00  0.000E+00  0.000E+00  3.88844E+01  1.685E-01  2.000E+01  2.000E+04 -9.853E-02
   1   14   22     1    22    1.2992E+05  4.7571E+03   1.2516E+05  0.000E+00  0.000E+00  0.000E+00  3.84060E+01  1.674E-01  2.000E+01  2.000E+04  2.379E-01
   1    9   30     2     1    5.0000E+04 -2.3800E+02   5.0238E+04  0.000E+00  0.000E+00  0.000E+00  4.02410E+01  1.160E-01  2.000E+01  2.000E+04 -1.190E-02
   1    9   29     2     2    5.0238E+04 -5.8942E+02   5.0827E+04  0.000E+00  0.000E+00  0.000E+00  3.99916E+01  1.166E-01  2.000E+01  2.000E+04 -2.947E-02
   1    9   28     2     3    5.0827E+04 -9.6252E+02   5.1790E+04  0.000E+00  0.000E+00  0.000E+00  3.97427E+01  1.177E-01  2.000E+01  2.000E+04 -4.813E-02
   1    9   27     2     4    5.1790E+04 -2.4450E+03   5.4235E+04  0.000E+00  0.000E+00  0.000E+00  3.94950E+01  1.200E-01  2.000E+01  2.000E+04 -1.222E-01
   1   10   26     2     5    5.4235E+04 -1.3471E+03   5.5582E+04  0.000E+00  0.000E+00  0.000E+00  3.92476E+01  1.226E-01  2.000E+01  2.000E+04 -6.735E-02
   1   11   25     2     6    5.5582E+04 -1.2225E+03   5.6805E+04  0.000E+00  0.000E+00  0.000E+00  3.89993E+01  1.243E-01  2.000E+01  2.000E+04 -6.113E-02
   1   12   24     2     7    5.6805E+04 -1.5215E+03   5.8326E+04  0.000E+00  0.000E+00  0.000E+00  3.87511E+01  1.261E-01  2.000E+01  2.000E+04 -7.607E-02
   1   13   23     2     8    5.8326E+04 -3.3246E+02   5.8658E+04  0.000E+00  0.000E+00  0.000E+00  3.85023E+01  1.273E-01  2.000E+01  2.000E+04 -1.662E-02
   1   14   22     2     9    5.8658E+04  1.6653E+03   5.6993E+04  0.000E+00  0.000E+00  0.000E+00  3.82514E+01  1.264E-01  2.000E+01  2.000E+04  8.326E-02
   1   14   22     3     1    1.8216E+05 -8.7625E+03   1.9092E+05  0.000E+00  0.000E+00  0.000E+00  3.77300E+01  1.745E-01  2.000E+01  2.000E+04 -4.381E-01
   1   15   23     3     2    1.9092E+05 -6.4939E+02   1.9157E+05  0.000E+00  0.000E+00  0.000E+00  3.68438E+01  1.771E-01  2.000E+01  2.000E+04 -3.247E-02
   1   15   24     3     3    1.9157E+05 -3.5998E+02   1.9193E+05  0.000E+00  0.000E+00  0.000E+00  3.59552E+01  1.774E-01  2.000E+01  2.000E+04 -1.800E-02
   1   15   25     3     4    1.9193E+05 -3.2713E+02   1.9226E+05  0.000E+00  0.000E+00  0.000E+00  3.50665E+01  1.776E-01  2.000E+01  2.000E+04 -1.636E-02
   1   15   26     3     5    1.9226E+05 -1.9118E+02   1.9245E+05  0.000E+00  0.000E+00  0.000E+00  3.41777E+01  1.777E-01  2.000E+01  2.000E+04 -9.559E-03
   1   16   27     3     6    1.9245E+05 -1.3038E+00   1.9245E+05  0.000E+00  0.000E+00  0.000E+00  3.32889E+01  1.778E-01  2.000E+01  2.000E+04 -6.519E-05
   1   17   28     3     7    1.9245E+05  2.0519E+03   1.9040E+05  0.000E+00  0.000E+00  0.000E+00  3.23994E+01  1.772E-01  2.000E+01  2.000E+04  1.026E-01
   1   18   29     3     8    1.9040E+05  1.3699E+03   1.8903E+05  0.000E+00  0.000E+00  0.000E+00  3.15096E+01  1.763E-01  2.000E+01  2.000E+04  6.849E-02
   1   18   30     3     9    1.8903E+05 -1.0910E+03   1.9012E+05  0.000E+00  0.000E+00  0.000E+00  3.06206E+01  1.762E-01  2.000E+01  2.000E+04 -5.455E-02



1
              HEAD IN LAYER   1 AT END OF TIME STEP   1 IN STRESS PERIOD    6
  ---------------------------------------------------------------------------

          1      2      3      4      5      6      7      8      9     10
         11     12     13     14     15     16     17     18     19     20
         21     22     23     24     25     26     27     28     29     30
 .........................................................................
   1  ****** ****** ****** ****** ****** ****** ****** ****** ****** ******
      ****** ****** ****** ****** ****** ****** ****** ****** ****** ******
      ****** ****** ****** ****** ****** ****** ****** ****** ****** ******
   2  ****** ****** ****** ****** ****** ****** ****** ****** ****** ******
      ****** ****** ****** ****** ****** ****** ****** ****** ****** ******
      ****** ****** ****** ****** ****** ****** ****** ****** ****** ******
   3  ****** ****** ****** ****** ****** ****** ****** ****** ****** ******
      ****** ****** ****** ****** ****** ****** ****** ****** ****** ******
      ****** ****** ****** ****** ****** ****** ****** ****** ****** ******
   4  ****** ****** ****** ****** ****** ****** ****** ****** ****** ******
      ****** ****** ****** ****** ****** ****** ****** ****** ****** ******
      ****** ****** ****** ****** ****** ****** ****** ****** ****** ******
   5  ****** ****** ****** ****** ****** ****** ****** ****** ****** ******
      ****** ****** ****** ****** ****** ****** ****** ****** ****** ******
      ****** ****** ****** ****** ****** ****** ****** ****** ****** ******
   6  ****** ****** ****** ****** ****** ****** ****** ****** ****** ******
      ****** ****** ****** ****** ****** ****** ****** ****** ****** ******
      ****** ****** ****** ****** ****** ****** ****** ****** ****** ******
   7  ****** ****** ****** ****** ****** ****** ****** ****** ****** ******
      ****** ****** ****** ****** ****** ****** ****** ****** ****** ******
      ****** ****** ****** ****** ****** ****** ****** ****** ****** ******
   8  ****** ****** ****** ****** ****** ****** ****** ****** ****** ******
      ****** ****** ****** ****** ****** ****** ****** ****** ****** ******
      ****** ****** ****** ****** ****** ****** ****** ****** ****** ******
   9  ****** ****** ****** ****** ****** ****** ****** ****** ****** ******
      ****** ****** ****** ****** ****** ****** ****** ****** ****** ******
      ****** ****** ****** ****** ****** ****** ****** ****** ****** ******
  10  ****** ****** ****** ****** ****** ****** ****** ****** ****** ******
      ****** ****** ****** ****** ****** ****** ****** ****** ****** ******
      ****** ****** ****** ****** ****** ****** ****** ****** ****** ******
  11  ****** ****** ****** ****** ****** ****** ****** ****** ****** ******
      ****** ****** ****** ****** ****** ****** ****** ****** ****** ******
      ****** ****** ****** ****** ****** ****** ****** ****** ****** ******
  12  ****** ****** ****** ****** ****** ****** ****** ****** ****** ******
      ****** ****** ****** ****** ****** ****** ****** ****** ****** ******
      ****** ****** ****** ****** ****** ****** ****** ****** ****** ******
  13  ****** ****** ****** ****** ****** ****** ****** ****** ****** ******
      ****** ****** ****** ****** ****** ****** ****** ****** ****** ******
      ****** ****** ****** ****** ****** ****** ****** ****** ****** ******
  14  ****** ****** ****** ****** ****** ****** ****** ****** ****** ******
      ****** ****** ****** ****** ****** ****** ****** ****** ****** ******
      ****** ****** ****** ****** ****** ****** ****** ****** ****** ******
  15  ****** ****** ****** ****** ****** ****** ****** ****** ****** ******
      ****** ****** ****** ****** ****** ****** ****** ****** ****** ******
      ****** ****** ****** ****** ****** ****** ****** ****** ****** ******
  16  ****** ****** ****** ****** ****** ****** ****** ****** ****** ******
      ****** ****** ****** ****** ****** ****** ****** ****** ****** ******
      ****** ****** ****** ****** ****** ****** ****** ****** ****** ******
  17  ****** ****** ****** ****** ****** ****** ****** ****** ****** ******
      ****** ****** ****** ****** ****** ****** ****** ****** ****** ******
      ****** ****** ****** ****** ****** ****** ****** ****** ****** ******
  18  ****** ****** ****** ****** ****** ****** ****** ****** ****** ******
      ****** ****** ****** ****** ****** ****** ****** ****** ****** ******
      ****** ****** ****** ****** ****** ****** ****** ****** ****** ******
  19  ****** ****** ****** ****** ****** ****** ****** ****** ****** ******
      ****** ****** ****** ****** ****** ****** ****** ****** ****** ******
      ****** ****** ****** ****** ****** ****** ****** ****** ****** ******
  20  ****** ****** ****** ****** ****** ****** ****** ****** ****** ******
      ****** ****** ****** ****** ****** ****** ****** ****** ****** ******
      ****** ****** ****** ****** ****** ****** ****** ****** ****** ******
  21  ****** ****** ****** ****** ****** ****** ****** ****** ****** ******
      ****** ****** ****** ****** ****** ****** ****** ****** ****** ******
      ****** ****** ****** ****** ****** ****** ****** ****** ****** ******
  22  ****** ****** ****** ****** ****** ****** ****** ****** ****** ******
      ****** ****** ****** ****** ****** ****** ****** ****** ****** ******
      ****** ****** ****** ****** ****** ****** ****** ****** ****** ******
  23  ****** ****** ****** ****** ****** ****** ****** ****** ****** ******
      ****** ****** ****** ****** ****** ****** ****** ****** ****** ******
      ****** ****** ****** ****** ****** ****** ****** ****** ****** ******
  24  ****** ****** ****** ****** ****** ****** ****** ****** ****** ******
      ****** ****** ****** ****** ****** ****** ****** ****** ****** ******
      ****** ****** ****** ****** ****** ****** ****** ****** ****** ******
  25  ****** ****** ****** ****** ****** ****** ****** ****** ****** ******
      ****** ****** ****** ****** ****** ****** ****** ****** ****** ******
      ****** ****** ****** ****** ****** ****** ****** ****** ****** ******

 HEAD WILL BE SAVED ON UNIT   51 AT END OF TIME STEP    1, STRESS PERIOD    6
1
  VOLUMETRIC BUDGET FOR ENTIRE MODEL AT END OF TIME STEP    1, STRESS PERIOD   6
  ------------------------------------------------------------------------------

     CUMULATIVE VOLUMES      L**3       RATES FOR THIS TIME STEP      L**3/T
     ------------------                 ------------------------

           IN:                                      IN:
           ---                                      ---
             STORAGE =    31465986.7949               STORAGE =           0.0000
       CONSTANT HEAD =    13306096.0685         CONSTANT HEAD =       29705.7690
               WELLS =           0.0000                 WELLS =           0.0000
            RECHARGE =    15097200.0000              RECHARGE =       55200.0000
      STREAM LEAKAGE =     4885313.4057        STREAM LEAKAGE =       10477.1694

            TOTAL IN =    64754596.2690              TOTAL IN =       95382.9385

          OUT:                                     OUT:
          ----                                     ----
             STORAGE =      780353.1272               STORAGE =        8569.6303
       CONSTANT HEAD =           0.0000         CONSTANT HEAD =           0.0000
               WELLS =    19847596.3417                 WELLS =       36218.2415
            RECHARGE =           0.0000              RECHARGE =           0.0000
      STREAM LEAKAGE =    44126648.9662        STREAM LEAKAGE =       50595.0638

           TOTAL OUT =    64754598.4351             TOTAL OUT =       95382.9356

            IN - OUT =          -2.1661              IN - OUT =       2.8750E-03

 PERCENT DISCREPANCY =          -0.00     PERCENT DISCREPANCY =           0.00






         TIME SUMMARY AT END OF TIME STEP    1 IN STRESS PERIOD    6
                    SECONDS     MINUTES      HOURS       DAYS        YEARS
                    -----------------------------------------------------------
   TIME STEP LENGTH 7.86240E+06 1.31040E+05  2184.0      91.000     0.24914    
 STRESS PERIOD TIME 7.86240E+06 1.31040E+05  2184.0      91.000     0.24914    
         TOTAL TIME 4.73472E+07 7.89120E+05  13152.      548.00      1.5003    
1
1
                            STRESS PERIOD NO.    7, LENGTH =   91.00000    
                            -----------------------------------------------

                              NUMBER OF TIME STEPS =     1

                               MULTIPLIER FOR DELT =     1.500

                            INITIAL TIME STEP SIZE =   91.00000    

 WELL NO.  LAYER   ROW   COL   STRESS RATE         
 --------------------------------------------------
      1      1      8     16      -9735.    
      2      1     14     29      -8048.    
      3      1     19     28      -9398.    
      4      1     18      3      -9037.    

      4 WELLS

                 RECHARGE =   0.00000    

 REUSING STREAM SEGMENT DATA FROM LAST STRESS PERIOD
 
 SOLVING FOR HEAD 


     7 CALLS TO PCG ROUTINE FOR TIME STEP   1 IN STRESS PERIOD    7
    26 TOTAL ITERATIONS

 OUTPUT CONTROL FOR STRESS PERIOD    7   TIME STEP    1
    SAVE BUDGET
    SAVE HEAD FOR ALL LAYERS
    PRINT HEAD FOR ALL LAYERS
 UBDSV2 SAVING "STREAMFLOW OUT  " ON UNIT  50 AT TIME STEP  1, STRESS PERIOD   7



 STREAM LISTING     PERIOD      7   STEP        1

 LAYER ROW COL. STREAM  RCH.  FLOW INTO     FLOW TO   FLOW OUT OF   OVRLND.     DIRECT     STREAM       STREAM     STREAM     STREAM   STREAMBED  STREAMBED
                SEG.NO.  NO.  STRM. RCH.    AQUIFER    STRM. RCH.    RUNOFF     PRECIP       ET          HEAD       DEPTH      WIDTH   CONDCTNC.   GRADIENT

   1   13    1     1     1    1.0000E+05 -9.1377E+02   1.0091E+05  0.000E+00  0.000E+00  0.000E+00  4.84064E+01  1.450E-01  2.000E+01  2.000E+04 -4.569E-02
   1   13    2     1     2    1.0091E+05 -1.9099E+03   1.0282E+05  0.000E+00  0.000E+00  0.000E+00  4.79304E+01  1.463E-01  2.000E+01  2.000E+04 -9.550E-02
   1   14    3     1     3    1.0282E+05 -1.2891E+02   1.0295E+05  0.000E+00  0.000E+00  0.000E+00  4.74540E+01  1.471E-01  2.000E+01  2.000E+04 -6.445E-03
   1   15    4     1     4    1.0295E+05  5.9171E+01   1.0289E+05  0.000E+00  0.000E+00  0.000E+00  4.69767E+01  1.472E-01  2.000E+01  2.000E+04  2.959E-03
   1   16    5     1     5    1.0289E+05  1.3942E+03   1.0150E+05  0.000E+00  0.000E+00  0.000E+00  4.64988E+01  1.465E-01  2.000E+01  2.000E+04  6.971E-02
   1   16    6     1     6    1.0150E+05 -5.3966E+01   1.0155E+05  0.000E+00  0.000E+00  0.000E+00  4.60210E+01  1.460E-01  2.000E+01  2.000E+04 -2.698E-03
   1   16    7     1     7    1.0155E+05 -3.7118E+02   1.0192E+05  0.000E+00  0.000E+00  0.000E+00  4.55439E+01  1.462E-01  2.000E+01  2.000E+04 -1.856E-02
   1   16    8     1     8    1.0192E+05 -5.4305E+02   1.0247E+05  0.000E+00  0.000E+00  0.000E+00  4.50670E+01  1.465E-01  2.000E+01  2.000E+04 -2.715E-02
   1   16    9     1     9    1.0247E+05 -6.4475E+02   1.0311E+05  0.000E+00  0.000E+00  0.000E+00  4.45902E+01  1.471E-01  2.000E+01  2.000E+04 -3.224E-02
   1   16   10     1    10    1.0311E+05 -7.0511E+02   1.0382E+05  0.000E+00  0.000E+00  0.000E+00  4.41135E+01  1.476E-01  2.000E+01  2.000E+04 -3.526E-02
   1   16   11     1    11    1.0382E+05 -7.5629E+02   1.0457E+05  0.000E+00  0.000E+00  0.000E+00  4.36369E+01  1.483E-01  2.000E+01  2.000E+04 -3.781E-02
   1   16   12     1    12    1.0457E+05 -1.3706E+03   1.0594E+05  0.000E+00  0.000E+00  0.000E+00  4.31605E+01  1.492E-01  2.000E+01  2.000E+04 -6.853E-02
   1   15   13     1    13    1.0594E+05 -1.2309E+03   1.0717E+05  0.000E+00  0.000E+00  0.000E+00  4.26844E+01  1.503E-01  2.000E+01  2.000E+04 -6.154E-02
   1   14   14     1    14    1.0717E+05 -1.3614E+03   1.0854E+05  0.000E+00  0.000E+00  0.000E+00  4.22082E+01  1.514E-01  2.000E+01  2.000E+04 -6.807E-02
   1   13   15     1    15    1.0854E+05 -1.4172E+03   1.0995E+05  0.000E+00  0.000E+00  0.000E+00  4.17321E+01  1.525E-01  2.000E+01  2.000E+04 -7.086E-02
   1   12   16     1    16    1.0995E+05 -1.4320E+03   1.1139E+05  0.000E+00  0.000E+00  0.000E+00  4.12560E+01  1.537E-01  2.000E+01  2.000E+04 -7.160E-02
   1   12   17     1    17    1.1139E+05 -9.6071E+02   1.1235E+05  0.000E+00  0.000E+00  0.000E+00  4.07797E+01  1.547E-01  2.000E+01  2.000E+04 -4.804E-02
   1   12   18     1    18    1.1235E+05 -1.0292E+03   1.1338E+05  0.000E+00  0.000E+00  0.000E+00  4.03033E+01  1.555E-01  2.000E+01  2.000E+04 -5.146E-02
   1   12   19     1    19    1.1338E+05 -1.5251E+03   1.1490E+05  0.000E+00  0.000E+00  0.000E+00  3.98271E+01  1.566E-01  2.000E+01  2.000E+04 -7.625E-02
   1   13   20     1    20    1.1490E+05 -1.3525E+03   1.1625E+05  0.000E+00  0.000E+00  0.000E+00  3.93510E+01  1.578E-01  2.000E+01  2.000E+04 -6.763E-02
   1   14   21     1    21    1.1625E+05 -1.3095E+03   1.1756E+05  0.000E+00  0.000E+00  0.000E+00  3.88748E+01  1.589E-01  2.000E+01  2.000E+04 -6.548E-02
   1   14   22     1    22    1.1756E+05  4.9139E+03   1.1265E+05  0.000E+00  0.000E+00  0.000E+00  3.83960E+01  1.574E-01  2.000E+01  2.000E+04  2.457E-01
   1    9   30     2     1    5.0000E+04  2.7581E+02   4.9724E+04  0.000E+00  0.000E+00  0.000E+00  4.02407E+01  1.157E-01  2.000E+01  2.000E+04  1.379E-02
   1    9   29     2     2    4.9724E+04 -7.7365E+01   4.9802E+04  0.000E+00  0.000E+00  0.000E+00  3.99905E+01  1.155E-01  2.000E+01  2.000E+04 -3.868E-03
   1    9   28     2     3    4.9802E+04 -4.4905E+02   5.0251E+04  0.000E+00  0.000E+00  0.000E+00  3.97409E+01  1.159E-01  2.000E+01  2.000E+04 -2.245E-02
   1    9   27     2     4    5.0251E+04 -1.7470E+03   5.1998E+04  0.000E+00  0.000E+00  0.000E+00  3.94924E+01  1.174E-01  2.000E+01  2.000E+04 -8.735E-02
   1   10   26     2     5    5.1998E+04 -6.4722E+02   5.2645E+04  0.000E+00  0.000E+00  0.000E+00  3.92441E+01  1.191E-01  2.000E+01  2.000E+04 -3.236E-02
   1   11   25     2     6    5.2645E+04 -5.5133E+02   5.3196E+04  0.000E+00  0.000E+00  0.000E+00  3.89949E+01  1.199E-01  2.000E+01  2.000E+04 -2.757E-02
   1   12   24     2     7    5.3196E+04 -9.0941E+02   5.4106E+04  0.000E+00  0.000E+00  0.000E+00  3.87459E+01  1.209E-01  2.000E+01  2.000E+04 -4.547E-02
   1   13   23     2     8    5.4106E+04 -1.4048E+02   5.4246E+04  0.000E+00  0.000E+00  0.000E+00  3.84966E+01  1.216E-01  2.000E+01  2.000E+04 -7.024E-03
   1   14   22     2     9    5.4246E+04  1.9011E+03   5.2345E+04  0.000E+00  0.000E+00  0.000E+00  3.82454E+01  1.204E-01  2.000E+01  2.000E+04  9.506E-02
   1   14   22     3     1    1.6499E+05 -8.6031E+03   1.7360E+05  0.000E+00  0.000E+00  0.000E+00  3.77202E+01  1.646E-01  2.000E+01  2.000E+04 -4.302E-01
   1   15   23     3     2    1.7360E+05 -4.4311E+02   1.7404E+05  0.000E+00  0.000E+00  0.000E+00  3.68339E+01  1.672E-01  2.000E+01  2.000E+04 -2.216E-02
   1   15   24     3     3    1.7404E+05 -1.8639E+02   1.7423E+05  0.000E+00  0.000E+00  0.000E+00  3.59452E+01  1.674E-01  2.000E+01  2.000E+04 -9.319E-03
   1   15   25     3     4    1.7423E+05 -1.5042E+02   1.7438E+05  0.000E+00  0.000E+00  0.000E+00  3.50564E+01  1.675E-01  2.000E+01  2.000E+04 -7.521E-03
   1   15   26     3     5    1.7438E+05  1.0076E+01   1.7437E+05  0.000E+00  0.000E+00  0.000E+00  3.41676E+01  1.676E-01  2.000E+01  2.000E+04  5.038E-04
   1   16   27     3     6    1.7437E+05  2.3109E+02   1.7414E+05  0.000E+00  0.000E+00  0.000E+00  3.32786E+01  1.675E-01  2.000E+01  2.000E+04  1.155E-02
   1   17   28     3     7    1.7414E+05  2.6936E+03   1.7144E+05  0.000E+00  0.000E+00  0.000E+00  3.23889E+01  1.667E-01  2.000E+01  2.000E+04  1.347E-01
   1   18   29     3     8    1.7144E+05  2.0563E+03   1.6939E+05  0.000E+00  0.000E+00  0.000E+00  3.14986E+01  1.653E-01  2.000E+01  2.000E+04  1.028E-01
   1   18   30     3     9    1.6939E+05 -5.6231E+02   1.6995E+05  0.000E+00  0.000E+00  0.000E+00  3.06093E+01  1.648E-01  2.000E+01  2.000E+04 -2.812E-02



1
              HEAD IN LAYER   1 AT END OF TIME STEP   1 IN STRESS PERIOD    7
  ---------------------------------------------------------------------------

          1      2      3      4      5      6      7      8      9     10
         11     12     13     14     15     16     17     18     19     20
         21     22     23     24     25     26     27     28     29     30
 .........................................................................
   1  ****** ****** ****** ****** ****** ****** ****** ****** ****** ******
      ****** ****** ****** ****** ****** ****** ****** ****** ****** ******
      ****** ****** ****** ****** ****** ****** ****** ****** ****** ******
   2  ****** ****** ****** ****** ****** ****** ****** ****** ****** ******
      ****** ****** ****** ****** ****** ****** ****** ****** ****** ******
      ****** ****** ****** ****** ****** ****** ****** ****** ****** ******
   3  ****** ****** ****** ****** ****** ****** ****** ****** ****** ******
      ****** ****** ****** ****** ****** ****** ****** ****** ****** ******
      ****** ****** ****** ****** ****** ****** ****** ****** ****** ******
   4  ****** ****** ****** ****** ****** ****** ****** ****** ****** ******
      ****** ****** ****** ****** ****** ****** ****** ****** ****** ******
      ****** ****** ****** ****** ****** ****** ****** ****** ****** ******
   5  ****** ****** ****** ****** ****** ****** ****** ****** ****** ******
      ****** ****** ****** ****** ****** ****** ****** ****** ****** ******
      ****** ****** ****** ****** ****** ****** ****** ****** ****** ******
   6  ****** ****** ****** ****** ****** ****** ****** ****** ****** ******
      ****** ****** ****** ****** ****** ****** ****** ****** ****** ******
      ****** ****** ****** ****** ****** ****** ****** ****** ****** ******
   7  ****** ****** ****** ****** ****** ****** ****** ****** ****** ******
      ****** ****** ****** ****** ****** ****** ****** ****** ****** ******
      ****** ****** ****** ****** ****** ****** ****** ****** ****** ******
   8  ****** ****** ****** ****** ****** ****** ****** ****** ****** ******
      ****** ****** ****** ****** ****** ****** ****** ****** ****** ******
      ****** ****** ****** ****** ****** ****** ****** ****** ****** ******
   9  ****** ****** ****** ****** ****** ****** ****** ****** ****** ******
      ****** ****** ****** ****** ****** ****** ****** ****** ****** ******
      ****** ****** ****** ****** ****** ****** ****** ****** ****** ******
  10  ****** ****** ****** ****** ****** ****** ****** ****** ****** ******
      ****** ****** ****** ****** ****** ****** ****** ****** ****** ******
      ****** ****** ****** ****** ****** ****** ****** ****** ****** ******
  11  ****** ****** ****** ****** ****** ****** ****** ****** ****** ******
      ****** ****** ****** ****** ****** ****** ****** ****** ****** ******
      ****** ****** ****** ****** ****** ****** ****** ****** ****** ******
  12  ****** ****** ****** ****** ****** ****** ****** ****** ****** ******
      ****** ****** ****** ****** ****** ****** ****** ****** ****** ******
      ****** ****** ****** ****** ****** ****** ****** ****** ****** ******
  13  ****** ****** ****** ****** ****** ****** ****** ****** ****** ******
      ****** ****** ****** ****** ****** ****** ****** ****** ****** ******
      ****** ****** ****** ****** ****** ****** ****** ****** ****** ******
  14  ****** ****** ****** ****** ****** ****** ****** ****** ****** ******
      ****** ****** ****** ****** ****** ****** ****** ****** ****** ******
      ****** ****** ****** ****** ****** ****** ****** ****** ****** ******
  15  ****** ****** ****** ****** ****** ****** ****** ****** ****** ******
      ****** ****** ****** ****** ****** ****** ****** ****** ****** ******
      ****** ****** ****** ****** ****** ****** ****** ****** ****** ******
  16  ****** ****** ****** ****** ****** ****** ****** ****** ****** ******
      ****** ****** ****** ****** ****** ****** ****** ****** ****** ******
      ****** ****** ****** ****** ****** ****** ****** ****** ****** ******
  17  ****** ****** ****** ****** ****** ****** ****** ****** ****** ******
      ****** ****** ****** ****** ****** ****** ****** ****** ****** ******
      ****** ****** ****** ****** ****** ****** ****** ****** ****** ******
  18  ****** ****** ****** ****** ****** ****** ****** ****** ****** ******
      ****** ****** ****** ****** ****** ****** ****** ****** ****** ******
      ****** ****** ****** ****** ****** ****** ****** ****** ****** ******
  19  ****** ****** ****** ****** ****** ****** ****** ****** ****** ******
      ****** ****** ****** ****** ****** ****** ****** ****** ****** ******
      ****** ****** ****** ****** ****** ****** ****** ****** ****** ******
  20  ****** ****** ****** ****** ****** ****** ****** ****** ****** ******
      ****** ****** ****** ****** ****** ****** ****** ****** ****** ******
      ****** ****** ****** ****** ****** ****** ****** ****** ****** ******
  21  ****** ****** ****** ****** ****** ****** ****** ****** ****** ******
      ****** ****** ****** ****** ****** ****** ****** ****** ****** ******
      ****** ****** ****** ****** ****** ****** ****** ****** ****** ******
  22  ****** ****** ****** ****** ****** ****** ****** ****** ****** ******
      ****** ****** ****** ****** ****** ****** ****** ****** ****** ******
      ****** ****** ****** ****** ****** ****** ****** ****** ****** ******
  23  ****** ****** ****** ****** ****** ****** ****** ****** ****** ******
      ****** ****** ****** ****** ****** ****** ****** ****** ****** ******
      ****** ****** ****** ****** ****** ****** ****** ****** ****** ******
  24  ****** ****** ****** ****** ****** ****** ****** ****** ****** ******
      ****** ****** ****** ****** ****** ****** ****** ****** ****** ******
      ****** ****** ****** ****** ****** ****** ****** ****** ****** ******
  25  ****** ****** ****** ****** ****** ****** ****** ****** ****** ******
      ****** ****** ****** ****** ****** ****** ****** ****** ****** ******
      ****** ****** ****** ****** ****** ****** ****** ****** ****** ******

 HEAD WILL BE SAVED ON UNIT   51 AT END OF TIME STEP    1, STRESS PERIOD    7
1
  VOLUMETRIC BUDGET FOR ENTIRE MODEL AT END OF TIME STEP    1, STRESS PERIOD   7
  ------------------------------------------------------------------------------

     CUMULATIVE VOLUMES      L**3       RATES FOR THIS TIME STEP      L**3/T
     ------------------                 ------------------------

           IN:                                      IN:
           ---                                      ---
             STORAGE =    33514740.0698               STORAGE =       22513.7723
       CONSTANT HEAD =    16368451.0388         CONSTANT HEAD =       33652.2524
               WELLS =           0.0000                 WELLS =           0.0000
            RECHARGE =    15097200.0000              RECHARGE =           0.0000
      STREAM LEAKAGE =     6117030.8357        STREAM LEAKAGE =       13535.3564

            TOTAL IN =    71097421.9444              TOTAL IN =       69701.3810

          OUT:                                     OUT:
          ----                                     ----
             STORAGE =      780353.1272               STORAGE =           0.0000
       CONSTANT HEAD =           0.0000         CONSTANT HEAD =           0.0000
               WELLS =    23143456.3181                 WELLS =       36218.2415
            RECHARGE =           0.0000              RECHARGE =           0.0000
      STREAM LEAKAGE =    47173615.1769        STREAM LEAKAGE =       33483.1452

           TOTAL OUT =    71097424.6223             TOTAL OUT =       69701.3867

            IN - OUT =          -2.6779              IN - OUT =      -5.6246E-03

 PERCENT DISCREPANCY =          -0.00     PERCENT DISCREPANCY =          -0.00






         TIME SUMMARY AT END OF TIME STEP    1 IN STRESS PERIOD    7
                    SECONDS     MINUTES      HOURS       DAYS        YEARS
                    -----------------------------------------------------------
   TIME STEP LENGTH 7.86240E+06 1.31040E+05  2184.0      91.000     0.24914    
 STRESS PERIOD TIME 7.86240E+06 1.31040E+05  2184.0      91.000     0.24914    
         TOTAL TIME 5.52096E+07 9.20160E+05  15336.      639.00      1.7495    
1
1
                            STRESS PERIOD NO.    8, LENGTH =   91.00000    
                            -----------------------------------------------

                              NUMBER OF TIME STEPS =     1

                               MULTIPLIER FOR DELT =     1.500

                            INITIAL TIME STEP SIZE =   91.00000    

 WELL NO.  LAYER   ROW   COL   STRESS RATE         
 --------------------------------------------------
      1      1      8     16      -9735.    
      2      1     14     29      -8048.    
      3      1     19     28      -9398.    
      4      1     18      3      -9037.    

      4 WELLS

                 RECHARGE =  1.000000E-03

 REUSING STREAM SEGMENT DATA FROM LAST STRESS PERIOD
 
 SOLVING FOR HEAD 


     6 CALLS TO PCG ROUTINE FOR TIME STEP   1 IN STRESS PERIOD    8
    22 TOTAL ITERATIONS

 OUTPUT CONTROL FOR STRESS PERIOD    8   TIME STEP    1
    SAVE BUDGET
    SAVE HEAD FOR ALL LAYERS
    PRINT HEAD FOR ALL LAYERS
 UBDSV2 SAVING "STREAMFLOW OUT  " ON UNIT  50 AT TIME STEP  1, STRESS PERIOD   8



 STREAM LISTING     PERIOD      8   STEP        1

 LAYER ROW COL. STREAM  RCH.  FLOW INTO     FLOW TO   FLOW OUT OF   OVRLND.     DIRECT     STREAM       STREAM     STREAM     STREAM   STREAMBED  STREAMBED
                SEG.NO.  NO.  STRM. RCH.    AQUIFER    STRM. RCH.    RUNOFF     PRECIP       ET          HEAD       DEPTH      WIDTH   CONDCTNC.   GRADIENT

   1   13    1     1     1    1.0000E+05 -9.8348E+02   1.0098E+05  0.000E+00  0.000E+00  0.000E+00  4.84064E+01  1.451E-01  2.000E+01  2.000E+04 -4.917E-02
   1   13    2     1     2    1.0098E+05 -1.9788E+03   1.0296E+05  0.000E+00  0.000E+00  0.000E+00  4.79304E+01  1.464E-01  2.000E+01  2.000E+04 -9.894E-02
   1   14    3     1     3    1.0296E+05 -1.9213E+02   1.0315E+05  0.000E+00  0.000E+00  0.000E+00  4.74541E+01  1.473E-01  2.000E+01  2.000E+04 -9.606E-03
   1   15    4     1     4    1.0315E+05 -8.6300E+00   1.0316E+05  0.000E+00  0.000E+00  0.000E+00  4.69769E+01  1.474E-01  2.000E+01  2.000E+04 -4.315E-04
   1   16    5     1     5    1.0316E+05  1.2241E+03   1.0194E+05  0.000E+00  0.000E+00  0.000E+00  4.64991E+01  1.469E-01  2.000E+01  2.000E+04  6.121E-02
   1   16    6     1     6    1.0194E+05 -1.5901E+02   1.0210E+05  0.000E+00  0.000E+00  0.000E+00  4.60214E+01  1.464E-01  2.000E+01  2.000E+04 -7.951E-03
   1   16    7     1     7    1.0210E+05 -4.7146E+02   1.0257E+05  0.000E+00  0.000E+00  0.000E+00  4.55444E+01  1.467E-01  2.000E+01  2.000E+04 -2.357E-02
   1   16    8     1     8    1.0257E+05 -6.4267E+02   1.0321E+05  0.000E+00  0.000E+00  0.000E+00  4.50676E+01  1.471E-01  2.000E+01  2.000E+04 -3.213E-02
   1   16    9     1     9    1.0321E+05 -7.4571E+02   1.0396E+05  0.000E+00  0.000E+00  0.000E+00  4.45909E+01  1.477E-01  2.000E+01  2.000E+04 -3.729E-02
   1   16   10     1    10    1.0396E+05 -8.0879E+02   1.0477E+05  0.000E+00  0.000E+00  0.000E+00  4.41143E+01  1.484E-01  2.000E+01  2.000E+04 -4.044E-02
   1   16   11     1    11    1.0477E+05 -8.6324E+02   1.0563E+05  0.000E+00  0.000E+00  0.000E+00  4.36378E+01  1.491E-01  2.000E+01  2.000E+04 -4.316E-02
   1   16   12     1    12    1.0563E+05 -1.5305E+03   1.0716E+05  0.000E+00  0.000E+00  0.000E+00  4.31615E+01  1.501E-01  2.000E+01  2.000E+04 -7.652E-02
   1   15   13     1    13    1.0716E+05 -1.3972E+03   1.0856E+05  0.000E+00  0.000E+00  0.000E+00  4.26855E+01  1.514E-01  2.000E+01  2.000E+04 -6.986E-02
   1   14   14     1    14    1.0856E+05 -1.5202E+03   1.1008E+05  0.000E+00  0.000E+00  0.000E+00  4.22094E+01  1.526E-01  2.000E+01  2.000E+04 -7.601E-02
   1   13   15     1    15    1.1008E+05 -1.5626E+03   1.1164E+05  0.000E+00  0.000E+00  0.000E+00  4.17334E+01  1.539E-01  2.000E+01  2.000E+04 -7.813E-02
   1   12   16     1    16    1.1164E+05 -1.5383E+03   1.1318E+05  0.000E+00  0.000E+00  0.000E+00  4.12574E+01  1.552E-01  2.000E+01  2.000E+04 -7.691E-02
   1   12   17     1    17    1.1318E+05 -1.0694E+03   1.1425E+05  0.000E+00  0.000E+00  0.000E+00  4.07812E+01  1.562E-01  2.000E+01  2.000E+04 -5.347E-02
   1   12   18     1    18    1.1425E+05 -1.1450E+03   1.1539E+05  0.000E+00  0.000E+00  0.000E+00  4.03049E+01  1.572E-01  2.000E+01  2.000E+04 -5.725E-02
   1   12   19     1    19    1.1539E+05 -1.6714E+03   1.1706E+05  0.000E+00  0.000E+00  0.000E+00  3.98288E+01  1.583E-01  2.000E+01  2.000E+04 -8.357E-02
   1   13   20     1    20    1.1706E+05 -1.5294E+03   1.1859E+05  0.000E+00  0.000E+00  0.000E+00  3.93528E+01  1.596E-01  2.000E+01  2.000E+04 -7.647E-02
   1   14   21     1    21    1.1859E+05 -1.4674E+03   1.2006E+05  0.000E+00  0.000E+00  0.000E+00  3.88767E+01  1.608E-01  2.000E+01  2.000E+04 -7.337E-02
   1   14   22     1    22    1.2006E+05  4.8662E+03   1.1519E+05  0.000E+00  0.000E+00  0.000E+00  3.83981E+01  1.595E-01  2.000E+01  2.000E+04  2.433E-01
   1    9   30     2     1    5.0000E+04  1.1318E+02   4.9887E+04  0.000E+00  0.000E+00  0.000E+00  4.02408E+01  1.158E-01  2.000E+01  2.000E+04  5.659E-03
   1    9   29     2     2    4.9887E+04 -2.3716E+02   5.0124E+04  0.000E+00  0.000E+00  0.000E+00  3.99909E+01  1.159E-01  2.000E+01  2.000E+04 -1.186E-02
   1    9   28     2     3    5.0124E+04 -6.0314E+02   5.0727E+04  0.000E+00  0.000E+00  0.000E+00  3.97415E+01  1.165E-01  2.000E+01  2.000E+04 -3.016E-02
   1    9   27     2     4    5.0727E+04 -1.9234E+03   5.2651E+04  0.000E+00  0.000E+00  0.000E+00  3.94932E+01  1.182E-01  2.000E+01  2.000E+04 -9.617E-02
   1   10   26     2     5    5.2651E+04 -8.5095E+02   5.3501E+04  0.000E+00  0.000E+00  0.000E+00  3.92451E+01  1.201E-01  2.000E+01  2.000E+04 -4.255E-02
   1   11   25     2     6    5.3501E+04 -7.5360E+02   5.4255E+04  0.000E+00  0.000E+00  0.000E+00  3.89962E+01  1.212E-01  2.000E+01  2.000E+04 -3.768E-02
   1   12   24     2     7    5.4255E+04 -1.0929E+03   5.5348E+04  0.000E+00  0.000E+00  0.000E+00  3.87474E+01  1.224E-01  2.000E+01  2.000E+04 -5.464E-02
   1   13   23     2     8    5.5348E+04 -2.1452E+02   5.5562E+04  0.000E+00  0.000E+00  0.000E+00  3.84983E+01  1.233E-01  2.000E+01  2.000E+04 -1.073E-02
   1   14   22     2     9    5.5562E+04  1.8484E+03   5.3714E+04  0.000E+00  0.000E+00  0.000E+00  3.82472E+01  1.222E-01  2.000E+01  2.000E+04  9.242E-02
   1   14   22     3     1    1.6891E+05 -8.6463E+03   1.7756E+05  0.000E+00  0.000E+00  0.000E+00  3.77225E+01  1.669E-01  2.000E+01  2.000E+04 -4.323E-01
   1   15   23     3     2    1.7756E+05 -5.0723E+02   1.7806E+05  0.000E+00  0.000E+00  0.000E+00  3.68362E+01  1.695E-01  2.000E+01  2.000E+04 -2.536E-02
   1   15   24     3     3    1.7806E+05 -2.4683E+02   1.7831E+05  0.000E+00  0.000E+00  0.000E+00  3.59475E+01  1.698E-01  2.000E+01  2.000E+04 -1.234E-02
   1   15   25     3     4    1.7831E+05 -2.1258E+02   1.7852E+05  0.000E+00  0.000E+00  0.000E+00  3.50588E+01  1.699E-01  2.000E+01  2.000E+04 -1.063E-02
   1   15   26     3     5    1.7852E+05 -6.4517E+01   1.7859E+05  0.000E+00  0.000E+00  0.000E+00  3.41700E+01  1.700E-01  2.000E+01  2.000E+04 -3.226E-03
   1   16   27     3     6    1.7859E+05  1.4936E+02   1.7844E+05  0.000E+00  0.000E+00  0.000E+00  3.32811E+01  1.699E-01  2.000E+01  2.000E+04  7.468E-03
   1   17   28     3     7    1.7844E+05  2.4903E+03   1.7595E+05  0.000E+00  0.000E+00  0.000E+00  3.23914E+01  1.692E-01  2.000E+01  2.000E+04  1.245E-01
   1   18   29     3     8    1.7595E+05  1.8916E+03   1.7406E+05  0.000E+00  0.000E+00  0.000E+00  3.15013E+01  1.679E-01  2.000E+01  2.000E+04  9.458E-02
   1   18   30     3     9    1.7406E+05 -7.0848E+02   1.7476E+05  0.000E+00  0.000E+00  0.000E+00  3.06120E+01  1.676E-01  2.000E+01  2.000E+04 -3.542E-02



1
              HEAD IN LAYER   1 AT END OF TIME STEP   1 IN STRESS PERIOD    8
  ---------------------------------------------------------------------------

          1      2      3      4      5      6      7      8      9     10
         11     12     13     14     15     16     17     18     19     20
         21     22     23     24     25     26     27     28     29     30
 .........................................................................
   1  ****** ****** ****** ****** ****** ****** ****** ****** ****** ******
      ****** ****** ****** ****** ****** ****** ****** ****** ****** ******
      ****** ****** ****** ****** ****** ****** ****** ****** ****** ******
   2  ****** ****** ****** ****** ****** ****** ****** ****** ****** ******
      ****** ****** ****** ****** ****** ****** ****** ****** ****** ******
      ****** ****** ****** ****** ****** ****** ****** ****** ****** ******
   3  ****** ****** ****** ****** ****** ****** ****** ****** ****** ******
      ****** ****** ****** ****** ****** ****** ****** ****** ****** ******
      ****** ****** ****** ****** ****** ****** ****** ****** ****** ******
   4  ****** ****** ****** ****** ****** ****** ****** ****** ****** ******
      ****** ****** ****** ****** ****** ****** ****** ****** ****** ******
      ****** ****** ****** ****** ****** ****** ****** ****** ****** ******
   5  ****** ****** ****** ****** ****** ****** ****** ****** ****** ******
      ****** ****** ****** ****** ****** ****** ****** ****** ****** ******
      ****** ****** ****** ****** ****** ****** ****** ****** ****** ******
   6  ****** ****** ****** ****** ****** ****** ****** ****** ****** ******
      ****** ****** ****** ****** ****** ****** ****** ****** ****** ******
      ****** ****** ****** ****** ****** ****** ****** ****** ****** ******
   7  ****** ****** ****** ****** ****** ****** ****** ****** ****** ******
      ****** ****** ****** ****** ****** ****** ****** ****** ****** ******
      ****** ****** ****** ****** ****** ****** ****** ****** ****** ******
   8  ****** ****** ****** ****** ****** ****** ****** ****** ****** ******
      ****** ****** ****** ****** ****** ****** ****** ****** ****** ******
      ****** ****** ****** ****** ****** ****** ****** ****** ****** ******
   9  ****** ****** ****** ****** ****** ****** ****** ****** ****** ******
      ****** ****** ****** ****** ****** ****** ****** ****** ****** ******
      ****** ****** ****** ****** ****** ****** ****** ****** ****** ******
  10  ****** ****** ****** ****** ****** ****** ****** ****** ****** ******
      ****** ****** ****** ****** ****** ****** ****** ****** ****** ******
      ****** ****** ****** ****** ****** ****** ****** ****** ****** ******
  11  ****** ****** ****** ****** ****** ****** ****** ****** ****** ******
      ****** ****** ****** ****** ****** ****** ****** ****** ****** ******
      ****** ****** ****** ****** ****** ****** ****** ****** ****** ******
  12  ****** ****** ****** ****** ****** ****** ****** ****** ****** ******
      ****** ****** ****** ****** ****** ****** ****** ****** ****** ******
      ****** ****** ****** ****** ****** ****** ****** ****** ****** ******
  13  ****** ****** ****** ****** ****** ****** ****** ****** ****** ******
      ****** ****** ****** ****** ****** ****** ****** ****** ****** ******
      ****** ****** ****** ****** ****** ****** ****** ****** ****** ******
  14  ****** ****** ****** ****** ****** ****** ****** ****** ****** ******
      ****** ****** ****** ****** ****** ****** ****** ****** ****** ******
      ****** ****** ****** ****** ****** ****** ****** ****** ****** ******
  15  ****** ****** ****** ****** ****** ****** ****** ****** ****** ******
      ****** ****** ****** ****** ****** ****** ****** ****** ****** ******
      ****** ****** ****** ****** ****** ****** ****** ****** ****** ******
  16  ****** ****** ****** ****** ****** ****** ****** ****** ****** ******
      ****** ****** ****** ****** ****** ****** ****** ****** ****** ******
      ****** ****** ****** ****** ****** ****** ****** ****** ****** ******
  17  ****** ****** ****** ****** ****** ****** ****** ****** ****** ******
      ****** ****** ****** ****** ****** ****** ****** ****** ****** ******
      ****** ****** ****** ****** ****** ****** ****** ****** ****** ******
  18  ****** ****** ****** ****** ****** ****** ****** ****** ****** ******
      ****** ****** ****** ****** ****** ****** ****** ****** ****** ******
      ****** ****** ****** ****** ****** ****** ****** ****** ****** ******
  19  ****** ****** ****** ****** ****** ****** ****** ****** ****** ******
      ****** ****** ****** ****** ****** ****** ****** ****** ****** ******
      ****** ****** ****** ****** ****** ****** ****** ****** ****** ******
  20  ****** ****** ****** ****** ****** ****** ****** ****** ****** ******
      ****** ****** ****** ****** ****** ****** ****** ****** ****** ******
      ****** ****** ****** ****** ****** ****** ****** ****** ****** ******
  21  ****** ****** ****** ****** ****** ****** ****** ****** ****** ******
      ****** ****** ****** ****** ****** ****** ****** ****** ****** ******
      ****** ****** ****** ****** ****** ****** ****** ****** ****** ******
  22  ****** ****** ****** ****** ****** ****** ****** ****** ****** ******
      ****** ****** ****** ****** ****** ****** ****** ****** ****** ******
      ****** ****** ****** ****** ****** ****** ****** ****** ****** ******
  23  ****** ****** ****** ****** ****** ****** ****** ****** ****** ******
      ****** ****** ****** ****** ****** ****** ****** ****** ****** ******
      ****** ****** ****** ****** ****** ****** ****** ****** ****** ******
  24  ****** ****** ****** ****** ****** ****** ****** ****** ****** ******
      ****** ****** ****** ****** ****** ****** ****** ****** ****** ******
      ****** ****** ****** ****** ****** ****** ****** ****** ****** ******
  25  ****** ****** ****** ****** ****** ****** ****** ****** ****** ******
      ****** ****** ****** ****** ****** ****** ****** ****** ****** ******
      ****** ****** ****** ****** ****** ****** ****** ****** ****** ******

 HEAD WILL BE SAVED ON UNIT   51 AT END OF TIME STEP    1, STRESS PERIOD    8
1
  VOLUMETRIC BUDGET FOR ENTIRE MODEL AT END OF TIME STEP    1, STRESS PERIOD   8
  ------------------------------------------------------------------------------

     CUMULATIVE VOLUMES      L**3       RATES FOR THIS TIME STEP      L**3/T
     ------------------                 ------------------------

           IN:                                      IN:
           ---                                      ---
             STORAGE =    33655744.3311               STORAGE =        1549.4974
       CONSTANT HEAD =    19405143.3470         CONSTANT HEAD =       33370.2451
               WELLS =           0.0000                 WELLS =           0.0000
            RECHARGE =    17608800.0000              RECHARGE =       27600.0000
      STREAM LEAKAGE =     7262103.1095        STREAM LEAKAGE =       12583.2118

            TOTAL IN =    77931790.7876              TOTAL IN =       75102.9543

          OUT:                                     OUT:
          ----                                     ----
             STORAGE =      920291.9766               STORAGE =        1537.7896
       CONSTANT HEAD =           0.0000         CONSTANT HEAD =           0.0000
               WELLS =    26439316.2946                 WELLS =       36218.2415
            RECHARGE =           0.0000              RECHARGE =           0.0000
      STREAM LEAKAGE =    50572184.4529        STREAM LEAKAGE =       37346.9151

           TOTAL OUT =    77931792.7242             TOTAL OUT =       75102.9462

            IN - OUT =          -1.9366              IN - OUT =       8.1461E-03

 PERCENT DISCREPANCY =          -0.00     PERCENT DISCREPANCY =           0.00






         TIME SUMMARY AT END OF TIME STEP    1 IN STRESS PERIOD    8
                    SECONDS     MINUTES      HOURS       DAYS        YEARS
                    -----------------------------------------------------------
   TIME STEP LENGTH 7.86240E+06 1.31040E+05  2184.0      91.000     0.24914    
 STRESS PERIOD TIME 7.86240E+06 1.31040E+05  2184.0      91.000     0.24914    
         TOTAL TIME 6.30720E+07 1.05120E+06  17520.      730.00      1.9986    
1
1
                            STRESS PERIOD NO.    9, LENGTH =   92.00000    
                            -----------------------------------------------

                              NUMBER OF TIME STEPS =     1

                               MULTIPLIER FOR DELT =     1.500

                            INITIAL TIME STEP SIZE =   92.00000    

 WELL NO.  LAYER   ROW   COL   STRESS RATE         
 --------------------------------------------------
      1      1      8     16      -9735.    
      2      1     14     29      -8048.    
      3      1     19     28      -9398.    
      4      1     18      3      -9037.    

      4 WELLS

                 RECHARGE =  5.000000E-04

 REUSING STREAM SEGMENT DATA FROM LAST STRESS PERIOD
 
 SOLVING FOR HEAD 


     6 CALLS TO PCG ROUTINE FOR TIME STEP   1 IN STRESS PERIOD    9
    23 TOTAL ITERATIONS

 OUTPUT CONTROL FOR STRESS PERIOD    9   TIME STEP    1
    SAVE BUDGET
    SAVE HEAD FOR ALL LAYERS
    PRINT HEAD FOR ALL LAYERS
 UBDSV2 SAVING "STREAMFLOW OUT  " ON UNIT  50 AT TIME STEP  1, STRESS PERIOD   9



 STREAM LISTING     PERIOD      9   STEP        1

 LAYER ROW COL. STREAM  RCH.  FLOW INTO     FLOW TO   FLOW OUT OF   OVRLND.     DIRECT     STREAM       STREAM     STREAM     STREAM   STREAMBED  STREAMBED
                SEG.NO.  NO.  STRM. RCH.    AQUIFER    STRM. RCH.    RUNOFF     PRECIP       ET          HEAD       DEPTH      WIDTH   CONDCTNC.   GRADIENT

   1   13    1     1     1    1.0000E+05 -7.6659E+02   1.0077E+05  0.000E+00  0.000E+00  0.000E+00  4.84063E+01  1.450E-01  2.000E+01  2.000E+04 -3.833E-02
   1   13    2     1     2    1.0077E+05 -1.7331E+03   1.0250E+05  0.000E+00  0.000E+00  0.000E+00  4.79302E+01  1.461E-01  2.000E+01  2.000E+04 -8.666E-02
   1   14    3     1     3    1.0250E+05 -1.2079E+02   1.0262E+05  0.000E+00  0.000E+00  0.000E+00  4.74537E+01  1.469E-01  2.000E+01  2.000E+04 -6.039E-03
   1   15    4     1     4    1.0262E+05  6.3721E+01   1.0256E+05  0.000E+00  0.000E+00  0.000E+00  4.69764E+01  1.469E-01  2.000E+01  2.000E+04  3.186E-03
   1   16    5     1     5    1.0256E+05  1.4183E+03   1.0114E+05  0.000E+00  0.000E+00  0.000E+00  4.64985E+01  1.462E-01  2.000E+01  2.000E+04  7.092E-02
   1   16    6     1     6    1.0114E+05 -3.8100E+01   1.0118E+05  0.000E+00  0.000E+00  0.000E+00  4.60207E+01  1.457E-01  2.000E+01  2.000E+04 -1.905E-03
   1   16    7     1     7    1.0118E+05 -3.5436E+02   1.0153E+05  0.000E+00  0.000E+00  0.000E+00  4.55436E+01  1.458E-01  2.000E+01  2.000E+04 -1.772E-02
   1   16    8     1     8    1.0153E+05 -5.2718E+02   1.0206E+05  0.000E+00  0.000E+00  0.000E+00  4.50667E+01  1.462E-01  2.000E+01  2.000E+04 -2.636E-02
   1   16    9     1     9    1.0206E+05 -6.3194E+02   1.0269E+05  0.000E+00  0.000E+00  0.000E+00  4.45899E+01  1.467E-01  2.000E+01  2.000E+04 -3.160E-02
   1   16   10     1    10    1.0269E+05 -6.9715E+02   1.0339E+05  0.000E+00  0.000E+00  0.000E+00  4.41132E+01  1.473E-01  2.000E+01  2.000E+04 -3.486E-02
   1   16   11     1    11    1.0339E+05 -7.5274E+02   1.0414E+05  0.000E+00  0.000E+00  0.000E+00  4.36365E+01  1.479E-01  2.000E+01  2.000E+04 -3.764E-02
   1   16   12     1    12    1.0414E+05 -1.3414E+03   1.0548E+05  0.000E+00  0.000E+00  0.000E+00  4.31602E+01  1.488E-01  2.000E+01  2.000E+04 -6.707E-02
   1   15   13     1    13    1.0548E+05 -1.1866E+03   1.0667E+05  0.000E+00  0.000E+00  0.000E+00  4.26840E+01  1.499E-01  2.000E+01  2.000E+04 -5.933E-02
   1   14   14     1    14    1.0667E+05 -1.2959E+03   1.0796E+05  0.000E+00  0.000E+00  0.000E+00  4.22077E+01  1.509E-01  2.000E+01  2.000E+04 -6.480E-02
   1   13   15     1    15    1.0796E+05 -1.3322E+03   1.0930E+05  0.000E+00  0.000E+00  0.000E+00  4.17316E+01  1.520E-01  2.000E+01  2.000E+04 -6.661E-02
   1   12   16     1    16    1.0930E+05 -1.2992E+03   1.1060E+05  0.000E+00  0.000E+00  0.000E+00  4.12554E+01  1.531E-01  2.000E+01  2.000E+04 -6.496E-02
   1   12   17     1    17    1.1060E+05 -9.0569E+02   1.1150E+05  0.000E+00  0.000E+00  0.000E+00  4.07790E+01  1.540E-01  2.000E+01  2.000E+04 -4.528E-02
   1   12   18     1    18    1.1150E+05 -9.8895E+02   1.1249E+05  0.000E+00  0.000E+00  0.000E+00  4.03026E+01  1.548E-01  2.000E+01  2.000E+04 -4.945E-02
   1   12   19     1    19    1.1249E+05 -1.4835E+03   1.1397E+05  0.000E+00  0.000E+00  0.000E+00  3.98263E+01  1.558E-01  2.000E+01  2.000E+04 -7.418E-02
   1   13   20     1    20    1.1397E+05 -1.3555E+03   1.1533E+05  0.000E+00  0.000E+00  0.000E+00  3.93502E+01  1.570E-01  2.000E+01  2.000E+04 -6.777E-02
   1   14   21     1    21    1.1533E+05 -1.2957E+03   1.1662E+05  0.000E+00  0.000E+00  0.000E+00  3.88740E+01  1.581E-01  2.000E+01  2.000E+04 -6.479E-02
   1   14   22     1    22    1.1662E+05  4.9041E+03   1.1172E+05  0.000E+00  0.000E+00  0.000E+00  3.83953E+01  1.566E-01  2.000E+01  2.000E+04  2.452E-01
   1    9   30     2     1    5.0000E+04  2.3669E+02   4.9763E+04  0.000E+00  0.000E+00  0.000E+00  4.02407E+01  1.157E-01  2.000E+01  2.000E+04  1.183E-02
   1    9   29     2     2    4.9763E+04 -1.1340E+02   4.9877E+04  0.000E+00  0.000E+00  0.000E+00  3.99906E+01  1.156E-01  2.000E+01  2.000E+04 -5.670E-03
   1    9   28     2     3    4.9877E+04 -4.7743E+02   5.0354E+04  0.000E+00  0.000E+00  0.000E+00  3.97410E+01  1.160E-01  2.000E+01  2.000E+04 -2.387E-02
   1    9   27     2     4    5.0354E+04 -1.7463E+03   5.2100E+04  0.000E+00  0.000E+00  0.000E+00  3.94926E+01  1.176E-01  2.000E+01  2.000E+04 -8.731E-02
   1   10   26     2     5    5.2100E+04 -6.7678E+02   5.2777E+04  0.000E+00  0.000E+00  0.000E+00  3.92442E+01  1.192E-01  2.000E+01  2.000E+04 -3.384E-02
   1   11   25     2     6    5.2777E+04 -5.8692E+02   5.3364E+04  0.000E+00  0.000E+00  0.000E+00  3.89951E+01  1.201E-01  2.000E+01  2.000E+04 -2.935E-02
   1   12   24     2     7    5.3364E+04 -9.3958E+02   5.4304E+04  0.000E+00  0.000E+00  0.000E+00  3.87461E+01  1.211E-01  2.000E+01  2.000E+04 -4.698E-02
   1   13   23     2     8    5.4304E+04 -1.6734E+02   5.4471E+04  0.000E+00  0.000E+00  0.000E+00  3.84969E+01  1.219E-01  2.000E+01  2.000E+04 -8.367E-03
   1   14   22     2     9    5.4471E+04  1.9126E+03   5.2558E+04  0.000E+00  0.000E+00  0.000E+00  3.82457E+01  1.207E-01  2.000E+01  2.000E+04  9.563E-02
   1   14   22     3     1    1.6428E+05 -8.6059E+03   1.7288E+05  0.000E+00  0.000E+00  0.000E+00  3.77198E+01  1.642E-01  2.000E+01  2.000E+04 -4.303E-01
   1   15   23     3     2    1.7288E+05 -4.5468E+02   1.7334E+05  0.000E+00  0.000E+00  0.000E+00  3.68335E+01  1.668E-01  2.000E+01  2.000E+04 -2.273E-02
   1   15   24     3     3    1.7334E+05 -2.0383E+02   1.7354E+05  0.000E+00  0.000E+00  0.000E+00  3.59448E+01  1.670E-01  2.000E+01  2.000E+04 -1.019E-02
   1   15   25     3     4    1.7354E+05 -1.6932E+02   1.7371E+05  0.000E+00  0.000E+00  0.000E+00  3.50560E+01  1.671E-01  2.000E+01  2.000E+04 -8.466E-03
   1   15   26     3     5    1.7371E+05 -1.6928E+01   1.7373E+05  0.000E+00  0.000E+00  0.000E+00  3.41672E+01  1.672E-01  2.000E+01  2.000E+04 -8.464E-04
   1   16   27     3     6    1.7373E+05  2.0536E+02   1.7352E+05  0.000E+00  0.000E+00  0.000E+00  3.32782E+01  1.671E-01  2.000E+01  2.000E+04  1.027E-02
   1   17   28     3     7    1.7352E+05  2.6438E+03   1.7088E+05  0.000E+00  0.000E+00  0.000E+00  3.23885E+01  1.663E-01  2.000E+01  2.000E+04  1.322E-01
   1   18   29     3     8    1.7088E+05  2.0675E+03   1.6881E+05  0.000E+00  0.000E+00  0.000E+00  3.14983E+01  1.649E-01  2.000E+01  2.000E+04  1.034E-01
   1   18   30     3     9    1.6881E+05 -5.7632E+02   1.6939E+05  0.000E+00  0.000E+00  0.000E+00  3.06090E+01  1.645E-01  2.000E+01  2.000E+04 -2.882E-02



1
              HEAD IN LAYER   1 AT END OF TIME STEP   1 IN STRESS PERIOD    9
  ---------------------------------------------------------------------------

          1      2      3      4      5      6      7      8      9     10
         11     12     13     14     15     16     17     18     19     20
         21     22     23     24     25     26     27     28     29     30
 .........................................................................
   1  ****** ****** ****** ****** ****** ****** ****** ****** ****** ******
      ****** ****** ****** ****** ****** ****** ****** ****** ****** ******
      ****** ****** ****** ****** ****** ****** ****** ****** ****** ******
   2  ****** ****** ****** ****** ****** ****** ****** ****** ****** ******
      ****** ****** ****** ****** ****** ****** ****** ****** ****** ******
      ****** ****** ****** ****** ****** ****** ****** ****** ****** ******
   3  ****** ****** ****** ****** ****** ****** ****** ****** ****** ******
      ****** ****** ****** ****** ****** ****** ****** ****** ****** ******
      ****** ****** ****** ****** ****** ****** ****** ****** ****** ******
   4  ****** ****** ****** ****** ****** ****** ****** ****** ****** ******
      ****** ****** ****** ****** ****** ****** ****** ****** ****** ******
      ****** ****** ****** ****** ****** ****** ****** ****** ****** ******
   5  ****** ****** ****** ****** ****** ****** ****** ****** ****** ******
      ****** ****** ****** ****** ****** ****** ****** ****** ****** ******
      ****** ****** ****** ****** ****** ****** ****** ****** ****** ******
   6  ****** ****** ****** ****** ****** ****** ****** ****** ****** ******
      ****** ****** ****** ****** ****** ****** ****** ****** ****** ******
      ****** ****** ****** ****** ****** ****** ****** ****** ****** ******
   7  ****** ****** ****** ****** ****** ****** ****** ****** ****** ******
      ****** ****** ****** ****** ****** ****** ****** ****** ****** ******
      ****** ****** ****** ****** ****** ****** ****** ****** ****** ******
   8  ****** ****** ****** ****** ****** ****** ****** ****** ****** ******
      ****** ****** ****** ****** ****** ****** ****** ****** ****** ******
      ****** ****** ****** ****** ****** ****** ****** ****** ****** ******
   9  ****** ****** ****** ****** ****** ****** ****** ****** ****** ******
      ****** ****** ****** ****** ****** ****** ****** ****** ****** ******
      ****** ****** ****** ****** ****** ****** ****** ****** ****** ******
  10  ****** ****** ****** ****** ****** ****** ****** ****** ****** ******
      ****** ****** ****** ****** ****** ****** ****** ****** ****** ******
      ****** ****** ****** ****** ****** ****** ****** ****** ****** ******
  11  ****** ****** ****** ****** ****** ****** ****** ****** ****** ******
      ****** ****** ****** ****** ****** ****** ****** ****** ****** ******
      ****** ****** ****** ****** ****** ****** ****** ****** ****** ******
  12  ****** ****** ****** ****** ****** ****** ****** ****** ****** ******
      ****** ****** ****** ****** ****** ****** ****** ****** ****** ******
      ****** ****** ****** ****** ****** ****** ****** ****** ****** ******
  13  ****** ****** ****** ****** ****** ****** ****** ****** ****** ******
      ****** ****** ****** ****** ****** ****** ****** ****** ****** ******
      ****** ****** ****** ****** ****** ****** ****** ****** ****** ******
  14  ****** ****** ****** ****** ****** ****** ****** ****** ****** ******
      ****** ****** ****** ****** ****** ****** ****** ****** ****** ******
      ****** ****** ****** ****** ****** ****** ****** ****** ****** ******
  15  ****** ****** ****** ****** ****** ****** ****** ****** ****** ******
      ****** ****** ****** ****** ****** ****** ****** ****** ****** ******
      ****** ****** ****** ****** ****** ****** ****** ****** ****** ******
  16  ****** ****** ****** ****** ****** ****** ****** ****** ****** ******
      ****** ****** ****** ****** ****** ****** ****** ****** ****** ******
      ****** ****** ****** ****** ****** ****** ****** ****** ****** ******
  17  ****** ****** ****** ****** ****** ****** ****** ****** ****** ******
      ****** ****** ****** ****** ****** ****** ****** ****** ****** ******
      ****** ****** ****** ****** ****** ****** ****** ****** ****** ******
  18  ****** ****** ****** ****** ****** ****** ****** ****** ****** ******
      ****** ****** ****** ****** ****** ****** ****** ****** ****** ******
      ****** ****** ****** ****** ****** ****** ****** ****** ****** ******
  19  ****** ****** ****** ****** ****** ****** ****** ****** ****** ******
      ****** ****** ****** ****** ****** ****** ****** ****** ****** ******
      ****** ****** ****** ****** ****** ****** ****** ****** ****** ******
  20  ****** ****** ****** ****** ****** ****** ****** ****** ****** ******
      ****** ****** ****** ****** ****** ****** ****** ****** ****** ******
      ****** ****** ****** ****** ****** ****** ****** ****** ****** ******
  21  ****** ****** ****** ****** ****** ****** ****** ****** ****** ******
      ****** ****** ****** ****** ****** ****** ****** ****** ****** ******
      ****** ****** ****** ****** ****** ****** ****** ****** ****** ******
  22  ****** ****** ****** ****** ****** ****** ****** ****** ****** ******
      ****** ****** ****** ****** ****** ****** ****** ****** ****** ******
      ****** ****** ****** ****** ****** ****** ****** ****** ****** ******
  23  ****** ****** ****** ****** ****** ****** ****** ****** ****** ******
      ****** ****** ****** ****** ****** ****** ****** ****** ****** ******
      ****** ****** ****** ****** ****** ****** ****** ****** ****** ******
  24  ****** ****** ****** ****** ****** ****** ****** ****** ****** ******
      ****** ****** ****** ****** ****** ****** ****** ****** ****** ******
      ****** ****** ****** ****** ****** ****** ****** ****** ****** ******
  25  ****** ****** ****** ****** ****** ****** ****** ****** ****** ******
      ****** ****** ****** ****** ****** ****** ****** ****** ****** ******
      ****** ****** ****** ****** ****** ****** ****** ****** ****** ******

 HEAD WILL BE SAVED ON UNIT   51 AT END OF TIME STEP    1, STRESS PERIOD    9
1
  VOLUMETRIC BUDGET FOR ENTIRE MODEL AT END OF TIME STEP    1, STRESS PERIOD   9
  ------------------------------------------------------------------------------

     CUMULATIVE VOLUMES      L**3       RATES FOR THIS TIME STEP      L**3/T
     ------------------                 ------------------------

           IN:                                      IN:
           ---                                      ---
             STORAGE =    34323949.4721               STORAGE =        7263.0994
       CONSTANT HEAD =    22583229.2401         CONSTANT HEAD =       34544.4119
               WELLS =           0.0000                 WELLS =           0.0000
            RECHARGE =    18878400.0000              RECHARGE =       13800.0000
      STREAM LEAKAGE =     8499703.4299        STREAM LEAKAGE =       13452.1774

            TOTAL IN =    84285282.1421              TOTAL IN =       69059.6886

          OUT:                                     OUT:
          ----                                     ----
             STORAGE =      920291.9766               STORAGE =           0.0000
       CONSTANT HEAD =           0.0000         CONSTANT HEAD =           0.0000
               WELLS =    29771394.5125                 WELLS =       36218.2415
            RECHARGE =           0.0000              RECHARGE =           0.0000
      STREAM LEAKAGE =    53593597.6624        STREAM LEAKAGE =       32841.4479

           TOTAL OUT =    84285284.1516             TOTAL OUT =       69059.6894

            IN - OUT =          -2.0095              IN - OUT =      -7.9228E-04

 PERCENT DISCREPANCY =          -0.00     PERCENT DISCREPANCY =          -0.00






         TIME SUMMARY AT END OF TIME STEP    1 IN STRESS PERIOD    9
                    SECONDS     MINUTES      HOURS       DAYS        YEARS
                    -----------------------------------------------------------
   TIME STEP LENGTH 7.94880E+06 1.32480E+05  2208.0      92.000     0.25188    
 STRESS PERIOD TIME 7.94880E+06 1.32480E+05  2208.0      92.000     0.25188    
         TOTAL TIME 7.10208E+07 1.18368E+06  19728.      822.00      2.2505    
1
1
                            STRESS PERIOD NO.   10, LENGTH =   91.00000    
                            -----------------------------------------------

                              NUMBER OF TIME STEPS =     1

                               MULTIPLIER FOR DELT =     1.500

                            INITIAL TIME STEP SIZE =   91.00000    

 WELL NO.  LAYER   ROW   COL   STRESS RATE         
 --------------------------------------------------
      1      1      8     16      -9735.    
      2      1     14     29      -8048.    
      3      1     19     28      -9398.    
      4      1     18      3      -9037.    

      4 WELLS

                 RECHARGE =  2.000000E-03

 REUSING STREAM SEGMENT DATA FROM LAST STRESS PERIOD
 
 SOLVING FOR HEAD 


     7 CALLS TO PCG ROUTINE FOR TIME STEP   1 IN STRESS PERIOD   10
    26 TOTAL ITERATIONS

 OUTPUT CONTROL FOR STRESS PERIOD   10   TIME STEP    1
    SAVE BUDGET
    SAVE HEAD FOR ALL LAYERS
    PRINT HEAD FOR ALL LAYERS
 UBDSV2 SAVING "STREAMFLOW OUT  " ON UNIT  50 AT TIME STEP  1, STRESS PERIOD  10



 STREAM LISTING     PERIOD     10   STEP        1

 LAYER ROW COL. STREAM  RCH.  FLOW INTO     FLOW TO   FLOW OUT OF   OVRLND.     DIRECT     STREAM       STREAM     STREAM     STREAM   STREAMBED  STREAMBED
                SEG.NO.  NO.  STRM. RCH.    AQUIFER    STRM. RCH.    RUNOFF     PRECIP       ET          HEAD       DEPTH      WIDTH   CONDCTNC.   GRADIENT

   1   13    1     1     1    1.0000E+05 -1.2174E+03   1.0122E+05  0.000E+00  0.000E+00  0.000E+00  4.84065E+01  1.452E-01  2.000E+01  2.000E+04 -6.087E-02
   1   13    2     1     2    1.0122E+05 -2.2327E+03   1.0345E+05  0.000E+00  0.000E+00  0.000E+00  4.79308E+01  1.467E-01  2.000E+01  2.000E+04 -1.116E-01
   1   14    3     1     3    1.0345E+05 -3.0697E+02   1.0376E+05  0.000E+00  0.000E+00  0.000E+00  4.74546E+01  1.478E-01  2.000E+01  2.000E+04 -1.535E-02
   1   15    4     1     4    1.0376E+05 -1.3539E+02   1.0389E+05  0.000E+00  0.000E+00  0.000E+00  4.69775E+01  1.479E-01  2.000E+01  2.000E+04 -6.770E-03
   1   16    5     1     5    1.0389E+05  8.0018E+02   1.0309E+05  0.000E+00  0.000E+00  0.000E+00  4.64999E+01  1.477E-01  2.000E+01  2.000E+04  4.001E-02
   1   16    6     1     6    1.0309E+05 -3.9982E+02   1.0349E+05  0.000E+00  0.000E+00  0.000E+00  4.60225E+01  1.475E-01  2.000E+01  2.000E+04 -1.999E-02
   1   16    7     1     7    1.0349E+05 -6.9831E+02   1.0419E+05  0.000E+00  0.000E+00  0.000E+00  4.55457E+01  1.480E-01  2.000E+01  2.000E+04 -3.492E-02
   1   16    8     1     8    1.0419E+05 -8.6572E+02   1.0506E+05  0.000E+00  0.000E+00  0.000E+00  4.50691E+01  1.486E-01  2.000E+01  2.000E+04 -4.329E-02
   1   16    9     1     9    1.0506E+05 -9.6900E+02   1.0603E+05  0.000E+00  0.000E+00  0.000E+00  4.45926E+01  1.494E-01  2.000E+01  2.000E+04 -4.845E-02
   1   16   10     1    10    1.0603E+05 -1.0345E+03   1.0706E+05  0.000E+00  0.000E+00  0.000E+00  4.41162E+01  1.503E-01  2.000E+01  2.000E+04 -5.172E-02
   1   16   11     1    11    1.0706E+05 -1.0936E+03   1.0815E+05  0.000E+00  0.000E+00  0.000E+00  4.36398E+01  1.512E-01  2.000E+01  2.000E+04 -5.468E-02
   1   16   12     1    12    1.0815E+05 -1.9104E+03   1.1006E+05  0.000E+00  0.000E+00  0.000E+00  4.31638E+01  1.524E-01  2.000E+01  2.000E+04 -9.552E-02
   1   15   13     1    13    1.1006E+05 -1.7724E+03   1.1184E+05  0.000E+00  0.000E+00  0.000E+00  4.26880E+01  1.540E-01  2.000E+01  2.000E+04 -8.862E-02
   1   14   14     1    14    1.1184E+05 -1.8888E+03   1.1372E+05  0.000E+00  0.000E+00  0.000E+00  4.22123E+01  1.555E-01  2.000E+01  2.000E+04 -9.444E-02
   1   13   15     1    15    1.1372E+05 -1.9149E+03   1.1564E+05  0.000E+00  0.000E+00  0.000E+00  4.17366E+01  1.570E-01  2.000E+01  2.000E+04 -9.575E-02
   1   12   16     1    16    1.1564E+05 -1.8602E+03   1.1750E+05  0.000E+00  0.000E+00  0.000E+00  4.12609E+01  1.586E-01  2.000E+01  2.000E+04 -9.301E-02
   1   12   17     1    17    1.1750E+05 -1.3307E+03   1.1883E+05  0.000E+00  0.000E+00  0.000E+00  4.07849E+01  1.599E-01  2.000E+01  2.000E+04 -6.654E-02
   1   12   18     1    18    1.1883E+05 -1.4099E+03   1.2024E+05  0.000E+00  0.000E+00  0.000E+00  4.03087E+01  1.610E-01  2.000E+01  2.000E+04 -7.050E-02
   1   12   19     1    19    1.2024E+05 -2.0016E+03   1.2224E+05  0.000E+00  0.000E+00  0.000E+00  3.98328E+01  1.624E-01  2.000E+01  2.000E+04 -1.001E-01
   1   13   20     1    20    1.2224E+05 -1.8766E+03   1.2412E+05  0.000E+00  0.000E+00  0.000E+00  3.93571E+01  1.639E-01  2.000E+01  2.000E+04 -9.383E-02
   1   14   21     1    21    1.2412E+05 -1.8207E+03   1.2594E+05  0.000E+00  0.000E+00  0.000E+00  3.88813E+01  1.654E-01  2.000E+01  2.000E+04 -9.103E-02
   1   14   22     1    22    1.2594E+05  4.7778E+03   1.2116E+05  0.000E+00  0.000E+00  0.000E+00  3.84029E+01  1.642E-01  2.000E+01  2.000E+04  2.389E-01
   1    9   30     2     1    5.0000E+04 -1.7745E+02   5.0177E+04  0.000E+00  0.000E+00  0.000E+00  4.02410E+01  1.160E-01  2.000E+01  2.000E+04 -8.873E-03
   1    9   29     2     2    5.0177E+04 -5.2524E+02   5.0703E+04  0.000E+00  0.000E+00  0.000E+00  3.99915E+01  1.165E-01  2.000E+01  2.000E+04 -2.626E-02
   1    9   28     2     3    5.0703E+04 -8.8843E+02   5.1591E+04  0.000E+00  0.000E+00  0.000E+00  3.97425E+01  1.175E-01  2.000E+01  2.000E+04 -4.442E-02
   1    9   27     2     4    5.1591E+04 -2.2990E+03   5.3890E+04  0.000E+00  0.000E+00  0.000E+00  3.94946E+01  1.196E-01  2.000E+01  2.000E+04 -1.149E-01
   1   10   26     2     5    5.3890E+04 -1.2295E+03   5.5120E+04  0.000E+00  0.000E+00  0.000E+00  3.92470E+01  1.220E-01  2.000E+01  2.000E+04 -6.147E-02
   1   11   25     2     6    5.5120E+04 -1.1151E+03   5.6235E+04  0.000E+00  0.000E+00  0.000E+00  3.89986E+01  1.236E-01  2.000E+01  2.000E+04 -5.576E-02
   1   12   24     2     7    5.6235E+04 -1.4176E+03   5.7652E+04  0.000E+00  0.000E+00  0.000E+00  3.87503E+01  1.253E-01  2.000E+01  2.000E+04 -7.088E-02
   1   13   23     2     8    5.7652E+04 -3.1600E+02   5.7968E+04  0.000E+00  0.000E+00  0.000E+00  3.85014E+01  1.264E-01  2.000E+01  2.000E+04 -1.580E-02
   1   14   22     2     9    5.7968E+04  1.7302E+03   5.6238E+04  0.000E+00  0.000E+00  0.000E+00  3.82505E+01  1.255E-01  2.000E+01  2.000E+04  8.651E-02
   1   14   22     3     1    1.7740E+05 -8.7324E+03   1.8613E+05  0.000E+00  0.000E+00  0.000E+00  3.77273E+01  1.718E-01  2.000E+01  2.000E+04 -4.366E-01
   1   15   23     3     2    1.8613E+05 -6.1722E+02   1.8675E+05  0.000E+00  0.000E+00  0.000E+00  3.68411E+01  1.744E-01  2.000E+01  2.000E+04 -3.086E-02
   1   15   24     3     3    1.8675E+05 -3.4101E+02   1.8709E+05  0.000E+00  0.000E+00  0.000E+00  3.59525E+01  1.747E-01  2.000E+01  2.000E+04 -1.705E-02
   1   15   25     3     4    1.8709E+05 -3.0991E+02   1.8740E+05  0.000E+00  0.000E+00  0.000E+00  3.50638E+01  1.749E-01  2.000E+01  2.000E+04 -1.550E-02
   1   15   26     3     5    1.8740E+05 -1.7918E+02   1.8758E+05  0.000E+00  0.000E+00  0.000E+00  3.41750E+01  1.750E-01  2.000E+01  2.000E+04 -8.959E-03
   1   16   27     3     6    1.8758E+05  1.9486E+01   1.8756E+05  0.000E+00  0.000E+00  0.000E+00  3.32862E+01  1.751E-01  2.000E+01  2.000E+04  9.743E-04
   1   17   28     3     7    1.8756E+05  2.1231E+03   1.8544E+05  0.000E+00  0.000E+00  0.000E+00  3.23967E+01  1.745E-01  2.000E+01  2.000E+04  1.062E-01
   1   18   29     3     8    1.8544E+05  1.5161E+03   1.8392E+05  0.000E+00  0.000E+00  0.000E+00  3.15068E+01  1.734E-01  2.000E+01  2.000E+04  7.581E-02
   1   18   30     3     9    1.8392E+05 -1.0016E+03   1.8492E+05  0.000E+00  0.000E+00  0.000E+00  3.06177E+01  1.733E-01  2.000E+01  2.000E+04 -5.008E-02



1
              HEAD IN LAYER   1 AT END OF TIME STEP   1 IN STRESS PERIOD   10
  ---------------------------------------------------------------------------

          1      2      3      4      5      6      7      8      9     10
         11     12     13     14     15     16     17     18     19     20
         21     22     23     24     25     26     27     28     29     30
 .........................................................................
   1  ****** ****** ****** ****** ****** ****** ****** ****** ****** ******
      ****** ****** ****** ****** ****** ****** ****** ****** ****** ******
      ****** ****** ****** ****** ****** ****** ****** ****** ****** ******
   2  ****** ****** ****** ****** ****** ****** ****** ****** ****** ******
      ****** ****** ****** ****** ****** ****** ****** ****** ****** ******
      ****** ****** ****** ****** ****** ****** ****** ****** ****** ******
   3  ****** ****** ****** ****** ****** ****** ****** ****** ****** ******
      ****** ****** ****** ****** ****** ****** ****** ****** ****** ******
      ****** ****** ****** ****** ****** ****** ****** ****** ****** ******
   4  ****** ****** ****** ****** ****** ****** ****** ****** ****** ******
      ****** ****** ****** ****** ****** ****** ****** ****** ****** ******
      ****** ****** ****** ****** ****** ****** ****** ****** ****** ******
   5  ****** ****** ****** ****** ****** ****** ****** ****** ****** ******
      ****** ****** ****** ****** ****** ****** ****** ****** ****** ******
      ****** ****** ****** ****** ****** ****** ****** ****** ****** ******
   6  ****** ****** ****** ****** ****** ****** ****** ****** ****** ******
      ****** ****** ****** ****** ****** ****** ****** ****** ****** ******
      ****** ****** ****** ****** ****** ****** ****** ****** ****** ******
   7  ****** ****** ****** ****** ****** ****** ****** ****** ****** ******
      ****** ****** ****** ****** ****** ****** ****** ****** ****** ******
      ****** ****** ****** ****** ****** ****** ****** ****** ****** ******
   8  ****** ****** ****** ****** ****** ****** ****** ****** ****** ******
      ****** ****** ****** ****** ****** ****** ****** ****** ****** ******
      ****** ****** ****** ****** ****** ****** ****** ****** ****** ******
   9  ****** ****** ****** ****** ****** ****** ****** ****** ****** ******
      ****** ****** ****** ****** ****** ****** ****** ****** ****** ******
      ****** ****** ****** ****** ****** ****** ****** ****** ****** ******
  10  ****** ****** ****** ****** ****** ****** ****** ****** ****** ******
      ****** ****** ****** ****** ****** ****** ****** ****** ****** ******
      ****** ****** ****** ****** ****** ****** ****** ****** ****** ******
  11  ****** ****** ****** ****** ****** ****** ****** ****** ****** ******
      ****** ****** ****** ****** ****** ****** ****** ****** ****** ******
      ****** ****** ****** ****** ****** ****** ****** ****** ****** ******
  12  ****** ****** ****** ****** ****** ****** ****** ****** ****** ******
      ****** ****** ****** ****** ****** ****** ****** ****** ****** ******
      ****** ****** ****** ****** ****** ****** ****** ****** ****** ******
  13  ****** ****** ****** ****** ****** ****** ****** ****** ****** ******
      ****** ****** ****** ****** ****** ****** ****** ****** ****** ******
      ****** ****** ****** ****** ****** ****** ****** ****** ****** ******
  14  ****** ****** ****** ****** ****** ****** ****** ****** ****** ******
      ****** ****** ****** ****** ****** ****** ****** ****** ****** ******
      ****** ****** ****** ****** ****** ****** ****** ****** ****** ******
  15  ****** ****** ****** ****** ****** ****** ****** ****** ****** ******
      ****** ****** ****** ****** ****** ****** ****** ****** ****** ******
      ****** ****** ****** ****** ****** ****** ****** ****** ****** ******
  16  ****** ****** ****** ****** ****** ****** ****** ****** ****** ******
      ****** ****** ****** ****** ****** ****** ****** ****** ****** ******
      ****** ****** ****** ****** ****** ****** ****** ****** ****** ******
  17  ****** ****** ****** ****** ****** ****** ****** ****** ****** ******
      ****** ****** ****** ****** ****** ****** ****** ****** ****** ******
      ****** ****** ****** ****** ****** ****** ****** ****** ****** ******
  18  ****** ****** ****** ****** ****** ****** ****** ****** ****** ******
      ****** ****** ****** ****** ****** ****** ****** ****** ****** ******
      ****** ****** ****** ****** ****** ****** ****** ****** ****** ******
  19  ****** ****** ****** ****** ****** ****** ****** ****** ****** ******
      ****** ****** ****** ****** ****** ****** ****** ****** ****** ******
      ****** ****** ****** ****** ****** ****** ****** ****** ****** ******
  20  ****** ****** ****** ****** ****** ****** ****** ****** ****** ******
      ****** ****** ****** ****** ****** ****** ****** ****** ****** ******
      ****** ****** ****** ****** ****** ****** ****** ****** ****** ******
  21  ****** ****** ****** ****** ****** ****** ****** ****** ****** ******
      ****** ****** ****** ****** ****** ****** ****** ****** ****** ******
      ****** ****** ****** ****** ****** ****** ****** ****** ****** ******
  22  ****** ****** ****** ****** ****** ****** ****** ****** ****** ******
      ****** ****** ****** ****** ****** ****** ****** ****** ****** ******
      ****** ****** ****** ****** ****** ****** ****** ****** ****** ******
  23  ****** ****** ****** ****** ****** ****** ****** ****** ****** ******
      ****** ****** ****** ****** ****** ****** ****** ****** ****** ******
      ****** ****** ****** ****** ****** ****** ****** ****** ****** ******
  24  ****** ****** ****** ****** ****** ****** ****** ****** ****** ******
      ****** ****** ****** ****** ****** ****** ****** ****** ****** ******
      ****** ****** ****** ****** ****** ****** ****** ****** ****** ******
  25  ****** ****** ****** ****** ****** ****** ****** ****** ****** ******
      ****** ****** ****** ****** ****** ****** ****** ****** ****** ******
      ****** ****** ****** ****** ****** ****** ****** ****** ****** ******

 HEAD WILL BE SAVED ON UNIT   51 AT END OF TIME STEP    1, STRESS PERIOD   10
1
  VOLUMETRIC BUDGET FOR ENTIRE MODEL AT END OF TIME STEP    1, STRESS PERIOD  10
  ------------------------------------------------------------------------------

     CUMULATIVE VOLUMES      L**3       RATES FOR THIS TIME STEP      L**3/T
     ------------------                 ------------------------

           IN:                                      IN:
           ---                                      ---
             STORAGE =    34323949.4721               STORAGE =           0.0000
       CONSTANT HEAD =    25458442.1126         CONSTANT HEAD =       31595.7459
               WELLS =           0.0000                 WELLS =           0.0000
            RECHARGE =    23901600.0000              RECHARGE =       55200.0000
      STREAM LEAKAGE =     9497682.2030        STREAM LEAKAGE =       10966.7997

            TOTAL IN =    93181673.7878              TOTAL IN =       97762.5456

          OUT:                                     OUT:
          ----                                     ----
             STORAGE =     2344902.8443               STORAGE =       15655.0645
       CONSTANT HEAD =           0.0000         CONSTANT HEAD =           0.0000
               WELLS =    33067254.4890                 WELLS =       36218.2415
            RECHARGE =           0.0000              RECHARGE =           0.0000
      STREAM LEAKAGE =    57769518.1173        STREAM LEAKAGE =       45889.2358

           TOTAL OUT =    93181675.4506             TOTAL OUT =       97762.5417

            IN - OUT =          -1.6627              IN - OUT =       3.8105E-03

 PERCENT DISCREPANCY =          -0.00     PERCENT DISCREPANCY =           0.00






         TIME SUMMARY AT END OF TIME STEP    1 IN STRESS PERIOD   10
                    SECONDS     MINUTES      HOURS       DAYS        YEARS
                    -----------------------------------------------------------
   TIME STEP LENGTH 7.86240E+06 1.31040E+05  2184.0      91.000     0.24914    
 STRESS PERIOD TIME 7.86240E+06 1.31040E+05  2184.0      91.000     0.24914    
         TOTAL TIME 7.88832E+07 1.31472E+06  21912.      913.00      2.4997    
1
1
                            STRESS PERIOD NO.   11, LENGTH =   91.00000    
                            -----------------------------------------------

                              NUMBER OF TIME STEPS =     1

                               MULTIPLIER FOR DELT =     1.500

                            INITIAL TIME STEP SIZE =   91.00000    

 WELL NO.  LAYER   ROW   COL   STRESS RATE         
 --------------------------------------------------
      1      1      8     16      -9735.    
      2      1     14     29      -8048.    
      3      1     19     28      -9398.    
      4      1     18      3      -9037.    

      4 WELLS

                 RECHARGE =   0.00000    

 REUSING STREAM SEGMENT DATA FROM LAST STRESS PERIOD
 
 SOLVING FOR HEAD 


     7 CALLS TO PCG ROUTINE FOR TIME STEP   1 IN STRESS PERIOD   11
    26 TOTAL ITERATIONS

 OUTPUT CONTROL FOR STRESS PERIOD   11   TIME STEP    1
    SAVE BUDGET
    SAVE HEAD FOR ALL LAYERS
    PRINT HEAD FOR ALL LAYERS
 UBDSV2 SAVING "STREAMFLOW OUT  " ON UNIT  50 AT TIME STEP  1, STRESS PERIOD  11



 STREAM LISTING     PERIOD     11   STEP        1

 LAYER ROW COL. STREAM  RCH.  FLOW INTO     FLOW TO   FLOW OUT OF   OVRLND.     DIRECT     STREAM       STREAM     STREAM     STREAM   STREAMBED  STREAMBED
                SEG.NO.  NO.  STRM. RCH.    AQUIFER    STRM. RCH.    RUNOFF     PRECIP       ET          HEAD       DEPTH      WIDTH   CONDCTNC.   GRADIENT

   1   13    1     1     1    1.0000E+05 -6.4856E+02   1.0065E+05  0.000E+00  0.000E+00  0.000E+00  4.84063E+01  1.449E-01  2.000E+01  2.000E+04 -3.243E-02
   1   13    2     1     2    1.0065E+05 -1.5992E+03   1.0225E+05  0.000E+00  0.000E+00  0.000E+00  4.79300E+01  1.459E-01  2.000E+01  2.000E+04 -7.996E-02
   1   14    3     1     3    1.0225E+05 -7.5852E+01   1.0232E+05  0.000E+00  0.000E+00  0.000E+00  4.74534E+01  1.466E-01  2.000E+01  2.000E+04 -3.793E-03
   1   15    4     1     4    1.0232E+05  1.0671E+02   1.0222E+05  0.000E+00  0.000E+00  0.000E+00  4.69762E+01  1.466E-01  2.000E+01  2.000E+04  5.336E-03
   1   16    5     1     5    1.0222E+05  1.4884E+03   1.0073E+05  0.000E+00  0.000E+00  0.000E+00  4.64982E+01  1.459E-01  2.000E+01  2.000E+04  7.442E-02
   1   16    6     1     6    1.0073E+05  1.4730E+01   1.0071E+05  0.000E+00  0.000E+00  0.000E+00  4.60203E+01  1.453E-01  2.000E+01  2.000E+04  7.365E-04
   1   16    7     1     7    1.0071E+05 -3.0138E+02   1.0102E+05  0.000E+00  0.000E+00  0.000E+00  4.55431E+01  1.454E-01  2.000E+01  2.000E+04 -1.507E-02
   1   16    8     1     8    1.0102E+05 -4.7432E+02   1.0149E+05  0.000E+00  0.000E+00  0.000E+00  4.50662E+01  1.457E-01  2.000E+01  2.000E+04 -2.372E-02
   1   16    9     1     9    1.0149E+05 -5.7986E+02   1.0207E+05  0.000E+00  0.000E+00  0.000E+00  4.45894E+01  1.462E-01  2.000E+01  2.000E+04 -2.899E-02
   1   16   10     1    10    1.0207E+05 -6.4645E+02   1.0272E+05  0.000E+00  0.000E+00  0.000E+00  4.41126E+01  1.467E-01  2.000E+01  2.000E+04 -3.232E-02
   1   16   11     1    11    1.0272E+05 -7.0380E+02   1.0342E+05  0.000E+00  0.000E+00  0.000E+00  4.36359E+01  1.473E-01  2.000E+01  2.000E+04 -3.519E-02
   1   16   12     1    12    1.0342E+05 -1.2646E+03   1.0468E+05  0.000E+00  0.000E+00  0.000E+00  4.31595E+01  1.481E-01  2.000E+01  2.000E+04 -6.323E-02
   1   15   13     1    13    1.0468E+05 -1.0835E+03   1.0577E+05  0.000E+00  0.000E+00  0.000E+00  4.26832E+01  1.491E-01  2.000E+01  2.000E+04 -5.418E-02
   1   14   14     1    14    1.0577E+05 -1.1820E+03   1.0695E+05  0.000E+00  0.000E+00  0.000E+00  4.22069E+01  1.501E-01  2.000E+01  2.000E+04 -5.910E-02
   1   13   15     1    15    1.0695E+05 -1.2136E+03   1.0816E+05  0.000E+00  0.000E+00  0.000E+00  4.17307E+01  1.511E-01  2.000E+01  2.000E+04 -6.068E-02
   1   12   16     1    16    1.0816E+05 -1.1822E+03   1.0935E+05  0.000E+00  0.000E+00  0.000E+00  4.12544E+01  1.521E-01  2.000E+01  2.000E+04 -5.911E-02
   1   12   17     1    17    1.0935E+05 -8.2370E+02   1.1017E+05  0.000E+00  0.000E+00  0.000E+00  4.07780E+01  1.530E-01  2.000E+01  2.000E+04 -4.119E-02
   1   12   18     1    18    1.1017E+05 -9.1066E+02   1.1108E+05  0.000E+00  0.000E+00  0.000E+00  4.03014E+01  1.537E-01  2.000E+01  2.000E+04 -4.553E-02
   1   12   19     1    19    1.1108E+05 -1.3887E+03   1.1247E+05  0.000E+00  0.000E+00  0.000E+00  3.98251E+01  1.546E-01  2.000E+01  2.000E+04 -6.944E-02
   1   13   20     1    20    1.1247E+05 -1.2642E+03   1.1373E+05  0.000E+00  0.000E+00  0.000E+00  3.93489E+01  1.557E-01  2.000E+01  2.000E+04 -6.321E-02
   1   14   21     1    21    1.1373E+05 -1.2238E+03   1.1496E+05  0.000E+00  0.000E+00  0.000E+00  3.88727E+01  1.568E-01  2.000E+01  2.000E+04 -6.119E-02
   1   14   22     1    22    1.1496E+05  4.9236E+03   1.1003E+05  0.000E+00  0.000E+00  0.000E+00  3.83939E+01  1.552E-01  2.000E+01  2.000E+04  2.462E-01
   1    9   30     2     1    5.0000E+04  3.1063E+02   4.9689E+04  0.000E+00  0.000E+00  0.000E+00  4.02406E+01  1.156E-01  2.000E+01  2.000E+04  1.553E-02
   1    9   29     2     2    4.9689E+04 -4.0210E+01   4.9730E+04  0.000E+00  0.000E+00  0.000E+00  3.99905E+01  1.155E-01  2.000E+01  2.000E+04 -2.010E-03
   1    9   28     2     3    4.9730E+04 -4.0559E+02   5.0135E+04  0.000E+00  0.000E+00  0.000E+00  3.97408E+01  1.158E-01  2.000E+01  2.000E+04 -2.028E-02
   1    9   27     2     4    5.0135E+04 -1.6591E+03   5.1794E+04  0.000E+00  0.000E+00  0.000E+00  3.94922E+01  1.172E-01  2.000E+01  2.000E+04 -8.296E-02
   1   10   26     2     5    5.1794E+04 -5.7523E+02   5.2370E+04  0.000E+00  0.000E+00  0.000E+00  3.92437E+01  1.187E-01  2.000E+01  2.000E+04 -2.876E-02
   1   11   25     2     6    5.2370E+04 -4.8467E+02   5.2854E+04  0.000E+00  0.000E+00  0.000E+00  3.89945E+01  1.195E-01  2.000E+01  2.000E+04 -2.423E-02
   1   12   24     2     7    5.2854E+04 -8.4415E+02   5.3698E+04  0.000E+00  0.000E+00  0.000E+00  3.87454E+01  1.204E-01  2.000E+01  2.000E+04 -4.221E-02
   1   13   23     2     8    5.3698E+04 -1.3012E+02   5.3828E+04  0.000E+00  0.000E+00  0.000E+00  3.84960E+01  1.210E-01  2.000E+01  2.000E+04 -6.506E-03
   1   14   22     2     9    5.3828E+04  1.9419E+03   5.1887E+04  0.000E+00  0.000E+00  0.000E+00  3.82448E+01  1.198E-01  2.000E+01  2.000E+04  9.710E-02
   1   14   22     3     1    1.6192E+05 -8.5865E+03   1.7051E+05  0.000E+00  0.000E+00  0.000E+00  3.77184E+01  1.628E-01  2.000E+01  2.000E+04 -4.293E-01
   1   15   23     3     2    1.7051E+05 -4.2519E+02   1.7093E+05  0.000E+00  0.000E+00  0.000E+00  3.68321E+01  1.655E-01  2.000E+01  2.000E+04 -2.126E-02
   1   15   24     3     3    1.7093E+05 -1.7590E+02   1.7111E+05  0.000E+00  0.000E+00  0.000E+00  3.59434E+01  1.656E-01  2.000E+01  2.000E+04 -8.795E-03
   1   15   25     3     4    1.7111E+05 -1.4096E+02   1.7125E+05  0.000E+00  0.000E+00  0.000E+00  3.50546E+01  1.657E-01  2.000E+01  2.000E+04 -7.048E-03
   1   15   26     3     5    1.7125E+05  1.6507E+01   1.7123E+05  0.000E+00  0.000E+00  0.000E+00  3.41658E+01  1.658E-01  2.000E+01  2.000E+04  8.254E-04
   1   16   27     3     6    1.7123E+05  2.4249E+02   1.7099E+05  0.000E+00  0.000E+00  0.000E+00  3.32768E+01  1.657E-01  2.000E+01  2.000E+04  1.212E-02
   1   17   28     3     7    1.7099E+05  2.7328E+03   1.6826E+05  0.000E+00  0.000E+00  0.000E+00  3.23870E+01  1.648E-01  2.000E+01  2.000E+04  1.366E-01
   1   18   29     3     8    1.6826E+05  2.1379E+03   1.6612E+05  0.000E+00  0.000E+00  0.000E+00  3.14967E+01  1.634E-01  2.000E+01  2.000E+04  1.069E-01
   1   18   30     3     9    1.6612E+05 -5.1261E+02   1.6663E+05  0.000E+00  0.000E+00  0.000E+00  3.06074E+01  1.629E-01  2.000E+01  2.000E+04 -2.563E-02



1
              HEAD IN LAYER   1 AT END OF TIME STEP   1 IN STRESS PERIOD   11
  ---------------------------------------------------------------------------

          1      2      3      4      5      6      7      8      9     10
         11     12     13     14     15     16     17     18     19     20
         21     22     23     24     25     26     27     28     29     30
 .........................................................................
   1  ****** ****** ****** ****** ****** ****** ****** ****** ****** ******
      ****** ****** ****** ****** ****** ****** ****** ****** ****** ******
      ****** ****** ****** ****** ****** ****** ****** ****** ****** ******
   2  ****** ****** ****** ****** ****** ****** ****** ****** ****** ******
      ****** ****** ****** ****** ****** ****** ****** ****** ****** ******
      ****** ****** ****** ****** ****** ****** ****** ****** ****** ******
   3  ****** ****** ****** ****** ****** ****** ****** ****** ****** ******
      ****** ****** ****** ****** ****** ****** ****** ****** ****** ******
      ****** ****** ****** ****** ****** ****** ****** ****** ****** ******
   4  ****** ****** ****** ****** ****** ****** ****** ****** ****** ******
      ****** ****** ****** ****** ****** ****** ****** ****** ****** ******
      ****** ****** ****** ****** ****** ****** ****** ****** ****** ******
   5  ****** ****** ****** ****** ****** ****** ****** ****** ****** ******
      ****** ****** ****** ****** ****** ****** ****** ****** ****** ******
      ****** ****** ****** ****** ****** ****** ****** ****** ****** ******
   6  ****** ****** ****** ****** ****** ****** ****** ****** ****** ******
      ****** ****** ****** ****** ****** ****** ****** ****** ****** ******
      ****** ****** ****** ****** ****** ****** ****** ****** ****** ******
   7  ****** ****** ****** ****** ****** ****** ****** ****** ****** ******
      ****** ****** ****** ****** ****** ****** ****** ****** ****** ******
      ****** ****** ****** ****** ****** ****** ****** ****** ****** ******
   8  ****** ****** ****** ****** ****** ****** ****** ****** ****** ******
      ****** ****** ****** ****** ****** ****** ****** ****** ****** ******
      ****** ****** ****** ****** ****** ****** ****** ****** ****** ******
   9  ****** ****** ****** ****** ****** ****** ****** ****** ****** ******
      ****** ****** ****** ****** ****** ****** ****** ****** ****** ******
      ****** ****** ****** ****** ****** ****** ****** ****** ****** ******
  10  ****** ****** ****** ****** ****** ****** ****** ****** ****** ******
      ****** ****** ****** ****** ****** ****** ****** ****** ****** ******
      ****** ****** ****** ****** ****** ****** ****** ****** ****** ******
  11  ****** ****** ****** ****** ****** ****** ****** ****** ****** ******
      ****** ****** ****** ****** ****** ****** ****** ****** ****** ******
      ****** ****** ****** ****** ****** ****** ****** ****** ****** ******
  12  ****** ****** ****** ****** ****** ****** ****** ****** ****** ******
      ****** ****** ****** ****** ****** ****** ****** ****** ****** ******
      ****** ****** ****** ****** ****** ****** ****** ****** ****** ******
  13  ****** ****** ****** ****** ****** ****** ****** ****** ****** ******
      ****** ****** ****** ****** ****** ****** ****** ****** ****** ******
      ****** ****** ****** ****** ****** ****** ****** ****** ****** ******
  14  ****** ****** ****** ****** ****** ****** ****** ****** ****** ******
      ****** ****** ****** ****** ****** ****** ****** ****** ****** ******
      ****** ****** ****** ****** ****** ****** ****** ****** ****** ******
  15  ****** ****** ****** ****** ****** ****** ****** ****** ****** ******
      ****** ****** ****** ****** ****** ****** ****** ****** ****** ******
      ****** ****** ****** ****** ****** ****** ****** ****** ****** ******
  16  ****** ****** ****** ****** ****** ****** ****** ****** ****** ******
      ****** ****** ****** ****** ****** ****** ****** ****** ****** ******
      ****** ****** ****** ****** ****** ****** ****** ****** ****** ******
  17  ****** ****** ****** ****** ****** ****** ****** ****** ****** ******
      ****** ****** ****** ****** ****** ****** ****** ****** ****** ******
      ****** ****** ****** ****** ****** ****** ****** ****** ****** ******
  18  ****** ****** ****** ****** ****** ****** ****** ****** ****** ******
      ****** ****** ****** ****** ****** ****** ****** ****** ****** ******
      ****** ****** ****** ****** ****** ****** ****** ****** ****** ******
  19  ****** ****** ****** ****** ****** ****** ****** ****** ****** ******
      ****** ****** ****** ****** ****** ****** ****** ****** ****** ******
      ****** ****** ****** ****** ****** ****** ****** ****** ****** ******
  20  ****** ****** ****** ****** ****** ****** ****** ****** ****** ******
      ****** ****** ****** ****** ****** ****** ****** ****** ****** ******
      ****** ****** ****** ****** ****** ****** ****** ****** ****** ******
  21  ****** ****** ****** ****** ****** ****** ****** ****** ****** ******
      ****** ****** ****** ****** ****** ****** ****** ****** ****** ******
      ****** ****** ****** ****** ****** ****** ****** ****** ****** ******
  22  ****** ****** ****** ****** ****** ****** ****** ****** ****** ******
      ****** ****** ****** ****** ****** ****** ****** ****** ****** ******
      ****** ****** ****** ****** ****** ****** ****** ****** ****** ******
  23  ****** ****** ****** ****** ****** ****** ****** ****** ****** ******
      ****** ****** ****** ****** ****** ****** ****** ****** ****** ******
      ****** ****** ****** ****** ****** ****** ****** ****** ****** ******
  24  ****** ****** ****** ****** ****** ****** ****** ****** ****** ******
      ****** ****** ****** ****** ****** ****** ****** ****** ****** ******
      ****** ****** ****** ****** ****** ****** ****** ****** ****** ******
  25  ****** ****** ****** ****** ****** ****** ****** ****** ****** ******
      ****** ****** ****** ****** ****** ****** ****** ****** ****** ******
      ****** ****** ****** ****** ****** ****** ****** ****** ****** ******

 HEAD WILL BE SAVED ON UNIT   51 AT END OF TIME STEP    1, STRESS PERIOD   11
1
  VOLUMETRIC BUDGET FOR ENTIRE MODEL AT END OF TIME STEP    1, STRESS PERIOD  11
  ------------------------------------------------------------------------------

     CUMULATIVE VOLUMES      L**3       RATES FOR THIS TIME STEP      L**3/T
     ------------------                 ------------------------

           IN:                                      IN:
           ---                                      ---
             STORAGE =    35958764.2014               STORAGE =       17964.9970
       CONSTANT HEAD =    28632923.3284         CONSTANT HEAD =       34884.4090
               WELLS =           0.0000                 WELLS =           0.0000
            RECHARGE =    23901600.0000              RECHARGE =           0.0000
      STREAM LEAKAGE =    10764004.0398        STREAM LEAKAGE =       13915.6246

            TOTAL IN =    99257291.5695              TOTAL IN =       66765.0306

          OUT:                                     OUT:
          ----                                     ----
             STORAGE =     2344902.8443               STORAGE =           0.0000
       CONSTANT HEAD =           0.0000         CONSTANT HEAD =           0.0000
               WELLS =    36363114.4654                 WELLS =       36218.2415
            RECHARGE =           0.0000              RECHARGE =           0.0000
      STREAM LEAKAGE =    60549276.3766        STREAM LEAKAGE =       30546.7941

           TOTAL OUT =    99257293.6863             TOTAL OUT =       66765.0356

            IN - OUT =          -2.1168              IN - OUT =      -4.9892E-03

 PERCENT DISCREPANCY =          -0.00     PERCENT DISCREPANCY =          -0.00






         TIME SUMMARY AT END OF TIME STEP    1 IN STRESS PERIOD   11
                    SECONDS     MINUTES      HOURS       DAYS        YEARS
                    -----------------------------------------------------------
   TIME STEP LENGTH 7.86240E+06 1.31040E+05  2184.0      91.000     0.24914    
 STRESS PERIOD TIME 7.86240E+06 1.31040E+05  2184.0      91.000     0.24914    
         TOTAL TIME 8.67456E+07 1.44576E+06  24096.      1004.0      2.7488    
1
1
                            STRESS PERIOD NO.   12, LENGTH =   91.00000    
                            -----------------------------------------------

                              NUMBER OF TIME STEPS =     1

                               MULTIPLIER FOR DELT =     1.500

                            INITIAL TIME STEP SIZE =   91.00000    

 WELL NO.  LAYER   ROW   COL   STRESS RATE         
 --------------------------------------------------
      1      1      8     16      -9735.    
      2      1     14     29      -8048.    
      3      1     19     28      -9398.    
      4      1     18      3      -9037.    

      4 WELLS

                 RECHARGE =  1.000000E-03

 REUSING STREAM SEGMENT DATA FROM LAST STRESS PERIOD
 
 SOLVING FOR HEAD 


     7 CALLS TO PCG ROUTINE FOR TIME STEP   1 IN STRESS PERIOD   12
    24 TOTAL ITERATIONS

 OUTPUT CONTROL FOR STRESS PERIOD   12   TIME STEP    1
    SAVE BUDGET
    SAVE HEAD FOR ALL LAYERS
    PRINT HEAD FOR ALL LAYERS
 UBDSV2 SAVING "STREAMFLOW OUT  " ON UNIT  50 AT TIME STEP  1, STRESS PERIOD  12



 STREAM LISTING     PERIOD     12   STEP        1

 LAYER ROW COL. STREAM  RCH.  FLOW INTO     FLOW TO   FLOW OUT OF   OVRLND.     DIRECT     STREAM       STREAM     STREAM     STREAM   STREAMBED  STREAMBED
                SEG.NO.  NO.  STRM. RCH.    AQUIFER    STRM. RCH.    RUNOFF     PRECIP       ET          HEAD       DEPTH      WIDTH   CONDCTNC.   GRADIENT

   1   13    1     1     1    1.0000E+05 -7.9200E+02   1.0079E+05  0.000E+00  0.000E+00  0.000E+00  4.84064E+01  1.450E-01  2.000E+01  2.000E+04 -3.960E-02
   1   13    2     1     2    1.0079E+05 -1.7534E+03   1.0255E+05  0.000E+00  0.000E+00  0.000E+00  4.79302E+01  1.461E-01  2.000E+01  2.000E+04 -8.767E-02
   1   14    3     1     3    1.0255E+05 -1.5425E+02   1.0270E+05  0.000E+00  0.000E+00  0.000E+00  4.74537E+01  1.469E-01  2.000E+01  2.000E+04 -7.712E-03
   1   15    4     1     4    1.0270E+05  2.4490E+01   1.0268E+05  0.000E+00  0.000E+00  0.000E+00  4.69765E+01  1.470E-01  2.000E+01  2.000E+04  1.224E-03
   1   16    5     1     5    1.0268E+05  1.2788E+03   1.0140E+05  0.000E+00  0.000E+00  0.000E+00  4.64987E+01  1.464E-01  2.000E+01  2.000E+04  6.394E-02
   1   16    6     1     6    1.0140E+05 -1.1555E+02   1.0151E+05  0.000E+00  0.000E+00  0.000E+00  4.60209E+01  1.459E-01  2.000E+01  2.000E+04 -5.778E-03
   1   16    7     1     7    1.0151E+05 -4.2658E+02   1.0194E+05  0.000E+00  0.000E+00  0.000E+00  4.55439E+01  1.461E-01  2.000E+01  2.000E+04 -2.133E-02
   1   16    8     1     8    1.0194E+05 -5.9849E+02   1.0254E+05  0.000E+00  0.000E+00  0.000E+00  4.50670E+01  1.466E-01  2.000E+01  2.000E+04 -2.992E-02
   1   16    9     1     9    1.0254E+05 -7.0448E+02   1.0324E+05  0.000E+00  0.000E+00  0.000E+00  4.45903E+01  1.471E-01  2.000E+01  2.000E+04 -3.522E-02
   1   16   10     1    10    1.0324E+05 -7.7241E+02   1.0401E+05  0.000E+00  0.000E+00  0.000E+00  4.41137E+01  1.478E-01  2.000E+01  2.000E+04 -3.862E-02
   1   16   11     1    11    1.0401E+05 -8.3201E+02   1.0485E+05  0.000E+00  0.000E+00  0.000E+00  4.36371E+01  1.485E-01  2.000E+01  2.000E+04 -4.160E-02
   1   16   12     1    12    1.0485E+05 -1.4661E+03   1.0631E+05  0.000E+00  0.000E+00  0.000E+00  4.31608E+01  1.494E-01  2.000E+01  2.000E+04 -7.330E-02
   1   15   13     1    13    1.0631E+05 -1.3002E+03   1.0761E+05  0.000E+00  0.000E+00  0.000E+00  4.26847E+01  1.506E-01  2.000E+01  2.000E+04 -6.501E-02
   1   14   14     1    14    1.0761E+05 -1.3992E+03   1.0901E+05  0.000E+00  0.000E+00  0.000E+00  4.22086E+01  1.518E-01  2.000E+01  2.000E+04 -6.996E-02
   1   13   15     1    15    1.0901E+05 -1.4235E+03   1.1043E+05  0.000E+00  0.000E+00  0.000E+00  4.17325E+01  1.529E-01  2.000E+01  2.000E+04 -7.117E-02
   1   12   16     1    16    1.1043E+05 -1.3655E+03   1.1180E+05  0.000E+00  0.000E+00  0.000E+00  4.12564E+01  1.541E-01  2.000E+01  2.000E+04 -6.827E-02
   1   12   17     1    17    1.1180E+05 -9.7707E+02   1.1278E+05  0.000E+00  0.000E+00  0.000E+00  4.07801E+01  1.551E-01  2.000E+01  2.000E+04 -4.885E-02
   1   12   18     1    18    1.1278E+05 -1.0662E+03   1.1384E+05  0.000E+00  0.000E+00  0.000E+00  4.03036E+01  1.559E-01  2.000E+01  2.000E+04 -5.331E-02
   1   12   19     1    19    1.1384E+05 -1.5811E+03   1.1542E+05  0.000E+00  0.000E+00  0.000E+00  3.98275E+01  1.570E-01  2.000E+01  2.000E+04 -7.906E-02
   1   13   20     1    20    1.1542E+05 -1.4746E+03   1.1690E+05  0.000E+00  0.000E+00  0.000E+00  3.93514E+01  1.583E-01  2.000E+01  2.000E+04 -7.373E-02
   1   14   21     1    21    1.1690E+05 -1.4179E+03   1.1832E+05  0.000E+00  0.000E+00  0.000E+00  3.88753E+01  1.594E-01  2.000E+01  2.000E+04 -7.090E-02
   1   14   22     1    22    1.1832E+05  4.8708E+03   1.1345E+05  0.000E+00  0.000E+00  0.000E+00  3.83967E+01  1.580E-01  2.000E+01  2.000E+04  2.435E-01
   1    9   30     2     1    5.0000E+04  1.3422E+02   4.9866E+04  0.000E+00  0.000E+00  0.000E+00  4.02408E+01  1.158E-01  2.000E+01  2.000E+04  6.711E-03
   1    9   29     2     2    4.9866E+04 -2.1456E+02   5.0080E+04  0.000E+00  0.000E+00  0.000E+00  3.99908E+01  1.158E-01  2.000E+01  2.000E+04 -1.073E-02
   1    9   28     2     3    5.0080E+04 -5.7641E+02   5.0657E+04  0.000E+00  0.000E+00  0.000E+00  3.97414E+01  1.164E-01  2.000E+01  2.000E+04 -2.882E-02
   1    9   27     2     4    5.0657E+04 -1.8682E+03   5.2525E+04  0.000E+00  0.000E+00  0.000E+00  3.94931E+01  1.181E-01  2.000E+01  2.000E+04 -9.341E-02
   1   10   26     2     5    5.2525E+04 -8.0500E+02   5.3330E+04  0.000E+00  0.000E+00  0.000E+00  3.92449E+01  1.199E-01  2.000E+01  2.000E+04 -4.025E-02
   1   11   25     2     6    5.3330E+04 -7.1055E+02   5.4041E+04  0.000E+00  0.000E+00  0.000E+00  3.89959E+01  1.209E-01  2.000E+01  2.000E+04 -3.553E-02
   1   12   24     2     7    5.4041E+04 -1.0503E+03   5.5091E+04  0.000E+00  0.000E+00  0.000E+00  3.87471E+01  1.221E-01  2.000E+01  2.000E+04 -5.252E-02
   1   13   23     2     8    5.5091E+04 -2.0775E+02   5.5299E+04  0.000E+00  0.000E+00  0.000E+00  3.84979E+01  1.229E-01  2.000E+01  2.000E+04 -1.039E-02
   1   14   22     2     9    5.5299E+04  1.8740E+03   5.3425E+04  0.000E+00  0.000E+00  0.000E+00  3.82468E+01  1.218E-01  2.000E+01  2.000E+04  9.370E-02
   1   14   22     3     1    1.6687E+05 -8.6369E+03   1.7551E+05  0.000E+00  0.000E+00  0.000E+00  3.77213E+01  1.657E-01  2.000E+01  2.000E+04 -4.318E-01
   1   15   23     3     2    1.7551E+05 -4.9723E+02   1.7600E+05  0.000E+00  0.000E+00  0.000E+00  3.68350E+01  1.684E-01  2.000E+01  2.000E+04 -2.486E-02
   1   15   24     3     3    1.7600E+05 -2.4099E+02   1.7625E+05  0.000E+00  0.000E+00  0.000E+00  3.59464E+01  1.686E-01  2.000E+01  2.000E+04 -1.205E-02
   1   15   25     3     4    1.7625E+05 -2.0733E+02   1.7645E+05  0.000E+00  0.000E+00  0.000E+00  3.50576E+01  1.687E-01  2.000E+01  2.000E+04 -1.037E-02
   1   15   26     3     5    1.7645E+05 -6.0982E+01   1.7651E+05  0.000E+00  0.000E+00  0.000E+00  3.41688E+01  1.688E-01  2.000E+01  2.000E+04 -3.049E-03
   1   16   27     3     6    1.7651E+05  1.5569E+02   1.7636E+05  0.000E+00  0.000E+00  0.000E+00  3.32799E+01  1.688E-01  2.000E+01  2.000E+04  7.785E-03
   1   17   28     3     7    1.7636E+05  2.5120E+03   1.7385E+05  0.000E+00  0.000E+00  0.000E+00  3.23902E+01  1.680E-01  2.000E+01  2.000E+04  1.256E-01
   1   18   29     3     8    1.7385E+05  1.9372E+03   1.7191E+05  0.000E+00  0.000E+00  0.000E+00  3.15000E+01  1.667E-01  2.000E+01  2.000E+04  9.686E-02
   1   18   30     3     9    1.7191E+05 -6.8074E+02   1.7259E+05  0.000E+00  0.000E+00  0.000E+00  3.06108E+01  1.663E-01  2.000E+01  2.000E+04 -3.404E-02



1
              HEAD IN LAYER   1 AT END OF TIME STEP   1 IN STRESS PERIOD   12
  ---------------------------------------------------------------------------

          1      2      3      4      5      6      7      8      9     10
         11     12     13     14     15     16     17     18     19     20
         21     22     23     24     25     26     27     28     29     30
 .........................................................................
   1  ****** ****** ****** ****** ****** ****** ****** ****** ****** ******
      ****** ****** ****** ****** ****** ****** ****** ****** ****** ******
      ****** ****** ****** ****** ****** ****** ****** ****** ****** ******
   2  ****** ****** ****** ****** ****** ****** ****** ****** ****** ******
      ****** ****** ****** ****** ****** ****** ****** ****** ****** ******
      ****** ****** ****** ****** ****** ****** ****** ****** ****** ******
   3  ****** ****** ****** ****** ****** ****** ****** ****** ****** ******
      ****** ****** ****** ****** ****** ****** ****** ****** ****** ******
      ****** ****** ****** ****** ****** ****** ****** ****** ****** ******
   4  ****** ****** ****** ****** ****** ****** ****** ****** ****** ******
      ****** ****** ****** ****** ****** ****** ****** ****** ****** ******
      ****** ****** ****** ****** ****** ****** ****** ****** ****** ******
   5  ****** ****** ****** ****** ****** ****** ****** ****** ****** ******
      ****** ****** ****** ****** ****** ****** ****** ****** ****** ******
      ****** ****** ****** ****** ****** ****** ****** ****** ****** ******
   6  ****** ****** ****** ****** ****** ****** ****** ****** ****** ******
      ****** ****** ****** ****** ****** ****** ****** ****** ****** ******
      ****** ****** ****** ****** ****** ****** ****** ****** ****** ******
   7  ****** ****** ****** ****** ****** ****** ****** ****** ****** ******
      ****** ****** ****** ****** ****** ****** ****** ****** ****** ******
      ****** ****** ****** ****** ****** ****** ****** ****** ****** ******
   8  ****** ****** ****** ****** ****** ****** ****** ****** ****** ******
      ****** ****** ****** ****** ****** ****** ****** ****** ****** ******
      ****** ****** ****** ****** ****** ****** ****** ****** ****** ******
   9  ****** ****** ****** ****** ****** ****** ****** ****** ****** ******
      ****** ****** ****** ****** ****** ****** ****** ****** ****** ******
      ****** ****** ****** ****** ****** ****** ****** ****** ****** ******
  10  ****** ****** ****** ****** ****** ****** ****** ****** ****** ******
      ****** ****** ****** ****** ****** ****** ****** ****** ****** ******
      ****** ****** ****** ****** ****** ****** ****** ****** ****** ******
  11  ****** ****** ****** ****** ****** ****** ****** ****** ****** ******
      ****** ****** ****** ****** ****** ****** ****** ****** ****** ******
      ****** ****** ****** ****** ****** ****** ****** ****** ****** ******
  12  ****** ****** ****** ****** ****** ****** ****** ****** ****** ******
      ****** ****** ****** ****** ****** ****** ****** ****** ****** ******
      ****** ****** ****** ****** ****** ****** ****** ****** ****** ******
  13  ****** ****** ****** ****** ****** ****** ****** ****** ****** ******
      ****** ****** ****** ****** ****** ****** ****** ****** ****** ******
      ****** ****** ****** ****** ****** ****** ****** ****** ****** ******
  14  ****** ****** ****** ****** ****** ****** ****** ****** ****** ******
      ****** ****** ****** ****** ****** ****** ****** ****** ****** ******
      ****** ****** ****** ****** ****** ****** ****** ****** ****** ******
  15  ****** ****** ****** ****** ****** ****** ****** ****** ****** ******
      ****** ****** ****** ****** ****** ****** ****** ****** ****** ******
      ****** ****** ****** ****** ****** ****** ****** ****** ****** ******
  16  ****** ****** ****** ****** ****** ****** ****** ****** ****** ******
      ****** ****** ****** ****** ****** ****** ****** ****** ****** ******
      ****** ****** ****** ****** ****** ****** ****** ****** ****** ******
  17  ****** ****** ****** ****** ****** ****** ****** ****** ****** ******
      ****** ****** ****** ****** ****** ****** ****** ****** ****** ******
      ****** ****** ****** ****** ****** ****** ****** ****** ****** ******
  18  ****** ****** ****** ****** ****** ****** ****** ****** ****** ******
      ****** ****** ****** ****** ****** ****** ****** ****** ****** ******
      ****** ****** ****** ****** ****** ****** ****** ****** ****** ******
  19  ****** ****** ****** ****** ****** ****** ****** ****** ****** ******
      ****** ****** ****** ****** ****** ****** ****** ****** ****** ******
      ****** ****** ****** ****** ****** ****** ****** ****** ****** ******
  20  ****** ****** ****** ****** ****** ****** ****** ****** ****** ******
      ****** ****** ****** ****** ****** ****** ****** ****** ****** ******
      ****** ****** ****** ****** ****** ****** ****** ****** ****** ******
  21  ****** ****** ****** ****** ****** ****** ****** ****** ****** ******
      ****** ****** ****** ****** ****** ****** ****** ****** ****** ******
      ****** ****** ****** ****** ****** ****** ****** ****** ****** ******
  22  ****** ****** ****** ****** ****** ****** ****** ****** ****** ******
      ****** ****** ****** ****** ****** ****** ****** ****** ****** ******
      ****** ****** ****** ****** ****** ****** ****** ****** ****** ******
  23  ****** ****** ****** ****** ****** ****** ****** ****** ****** ******
      ****** ****** ****** ****** ****** ****** ****** ****** ****** ******
      ****** ****** ****** ****** ****** ****** ****** ****** ****** ******
  24  ****** ****** ****** ****** ****** ****** ****** ****** ****** ******
      ****** ****** ****** ****** ****** ****** ****** ****** ****** ******
      ****** ****** ****** ****** ****** ****** ****** ****** ****** ******
  25  ****** ****** ****** ****** ****** ****** ****** ****** ****** ******
      ****** ****** ****** ****** ****** ****** ****** ****** ****** ******
      ****** ****** ****** ****** ****** ****** ****** ****** ****** ******

 HEAD WILL BE SAVED ON UNIT   51 AT END OF TIME STEP    1, STRESS PERIOD   12
1
  VOLUMETRIC BUDGET FOR ENTIRE MODEL AT END OF TIME STEP    1, STRESS PERIOD  12
  ------------------------------------------------------------------------------

     CUMULATIVE VOLUMES      L**3       RATES FOR THIS TIME STEP      L**3/T
     ------------------                 ------------------------

           IN:                                      IN:
           ---                                      ---
             STORAGE =    35959951.4066               STORAGE =          13.0462
       CONSTANT HEAD =    31744242.8476         CONSTANT HEAD =       34190.3244
               WELLS =           0.0000                 WELLS =           0.0000
            RECHARGE =    26413200.0000              RECHARGE =       27600.0000
      STREAM LEAKAGE =    11927644.8712        STREAM LEAKAGE =       12787.2619

            TOTAL IN =   106045039.1254              TOTAL IN =       74590.6325

          OUT:                                     OUT:
          ----                                     ----
             STORAGE =     2617450.8246               STORAGE =        2995.0328
       CONSTANT HEAD =           0.0000         CONSTANT HEAD =           0.0000
               WELLS =    39658974.4419                 WELLS =       36218.2415
            RECHARGE =           0.0000              RECHARGE =           0.0000
      STREAM LEAKAGE =    63768615.8894        STREAM LEAKAGE =       35377.3573

           TOTAL OUT =   106045041.1559             TOTAL OUT =       74590.6315

            IN - OUT =          -2.0304              IN - OUT =       9.4874E-04

 PERCENT DISCREPANCY =          -0.00     PERCENT DISCREPANCY =           0.00






         TIME SUMMARY AT END OF TIME STEP    1 IN STRESS PERIOD   12
                    SECONDS     MINUTES      HOURS       DAYS        YEARS
                    -----------------------------------------------------------
   TIME STEP LENGTH 7.86240E+06 1.31040E+05  2184.0      91.000     0.24914    
 STRESS PERIOD TIME 7.86240E+06 1.31040E+05  2184.0      91.000     0.24914    
         TOTAL TIME 9.46080E+07 1.57680E+06  26280.      1095.0      2.9979    
1

 Run end date and time (yyyy/mm/dd hh:mm:ss): 2019/06/07 22:42:50
 Elapsed run time:  0.087 Seconds

