                                  MODFLOW-2005     
      U.S. GEOLOGICAL SURVEY MODULAR FINITE-DIFFERENCE GROUND-WATER FLOW MODEL
                            VERSION 1.11.00 8/8/2013

 LIST FILE: supply2.lst
                         UNIT   10

 OPENING ..\data\supply.dis
 FILE TYPE:DIS   UNIT   11   STATUS:OLD    
 FORMAT:FORMATTED              ACCESS:SEQUENTIAL          

 OPENING ..\data\supply.ba6
 FILE TYPE:BAS6   UNIT   12   STATUS:OLD    
 FORMAT:FORMATTED              ACCESS:SEQUENTIAL          

 OPENING ..\data\supply.bc6
 FILE TYPE:BCF6   UNIT   13   STATUS:OLD    
 FORMAT:FORMATTED              ACCESS:SEQUENTIAL          

 OPENING ..\data\supply.rch
 FILE TYPE:RCH   UNIT   15   STATUS:OLD    
 FORMAT:FORMATTED              ACCESS:SEQUENTIAL          

 OPENING ..\data\supply2.sfr
 FILE TYPE:SFR   UNIT   16   STATUS:OLD    
 FORMAT:FORMATTED              ACCESS:SEQUENTIAL          

 OPENING ..\data\supply.oc
 FILE TYPE:OC   UNIT   17   STATUS:OLD    
 FORMAT:FORMATTED              ACCESS:SEQUENTIAL          

 OPENING ..\data\supply.pcg
 FILE TYPE:PCG   UNIT   18   STATUS:OLD    
 FORMAT:FORMATTED              ACCESS:SEQUENTIAL          

 OPENING supply2.wel
 FILE TYPE:WEL   UNIT   19   STATUS:OLD    
 FORMAT:FORMATTED              ACCESS:SEQUENTIAL          

 OPENING supply2sf.bin
 FILE TYPE:DATA(BINARY)   UNIT   50   STATUS:UNKNOWN
 FORMAT:BINARY                 ACCESS:SEQUENTIAL          

 OPENING supply2hd.bin
 FILE TYPE:DATA(BINARY)   UNIT   51   STATUS:UNKNOWN
 FORMAT:BINARY                 ACCESS:SEQUENTIAL          

 BAS -- BASIC PACKAGE, VERSION 7, 5/2/2005 INPUT READ FROM UNIT   12
 
 MODFLOW was compiled using uniform precision
 Precision of REAL and DOUBLE PRECISION variables:          15

 DISCRETIZATION INPUT DATA READ FROM UNIT   11
    1 LAYERS        25 ROWS        30 COLUMNS
   12 STRESS PERIOD(S) IN SIMULATION
 MODEL TIME UNIT IS DAYS
 MODEL LENGTH UNIT IS UNDEFINED
  Confining bed flag for each layer:
   0

                     DELR =   200.000    

                     DELC =   200.000    

 TOP ELEVATION OF LAYER 1 =  100.0000    

   MODEL LAYER BOTTOM EL. =   0.00000     FOR LAYER   1


 STRESS PERIOD     LENGTH       TIME STEPS     MULTIPLIER FOR DELT    SS FLAG
 ----------------------------------------------------------------------------
        1         92.00000          1                    1.500         TR
        2         91.00000          1                    1.500         TR
        3         91.00000          1                    1.500         TR
        4         91.00000          1                    1.500         TR
        5         92.00000          1                    1.500         TR
        6         91.00000          1                    1.500         TR
        7         91.00000          1                    1.500         TR
        8         91.00000          1                    1.500         TR
        9         92.00000          1                    1.500         TR
       10         91.00000          1                    1.500         TR
       11         91.00000          1                    1.500         TR
       12         91.00000          1                    1.500         TR

 TRANSIENT SIMULATION



 
 #MODOFC transient water supply sample problem                                   
 #                                                                               
 THE FREE FORMAT OPTION HAS BEEN SELECTED



                     BOUNDARY ARRAY FOR LAYER   1
 READING ON UNIT   12 WITH FORMAT: (20I4)              

 AQUIFER HEAD WILL BE SET TO   0.0000     AT ALL NO-FLOW NODES (IBOUND=0).



                       INITIAL HEAD FOR LAYER   1
 READING ON UNIT   12 WITH FORMAT: (10F13.0)           

 OUTPUT CONTROL IS SPECIFIED ONLY AT TIME STEPS FOR WHICH OUTPUT IS DESIRED
 COMPACT CELL-BY-CELL BUDGET FILES WILL BE WRITTEN
 HEAD PRINT FORMAT CODE IS  18    DRAWDOWN PRINT FORMAT CODE IS   0
 HEADS WILL BE SAVED ON UNIT   51    DRAWDOWNS WILL BE SAVED ON UNIT    0

 BCF -- BLOCK-CENTERED FLOW PACKAGE, VERSION 7, 5/2/2005
         INPUT READ FROM UNIT 13
 TRANSIENT SIMULATION
 HEAD AT CELLS THAT CONVERT TO DRY=   0.0000    
 WETTING CAPABILITY IS NOT ACTIVE
      LAYER  LAYER-TYPE CODE     INTERBLOCK T
      --------------------------------------------
         1            0          0 -- HARMONIC    

 COLUMN TO ROW ANISOTROPY =  1.000000    

     PRIMARY STORAGE COEF =  5.000000E-02 FOR LAYER   1

     TRANSMIS. ALONG ROWS =   5000.00     FOR LAYER   1

 WEL -- WELL PACKAGE, VERSION 7, 5/2/2005 INPUT READ FROM UNIT   19
 # Well package input file written by MMProc
 No named parameters
 MAXIMUM OF      7 ACTIVE WELLS AT ONE TIME


     0 Well parameters

 RCH -- RECHARGE PACKAGE, VERSION 7, 5/2/2005 INPUT READ FROM UNIT   15
 No named parameters
 OPTION 1 -- RECHARGE TO TOP LAYER


     0 Recharge parameters

 SFR7 -- STREAMFLOW ROUTING PACKAGE, VERSION 1.0.7, 2013-01-15
         INPUT READ FROM UNIT  16
 #  Supply2 test problem for GWM-VI
 #  The eighth entry in the first data line is ISTCB2 -
 #    Setting this to a negative number indicates that
 #    streamflows out of the reach will be saved to a
 #    binary file.  The absolute value of ISTCB2 is the
 #    unit to which unformatted flows will be written.
 #
 No named parameters
 Segment information will not be 
 read by reach
 No named parameters
 No specifed inflow files


 NUMBER OF STREAM REACHES IS   40

 NUMBER OF STREAM SEGMENTS IS    3

 NUMBER OF STREAM PARAMETERS IS    0

 NUMBER OF STREAM SEGMENTS DEFINED USING PARAMETERS IS              0

 MAXIMUM ERROR FOR STREAM LEAKAGE RATES IS  1.00E-04

 CONSTANT FOR MANNINGS EQUATION IS  1.2839E+05





   STREAM NETWORK DESCRIPTION: 

   LAYER    ROW    COL   SEGMENT   REACH     LENGTH
                          NUMBER   NUMBER    IN CELL        
   --------------------------------------------------
      1     13      1       1        1    2.0000E+02
      1     13      2       1        2    2.0000E+02
      1     14      3       1        3    2.0000E+02
      1     15      4       1        4    2.0000E+02
      1     16      5       1        5    2.0000E+02
      1     16      6       1        6    2.0000E+02
      1     16      7       1        7    2.0000E+02
      1     16      8       1        8    2.0000E+02
      1     16      9       1        9    2.0000E+02
      1     16     10       1       10    2.0000E+02
      1     16     11       1       11    2.0000E+02
      1     16     12       1       12    2.0000E+02
      1     15     13       1       13    2.0000E+02
      1     14     14       1       14    2.0000E+02
      1     13     15       1       15    2.0000E+02
      1     12     16       1       16    2.0000E+02
      1     12     17       1       17    2.0000E+02
      1     12     18       1       18    2.0000E+02
      1     12     19       1       19    2.0000E+02
      1     13     20       1       20    2.0000E+02
      1     14     21       1       21    2.0000E+02
      1     14     22       1       22    2.0000E+02
      1      9     30       2        1    2.0000E+02
      1      9     29       2        2    2.0000E+02
      1      9     28       2        3    2.0000E+02
      1      9     27       2        4    2.0000E+02
      1     10     26       2        5    2.0000E+02
      1     11     25       2        6    2.0000E+02
      1     12     24       2        7    2.0000E+02
      1     13     23       2        8    2.0000E+02
      1     14     22       2        9    2.0000E+02
      1     14     22       3        1    2.0000E+02
      1     15     23       3        2    2.0000E+02
      1     15     24       3        3    2.0000E+02
      1     15     25       3        4    2.0000E+02
      1     15     26       3        5    2.0000E+02
      1     16     27       3        6    2.0000E+02
      1     17     28       3        7    2.0000E+02
      1     18     29       3        8    2.0000E+02
      1     18     30       3        9    2.0000E+02




 PCG -- CONJUGATE-GRADIENT SOLUTION PACKAGE, VERSION 7, 5/2/2005
 MAXIMUM OF    500 CALLS OF SOLUTION ROUTINE
 MAXIMUM OF      5 INTERNAL ITERATIONS PER CALL TO SOLUTION ROUTINE
 MATRIX PRECONDITIONING TYPE :    1



                                    SOLUTION BY THE CONJUGATE-GRADIENT METHOD
                                   -------------------------------------------
                    MAXIMUM NUMBER OF CALLS TO PCG ROUTINE =      500
                        MAXIMUM ITERATIONS PER CALL TO PCG =        5
                               MATRIX PRECONDITIONING TYPE =        1
        RELAXATION FACTOR (ONLY USED WITH PRECOND. TYPE 1) =    0.10000E+01
 PARAMETER OF POLYNOMIAL PRECOND. = 2 (2) OR IS CALCULATED :        0
                         HEAD CHANGE CRITERION FOR CLOSURE =    0.10000E-05
                     RESIDUAL CHANGE CRITERION FOR CLOSURE =    0.10000E+01
            PCG HEAD AND RESIDUAL CHANGE PRINTOUT INTERVAL =        1
     PRINTING FROM SOLVER IS LIMITED(1) OR SUPPRESSED (>1) =        1
                            STEADY-STATE DAMPING PARAMETER =    0.10000E+01
                               TRANSIENT DAMPING PARAMETER =    0.10000E+01
1
                            STRESS PERIOD NO.    1, LENGTH =   92.00000    
                            -----------------------------------------------

                              NUMBER OF TIME STEPS =     1

                               MULTIPLIER FOR DELT =     1.500

                            INITIAL TIME STEP SIZE =   92.00000    

 WELL NO.  LAYER   ROW   COL   STRESS RATE         
 --------------------------------------------------
      1      1     22     22     -0.3000E+05
      2      1      2     29     -0.5000E+05
      3      1      5     21     -0.5000E+05

      3 WELLS

                 RECHARGE =  5.000000E-04



 CLASSIFICATION & COUNT OF STREAM SEGMENTS BASED ON SOURCE OF INFLOW:

                HEADWATER     DIVERSION     RECEIVES TRIBUTARY FLOW
                ---------     ---------     -----------------------
                     2              0               1



                    INPUT DATA FOR EACH STREAM SEGMENT
 ---------------------------------------------------------------------------------------------

 SEGMENT    SEG.     INFLOW   OVERLAND   STREAM    STREAM   ICALC  OUTFLOW  DIVERSION PRIORITY
    NO.    LENGTH     RATE     RUNOFF      ET       PPT.    METH.  TO SEG.  FROM SEG.    NO.

      1  4.400E+03 1.000E+05 0.000E+00 0.000E+00 0.000E+00    1        3        0        0
      2  1.800E+03 5.000E+04 0.000E+00 0.000E+00 0.000E+00    1        3        0        0
      3  1.800E+03 0.000E+00 0.000E+00 0.000E+00 0.000E+00    1        0        0        0


         STREAMBED PROPERTIES AND STREAM DIMENSIONS

 SEGMENT     BED HYD. COND.      BED THICKNESS     ELEV.-TOP OF BED     WIDTH OF STREAM     DEPTH OF STREAM    STREAM ROUGHNESS
    No.     UPPER     LOWER     UPPER     LOWER     UPPER     LOWER     UPPER     LOWER     UPPER     LOWER   CHANNEL      BANK

     1  5.000E+00 5.000E+00 1.000E+00 1.000E+00 4.850E+01 3.800E+01 2.000E+01 2.000E+01                     5.000E-02
     2  5.000E+00 5.000E+00 1.000E+00 1.000E+00 4.025E+01 3.800E+01 2.000E+01 2.000E+01                     5.000E-02
     3  5.000E+00 5.000E+00 1.000E+00 1.000E+00 3.800E+01 3.000E+01 2.000E+01 2.000E+01                     5.000E-02



 
 SOLVING FOR HEAD 


     8 CALLS TO PCG ROUTINE FOR TIME STEP   1 IN STRESS PERIOD    1
    32 TOTAL ITERATIONS

 OUTPUT CONTROL FOR STRESS PERIOD    1   TIME STEP    1
    SAVE BUDGET
    SAVE HEAD FOR ALL LAYERS
    PRINT HEAD FOR ALL LAYERS
 UBDSV2 SAVING "STREAMFLOW OUT  " ON UNIT  50 AT TIME STEP  1, STRESS PERIOD   1



 STREAM LISTING     PERIOD      1   STEP        1

 LAYER ROW COL. STREAM  RCH.  FLOW INTO     FLOW TO   FLOW OUT OF   OVRLND.     DIRECT     STREAM       STREAM     STREAM     STREAM   STREAMBED  STREAMBED
                SEG.NO.  NO.  STRM. RCH.    AQUIFER    STRM. RCH.    RUNOFF     PRECIP       ET          HEAD       DEPTH      WIDTH   CONDCTNC.   GRADIENT

   1   13    1     1     1    1.0000E+05 -3.1641E+04   1.3164E+05  0.000E+00  0.000E+00  0.000E+00  4.84193E+01  1.580E-01  2.000E+01  2.000E+04 -1.582E+00
   1   13    2     1     2    1.3164E+05 -4.2089E+04   1.7373E+05  0.000E+00  0.000E+00  0.000E+00  4.79706E+01  1.865E-01  2.000E+01  2.000E+04 -2.104E+00
   1   14    3     1     3    1.7373E+05 -3.7635E+04   2.1136E+05  0.000E+00  0.000E+00  0.000E+00  4.75211E+01  2.143E-01  2.000E+01  2.000E+04 -1.882E+00
   1   15    4     1     4    2.1136E+05 -3.6695E+04   2.4806E+05  0.000E+00  0.000E+00  0.000E+00  4.70678E+01  2.383E-01  2.000E+01  2.000E+04 -1.835E+00
   1   16    5     1     5    2.4806E+05 -3.7645E+04   2.8570E+05  0.000E+00  0.000E+00  0.000E+00  4.66130E+01  2.607E-01  2.000E+01  2.000E+04 -1.882E+00
   1   16    6     1     6    2.8570E+05 -3.2911E+04   3.1862E+05  0.000E+00  0.000E+00  0.000E+00  4.61558E+01  2.808E-01  2.000E+01  2.000E+04 -1.646E+00
   1   16    7     1     7    3.1862E+05 -3.2716E+04   3.5133E+05  0.000E+00  0.000E+00  0.000E+00  4.56965E+01  2.988E-01  2.000E+01  2.000E+04 -1.636E+00
   1   16    8     1     8    3.5133E+05 -3.2917E+04   3.8425E+05  0.000E+00  0.000E+00  0.000E+00  4.52365E+01  3.160E-01  2.000E+01  2.000E+04 -1.646E+00
   1   16    9     1     9    3.8425E+05 -3.2999E+04   4.1725E+05  0.000E+00  0.000E+00  0.000E+00  4.47759E+01  3.327E-01  2.000E+01  2.000E+04 -1.650E+00
   1   16   10     1    10    4.1725E+05 -3.3015E+04   4.5026E+05  0.000E+00  0.000E+00  0.000E+00  4.43148E+01  3.489E-01  2.000E+01  2.000E+04 -1.651E+00
   1   16   11     1    11    4.5026E+05 -3.3643E+04   4.8390E+05  0.000E+00  0.000E+00  0.000E+00  4.38534E+01  3.647E-01  2.000E+01  2.000E+04 -1.682E+00
   1   16   12     1    12    4.8390E+05 -3.9629E+04   5.2353E+05  0.000E+00  0.000E+00  0.000E+00  4.33930E+01  3.816E-01  2.000E+01  2.000E+04 -1.981E+00
   1   15   13     1    13    5.2353E+05 -3.8916E+04   5.6245E+05  0.000E+00  0.000E+00  0.000E+00  4.29333E+01  3.992E-01  2.000E+01  2.000E+04 -1.946E+00
   1   14   14     1    14    5.6245E+05 -3.9624E+04   6.0207E+05  0.000E+00  0.000E+00  0.000E+00  4.24731E+01  4.163E-01  2.000E+01  2.000E+04 -1.981E+00
   1   13   15     1    15    6.0207E+05 -4.1630E+04   6.4370E+05  0.000E+00  0.000E+00  0.000E+00  4.20130E+01  4.335E-01  2.000E+01  2.000E+04 -2.082E+00
   1   12   16     1    16    6.4370E+05 -4.6973E+04   6.9068E+05  0.000E+00  0.000E+00  0.000E+00  4.15540E+01  4.517E-01  2.000E+01  2.000E+04 -2.349E+00
   1   12   17     1    17    6.9068E+05 -3.6680E+04   7.2736E+05  0.000E+00  0.000E+00  0.000E+00  4.10935E+01  4.685E-01  2.000E+01  2.000E+04 -1.834E+00
   1   12   18     1    18    7.2736E+05 -3.4729E+04   7.6209E+05  0.000E+00  0.000E+00  0.000E+00  4.06303E+01  4.825E-01  2.000E+01  2.000E+04 -1.736E+00
   1   12   19     1    19    7.6209E+05 -3.8691E+04   8.0078E+05  0.000E+00  0.000E+00  0.000E+00  4.01671E+01  4.967E-01  2.000E+01  2.000E+04 -1.935E+00
   1   13   20     1    20    8.0078E+05 -2.9404E+04   8.3018E+05  0.000E+00  0.000E+00  0.000E+00  3.97027E+01  5.095E-01  2.000E+01  2.000E+04 -1.470E+00
   1   14   21     1    21    8.3018E+05 -2.2082E+04   8.5226E+05  0.000E+00  0.000E+00  0.000E+00  3.92350E+01  5.191E-01  2.000E+01  2.000E+04 -1.104E+00
   1   14   22     1    22    8.5226E+05 -2.5529E+03   8.5482E+05  0.000E+00  0.000E+00  0.000E+00  3.87623E+01  5.237E-01  2.000E+01  2.000E+04 -1.276E-01
   1    9   30     2     1    5.0000E+04 -2.8154E+04   7.8154E+04  0.000E+00  0.000E+00  0.000E+00  4.02595E+01  1.345E-01  2.000E+01  2.000E+04 -1.408E+00
   1    9   29     2     2    7.8154E+04 -3.0559E+04   1.0871E+05  0.000E+00  0.000E+00  0.000E+00  4.00436E+01  1.686E-01  2.000E+01  2.000E+04 -1.528E+00
   1    9   28     2     3    1.0871E+05 -3.4716E+04   1.4343E+05  0.000E+00  0.000E+00  0.000E+00  3.98268E+01  2.018E-01  2.000E+01  2.000E+04 -1.736E+00
   1    9   27     2     4    1.4343E+05 -4.8615E+04   1.9204E+05  0.000E+00  0.000E+00  0.000E+00  3.96145E+01  2.395E-01  2.000E+01  2.000E+04 -2.431E+00
   1   10   26     2     5    1.9204E+05 -3.5468E+04   2.2751E+05  0.000E+00  0.000E+00  0.000E+00  3.93989E+01  2.739E-01  2.000E+01  2.000E+04 -1.773E+00
   1   11   25     2     6    2.2751E+05 -2.7396E+04   2.5491E+05  0.000E+00  0.000E+00  0.000E+00  3.91729E+01  2.979E-01  2.000E+01  2.000E+04 -1.370E+00
   1   12   24     2     7    2.5491E+05 -2.0815E+04   2.7572E+05  0.000E+00  0.000E+00  0.000E+00  3.89404E+01  3.154E-01  2.000E+01  2.000E+04 -1.041E+00
   1   13   23     2     8    2.7572E+05 -1.5215E+04   2.9094E+05  0.000E+00  0.000E+00  0.000E+00  3.87031E+01  3.281E-01  2.000E+01  2.000E+04 -7.607E-01
   1   14   22     2     9    2.9094E+05 -8.5740E+03   2.9951E+05  0.000E+00  0.000E+00  0.000E+00  3.84613E+01  3.363E-01  2.000E+01  2.000E+04 -4.287E-01
   1   14   22     3     1    1.1543E+06 -1.6227E+04   1.1706E+06  0.000E+00  0.000E+00  0.000E+00  3.80786E+01  5.230E-01  2.000E+01  2.000E+04 -8.114E-01
   1   15   23     3     2    1.1706E+06 -2.5812E+04   1.1964E+06  0.000E+00  0.000E+00  0.000E+00  3.71953E+01  5.287E-01  2.000E+01  2.000E+04 -1.291E+00
   1   15   24     3     3    1.1964E+06 -2.1692E+04   1.2181E+06  0.000E+00  0.000E+00  0.000E+00  3.63128E+01  5.350E-01  2.000E+01  2.000E+04 -1.085E+00
   1   15   25     3     4    1.2181E+06 -2.1542E+04   1.2396E+06  0.000E+00  0.000E+00  0.000E+00  3.54296E+01  5.407E-01  2.000E+01  2.000E+04 -1.077E+00
   1   15   26     3     5    1.2396E+06 -2.5054E+04   1.2647E+06  0.000E+00  0.000E+00  0.000E+00  3.45469E+01  5.469E-01  2.000E+01  2.000E+04 -1.253E+00
   1   16   27     3     6    1.2647E+06 -3.2604E+04   1.2973E+06  0.000E+00  0.000E+00  0.000E+00  3.36655E+01  5.544E-01  2.000E+01  2.000E+04 -1.630E+00
   1   17   28     3     7    1.2973E+06 -3.9581E+04   1.3368E+06  0.000E+00  0.000E+00  0.000E+00  3.27859E+01  5.637E-01  2.000E+01  2.000E+04 -1.979E+00
   1   18   29     3     8    1.3368E+06 -5.0051E+04   1.3869E+06  0.000E+00  0.000E+00  0.000E+00  3.19085E+01  5.751E-01  2.000E+01  2.000E+04 -2.503E+00
   1   18   30     3     9    1.3869E+06 -4.6289E+04   1.4332E+06  0.000E+00  0.000E+00  0.000E+00  3.10317E+01  5.873E-01  2.000E+01  2.000E+04 -2.314E+00



1
              HEAD IN LAYER   1 AT END OF TIME STEP   1 IN STRESS PERIOD    1
  ---------------------------------------------------------------------------

          1      2      3      4      5      6      7      8      9     10
         11     12     13     14     15     16     17     18     19     20
         21     22     23     24     25     26     27     28     29     30
 .........................................................................
   1  ****** ****** ****** ****** ****** ****** ****** ****** ****** ******
      ****** ****** ****** ****** ****** ****** ****** ****** ****** ******
      ****** ****** ****** ****** ****** ****** ****** ****** ****** ******
   2  ****** ****** ****** ****** ****** ****** ****** ****** ****** ******
      ****** ****** ****** ****** ****** ****** ****** ****** ****** ******
      ****** ****** ****** ****** ****** ****** ****** ****** ****** ******
   3  ****** ****** ****** ****** ****** ****** ****** ****** ****** ******
      ****** ****** ****** ****** ****** ****** ****** ****** ****** ******
      ****** ****** ****** ****** ****** ****** ****** ****** ****** ******
   4  ****** ****** ****** ****** ****** ****** ****** ****** ****** ******
      ****** ****** ****** ****** ****** ****** ****** ****** ****** ******
      ****** ****** ****** ****** ****** ****** ****** ****** ****** ******
   5  ****** ****** ****** ****** ****** ****** ****** ****** ****** ******
      ****** ****** ****** ****** ****** ****** ****** ****** ****** ******
      ****** ****** ****** ****** ****** ****** ****** ****** ****** ******
   6  ****** ****** ****** ****** ****** ****** ****** ****** ****** ******
      ****** ****** ****** ****** ****** ****** ****** ****** ****** ******
      ****** ****** ****** ****** ****** ****** ****** ****** ****** ******
   7  ****** ****** ****** ****** ****** ****** ****** ****** ****** ******
      ****** ****** ****** ****** ****** ****** ****** ****** ****** ******
      ****** ****** ****** ****** ****** ****** ****** ****** ****** ******
   8  ****** ****** ****** ****** ****** ****** ****** ****** ****** ******
      ****** ****** ****** ****** ****** ****** ****** ****** ****** ******
      ****** ****** ****** ****** ****** ****** ****** ****** ****** ******
   9  ****** ****** ****** ****** ****** ****** ****** ****** ****** ******
      ****** ****** ****** ****** ****** ****** ****** ****** ****** ******
      ****** ****** ****** ****** ****** ****** ****** ****** ****** ******
  10  ****** ****** ****** ****** ****** ****** ****** ****** ****** ******
      ****** ****** ****** ****** ****** ****** ****** ****** ****** ******
      ****** ****** ****** ****** ****** ****** ****** ****** ****** ******
  11  ****** ****** ****** ****** ****** ****** ****** ****** ****** ******
      ****** ****** ****** ****** ****** ****** ****** ****** ****** ******
      ****** ****** ****** ****** ****** ****** ****** ****** ****** ******
  12  ****** ****** ****** ****** ****** ****** ****** ****** ****** ******
      ****** ****** ****** ****** ****** ****** ****** ****** ****** ******
      ****** ****** ****** ****** ****** ****** ****** ****** ****** ******
  13  ****** ****** ****** ****** ****** ****** ****** ****** ****** ******
      ****** ****** ****** ****** ****** ****** ****** ****** ****** ******
      ****** ****** ****** ****** ****** ****** ****** ****** ****** ******
  14  ****** ****** ****** ****** ****** ****** ****** ****** ****** ******
      ****** ****** ****** ****** ****** ****** ****** ****** ****** ******
      ****** ****** ****** ****** ****** ****** ****** ****** ****** ******
  15  ****** ****** ****** ****** ****** ****** ****** ****** ****** ******
      ****** ****** ****** ****** ****** ****** ****** ****** ****** ******
      ****** ****** ****** ****** ****** ****** ****** ****** ****** ******
  16  ****** ****** ****** ****** ****** ****** ****** ****** ****** ******
      ****** ****** ****** ****** ****** ****** ****** ****** ****** ******
      ****** ****** ****** ****** ****** ****** ****** ****** ****** ******
  17  ****** ****** ****** ****** ****** ****** ****** ****** ****** ******
      ****** ****** ****** ****** ****** ****** ****** ****** ****** ******
      ****** ****** ****** ****** ****** ****** ****** ****** ****** ******
  18  ****** ****** ****** ****** ****** ****** ****** ****** ****** ******
      ****** ****** ****** ****** ****** ****** ****** ****** ****** ******
      ****** ****** ****** ****** ****** ****** ****** ****** ****** ******
  19  ****** ****** ****** ****** ****** ****** ****** ****** ****** ******
      ****** ****** ****** ****** ****** ****** ****** ****** ****** ******
      ****** ****** ****** ****** ****** ****** ****** ****** ****** ******
  20  ****** ****** ****** ****** ****** ****** ****** ****** ****** ******
      ****** ****** ****** ****** ****** ****** ****** ****** ****** ******
      ****** ****** ****** ****** ****** ****** ****** ****** ****** ******
  21  ****** ****** ****** ****** ****** ****** ****** ****** ****** ******
      ****** ****** ****** ****** ****** ****** ****** ****** ****** ******
      ****** ****** ****** ****** ****** ****** ****** ****** ****** ******
  22  ****** ****** ****** ****** ****** ****** ****** ****** ****** ******
      ****** ****** ****** ****** ****** ****** ****** ****** ****** ******
      ****** ****** ****** ****** ****** ****** ****** ****** ****** ******
  23  ****** ****** ****** ****** ****** ****** ****** ****** ****** ******
      ****** ****** ****** ****** ****** ****** ****** ****** ****** ******
      ****** ****** ****** ****** ****** ****** ****** ****** ****** ******
  24  ****** ****** ****** ****** ****** ****** ****** ****** ****** ******
      ****** ****** ****** ****** ****** ****** ****** ****** ****** ******
      ****** ****** ****** ****** ****** ****** ****** ****** ****** ******
  25  ****** ****** ****** ****** ****** ****** ****** ****** ****** ******
      ****** ****** ****** ****** ****** ****** ****** ****** ****** ******
      ****** ****** ****** ****** ****** ****** ****** ****** ****** ******

 HEAD WILL BE SAVED ON UNIT   51 AT END OF TIME STEP    1, STRESS PERIOD    1
1
  VOLUMETRIC BUDGET FOR ENTIRE MODEL AT END OF TIME STEP    1, STRESS PERIOD   1
  ------------------------------------------------------------------------------

     CUMULATIVE VOLUMES      L**3       RATES FOR THIS TIME STEP      L**3/T
     ------------------                 ------------------------

           IN:                                      IN:
           ---                                      ---
             STORAGE =    19336727.2685               STORAGE =      210181.8181
       CONSTANT HEAD =   109406243.4236         CONSTANT HEAD =     1189198.2981
               WELLS =           0.0000                 WELLS =           0.0000
            RECHARGE =     1269600.0000              RECHARGE =       13800.0000
      STREAM LEAKAGE =           0.0000        STREAM LEAKAGE =           0.0000

            TOTAL IN =   130012570.6921              TOTAL IN =     1413180.1162

          OUT:                                     OUT:
          ----                                     ----
             STORAGE =           0.0000               STORAGE =           0.0000
       CONSTANT HEAD =           0.0000         CONSTANT HEAD =           0.0000
               WELLS =    11960000.0000                 WELLS =      130000.0000
            RECHARGE =           0.0000              RECHARGE =           0.0000
      STREAM LEAKAGE =   118052572.3486        STREAM LEAKAGE =     1283180.1342

           TOTAL OUT =   130012572.3486             TOTAL OUT =     1413180.1342

            IN - OUT =          -1.6565              IN - OUT =      -1.8005E-02

 PERCENT DISCREPANCY =          -0.00     PERCENT DISCREPANCY =          -0.00






         TIME SUMMARY AT END OF TIME STEP    1 IN STRESS PERIOD    1
                    SECONDS     MINUTES      HOURS       DAYS        YEARS
                    -----------------------------------------------------------
   TIME STEP LENGTH 7.94880E+06 1.32480E+05  2208.0      92.000     0.25188    
 STRESS PERIOD TIME 7.94880E+06 1.32480E+05  2208.0      92.000     0.25188    
         TOTAL TIME 7.94880E+06 1.32480E+05  2208.0      92.000     0.25188    
1
1
                            STRESS PERIOD NO.    2, LENGTH =   91.00000    
                            -----------------------------------------------

                              NUMBER OF TIME STEPS =     1

                               MULTIPLIER FOR DELT =     1.500

                            INITIAL TIME STEP SIZE =   91.00000    

 WELL NO.  LAYER   ROW   COL   STRESS RATE         
 --------------------------------------------------
      1      1     22     22     -0.3000E+05
      2      1      2     29       0.000    
      3      1      5     21     -0.5000E+05

      3 WELLS

                 RECHARGE =  2.000000E-03

 REUSING STREAM SEGMENT DATA FROM LAST STRESS PERIOD
 
 SOLVING FOR HEAD 


     6 CALLS TO PCG ROUTINE FOR TIME STEP   1 IN STRESS PERIOD    2
    24 TOTAL ITERATIONS

 OUTPUT CONTROL FOR STRESS PERIOD    2   TIME STEP    1
    SAVE BUDGET
    SAVE HEAD FOR ALL LAYERS
    PRINT HEAD FOR ALL LAYERS
 UBDSV2 SAVING "STREAMFLOW OUT  " ON UNIT  50 AT TIME STEP  1, STRESS PERIOD   2



 STREAM LISTING     PERIOD      2   STEP        1

 LAYER ROW COL. STREAM  RCH.  FLOW INTO     FLOW TO   FLOW OUT OF   OVRLND.     DIRECT     STREAM       STREAM     STREAM     STREAM   STREAMBED  STREAMBED
                SEG.NO.  NO.  STRM. RCH.    AQUIFER    STRM. RCH.    RUNOFF     PRECIP       ET          HEAD       DEPTH      WIDTH   CONDCTNC.   GRADIENT

   1   13    1     1     1    1.0000E+05 -2.8495E+04   1.2849E+05  0.000E+00  0.000E+00  0.000E+00  4.84181E+01  1.567E-01  2.000E+01  2.000E+04 -1.425E+00
   1   13    2     1     2    1.2849E+05 -3.8366E+04   1.6686E+05  0.000E+00  0.000E+00  0.000E+00  4.79669E+01  1.828E-01  2.000E+01  2.000E+04 -1.918E+00
   1   14    3     1     3    1.6686E+05 -3.3816E+04   2.0068E+05  0.000E+00  0.000E+00  0.000E+00  4.75152E+01  2.084E-01  2.000E+01  2.000E+04 -1.691E+00
   1   15    4     1     4    2.0068E+05 -3.3015E+04   2.3369E+05  0.000E+00  0.000E+00  0.000E+00  4.70599E+01  2.304E-01  2.000E+01  2.000E+04 -1.651E+00
   1   16    5     1     5    2.3369E+05 -3.4459E+04   2.6815E+05  0.000E+00  0.000E+00  0.000E+00  4.66035E+01  2.512E-01  2.000E+01  2.000E+04 -1.723E+00
   1   16    6     1     6    2.6815E+05 -3.0100E+04   2.9825E+05  0.000E+00  0.000E+00  0.000E+00  4.61451E+01  2.701E-01  2.000E+01  2.000E+04 -1.505E+00
   1   16    7     1     7    2.9825E+05 -2.9912E+04   3.2816E+05  0.000E+00  0.000E+00  0.000E+00  4.56847E+01  2.870E-01  2.000E+01  2.000E+04 -1.496E+00
   1   16    8     1     8    3.2816E+05 -3.0090E+04   3.5825E+05  0.000E+00  0.000E+00  0.000E+00  4.52236E+01  3.032E-01  2.000E+01  2.000E+04 -1.505E+00
   1   16    9     1     9    3.5825E+05 -3.0161E+04   3.8841E+05  0.000E+00  0.000E+00  0.000E+00  4.47620E+01  3.188E-01  2.000E+01  2.000E+04 -1.508E+00
   1   16   10     1    10    3.8841E+05 -3.0173E+04   4.1859E+05  0.000E+00  0.000E+00  0.000E+00  4.43000E+01  3.341E-01  2.000E+01  2.000E+04 -1.509E+00
   1   16   11     1    11    4.1859E+05 -3.0760E+04   4.4935E+05  0.000E+00  0.000E+00  0.000E+00  4.38376E+01  3.490E-01  2.000E+01  2.000E+04 -1.538E+00
   1   16   12     1    12    4.4935E+05 -3.6295E+04   4.8564E+05  0.000E+00  0.000E+00  0.000E+00  4.33763E+01  3.649E-01  2.000E+01  2.000E+04 -1.815E+00
   1   15   13     1    13    4.8564E+05 -3.5030E+04   5.2067E+05  0.000E+00  0.000E+00  0.000E+00  4.29155E+01  3.814E-01  2.000E+01  2.000E+04 -1.752E+00
   1   14   14     1    14    5.2067E+05 -3.5537E+04   5.5621E+05  0.000E+00  0.000E+00  0.000E+00  4.24540E+01  3.972E-01  2.000E+01  2.000E+04 -1.777E+00
   1   13   15     1    15    5.5621E+05 -3.7574E+04   5.9378E+05  0.000E+00  0.000E+00  0.000E+00  4.19927E+01  4.132E-01  2.000E+01  2.000E+04 -1.879E+00
   1   12   16     1    16    5.9378E+05 -4.3195E+04   6.3698E+05  0.000E+00  0.000E+00  0.000E+00  4.15326E+01  4.303E-01  2.000E+01  2.000E+04 -2.160E+00
   1   12   17     1    17    6.3698E+05 -3.3538E+04   6.7052E+05  0.000E+00  0.000E+00  0.000E+00  4.10712E+01  4.462E-01  2.000E+01  2.000E+04 -1.677E+00
   1   12   18     1    18    6.7052E+05 -3.1684E+04   7.0220E+05  0.000E+00  0.000E+00  0.000E+00  4.06072E+01  4.595E-01  2.000E+01  2.000E+04 -1.584E+00
   1   12   19     1    19    7.0220E+05 -3.5351E+04   7.3755E+05  0.000E+00  0.000E+00  0.000E+00  4.01433E+01  4.728E-01  2.000E+01  2.000E+04 -1.768E+00
   1   13   20     1    20    7.3755E+05 -2.6125E+04   7.6368E+05  0.000E+00  0.000E+00  0.000E+00  3.96780E+01  4.848E-01  2.000E+01  2.000E+04 -1.306E+00
   1   14   21     1    21    7.6368E+05 -1.9295E+04   7.8297E+05  0.000E+00  0.000E+00  0.000E+00  3.92095E+01  4.936E-01  2.000E+01  2.000E+04 -9.648E-01
   1   14   22     1    22    7.8297E+05 -1.5203E+03   7.8449E+05  0.000E+00  0.000E+00  0.000E+00  3.87362E+01  4.975E-01  2.000E+01  2.000E+04 -7.601E-02
   1    9   30     2     1    5.0000E+04 -2.6426E+04   7.6426E+04  0.000E+00  0.000E+00  0.000E+00  4.02584E+01  1.334E-01  2.000E+01  2.000E+04 -1.321E+00
   1    9   29     2     2    7.6426E+04 -2.8804E+04   1.0523E+05  0.000E+00  0.000E+00  0.000E+00  4.00408E+01  1.658E-01  2.000E+01  2.000E+04 -1.440E+00
   1    9   28     2     3    1.0523E+05 -3.2862E+04   1.3809E+05  0.000E+00  0.000E+00  0.000E+00  3.98225E+01  1.975E-01  2.000E+01  2.000E+04 -1.643E+00
   1    9   27     2     4    1.3809E+05 -4.6346E+04   1.8444E+05  0.000E+00  0.000E+00  0.000E+00  3.96089E+01  2.339E-01  2.000E+01  2.000E+04 -2.317E+00
   1   10   26     2     5    1.8444E+05 -3.2358E+04   2.1680E+05  0.000E+00  0.000E+00  0.000E+00  3.93917E+01  2.667E-01  2.000E+01  2.000E+04 -1.618E+00
   1   11   25     2     6    2.1680E+05 -2.4119E+04   2.4092E+05  0.000E+00  0.000E+00  0.000E+00  3.91636E+01  2.886E-01  2.000E+01  2.000E+04 -1.206E+00
   1   12   24     2     7    2.4092E+05 -1.7766E+04   2.5868E+05  0.000E+00  0.000E+00  0.000E+00  3.89292E+01  3.042E-01  2.000E+01  2.000E+04 -8.883E-01
   1   13   23     2     8    2.5868E+05 -1.2700E+04   2.7138E+05  0.000E+00  0.000E+00  0.000E+00  3.86902E+01  3.152E-01  2.000E+01  2.000E+04 -6.350E-01
   1   14   22     2     9    2.7138E+05 -7.2986E+03   2.7868E+05  0.000E+00  0.000E+00  0.000E+00  3.84473E+01  3.223E-01  2.000E+01  2.000E+04 -3.649E-01
   1   14   22     3     1    1.0632E+06 -1.5175E+04   1.0783E+06  0.000E+00  0.000E+00  0.000E+00  3.80534E+01  4.979E-01  2.000E+01  2.000E+04 -7.588E-01
   1   15   23     3     2    1.0783E+06 -2.3234E+04   1.1016E+06  0.000E+00  0.000E+00  0.000E+00  3.71699E+01  5.032E-01  2.000E+01  2.000E+04 -1.162E+00
   1   15   24     3     3    1.1016E+06 -1.9426E+04   1.1210E+06  0.000E+00  0.000E+00  0.000E+00  3.62869E+01  5.091E-01  2.000E+01  2.000E+04 -9.713E-01
   1   15   25     3     4    1.1210E+06 -1.9152E+04   1.1402E+06  0.000E+00  0.000E+00  0.000E+00  3.54033E+01  5.144E-01  2.000E+01  2.000E+04 -9.576E-01
   1   15   26     3     5    1.1402E+06 -2.2073E+04   1.1622E+06  0.000E+00  0.000E+00  0.000E+00  3.45200E+01  5.200E-01  2.000E+01  2.000E+04 -1.104E+00
   1   16   27     3     6    1.1622E+06 -2.9159E+04   1.1914E+06  0.000E+00  0.000E+00  0.000E+00  3.36380E+01  5.269E-01  2.000E+01  2.000E+04 -1.458E+00
   1   17   28     3     7    1.1914E+06 -3.6191E+04   1.2276E+06  0.000E+00  0.000E+00  0.000E+00  3.27578E+01  5.356E-01  2.000E+01  2.000E+04 -1.810E+00
   1   18   29     3     8    1.2276E+06 -4.7157E+04   1.2747E+06  0.000E+00  0.000E+00  0.000E+00  3.18800E+01  5.466E-01  2.000E+01  2.000E+04 -2.358E+00
   1   18   30     3     9    1.2747E+06 -4.3741E+04   1.3185E+06  0.000E+00  0.000E+00  0.000E+00  3.10029E+01  5.585E-01  2.000E+01  2.000E+04 -2.187E+00



1
              HEAD IN LAYER   1 AT END OF TIME STEP   1 IN STRESS PERIOD    2
  ---------------------------------------------------------------------------

          1      2      3      4      5      6      7      8      9     10
         11     12     13     14     15     16     17     18     19     20
         21     22     23     24     25     26     27     28     29     30
 .........................................................................
   1  ****** ****** ****** ****** ****** ****** ****** ****** ****** ******
      ****** ****** ****** ****** ****** ****** ****** ****** ****** ******
      ****** ****** ****** ****** ****** ****** ****** ****** ****** ******
   2  ****** ****** ****** ****** ****** ****** ****** ****** ****** ******
      ****** ****** ****** ****** ****** ****** ****** ****** ****** ******
      ****** ****** ****** ****** ****** ****** ****** ****** ****** ******
   3  ****** ****** ****** ****** ****** ****** ****** ****** ****** ******
      ****** ****** ****** ****** ****** ****** ****** ****** ****** ******
      ****** ****** ****** ****** ****** ****** ****** ****** ****** ******
   4  ****** ****** ****** ****** ****** ****** ****** ****** ****** ******
      ****** ****** ****** ****** ****** ****** ****** ****** ****** ******
      ****** ****** ****** ****** ****** ****** ****** ****** ****** ******
   5  ****** ****** ****** ****** ****** ****** ****** ****** ****** ******
      ****** ****** ****** ****** ****** ****** ****** ****** ****** ******
      ****** ****** ****** ****** ****** ****** ****** ****** ****** ******
   6  ****** ****** ****** ****** ****** ****** ****** ****** ****** ******
      ****** ****** ****** ****** ****** ****** ****** ****** ****** ******
      ****** ****** ****** ****** ****** ****** ****** ****** ****** ******
   7  ****** ****** ****** ****** ****** ****** ****** ****** ****** ******
      ****** ****** ****** ****** ****** ****** ****** ****** ****** ******
      ****** ****** ****** ****** ****** ****** ****** ****** ****** ******
   8  ****** ****** ****** ****** ****** ****** ****** ****** ****** ******
      ****** ****** ****** ****** ****** ****** ****** ****** ****** ******
      ****** ****** ****** ****** ****** ****** ****** ****** ****** ******
   9  ****** ****** ****** ****** ****** ****** ****** ****** ****** ******
      ****** ****** ****** ****** ****** ****** ****** ****** ****** ******
      ****** ****** ****** ****** ****** ****** ****** ****** ****** ******
  10  ****** ****** ****** ****** ****** ****** ****** ****** ****** ******
      ****** ****** ****** ****** ****** ****** ****** ****** ****** ******
      ****** ****** ****** ****** ****** ****** ****** ****** ****** ******
  11  ****** ****** ****** ****** ****** ****** ****** ****** ****** ******
      ****** ****** ****** ****** ****** ****** ****** ****** ****** ******
      ****** ****** ****** ****** ****** ****** ****** ****** ****** ******
  12  ****** ****** ****** ****** ****** ****** ****** ****** ****** ******
      ****** ****** ****** ****** ****** ****** ****** ****** ****** ******
      ****** ****** ****** ****** ****** ****** ****** ****** ****** ******
  13  ****** ****** ****** ****** ****** ****** ****** ****** ****** ******
      ****** ****** ****** ****** ****** ****** ****** ****** ****** ******
      ****** ****** ****** ****** ****** ****** ****** ****** ****** ******
  14  ****** ****** ****** ****** ****** ****** ****** ****** ****** ******
      ****** ****** ****** ****** ****** ****** ****** ****** ****** ******
      ****** ****** ****** ****** ****** ****** ****** ****** ****** ******
  15  ****** ****** ****** ****** ****** ****** ****** ****** ****** ******
      ****** ****** ****** ****** ****** ****** ****** ****** ****** ******
      ****** ****** ****** ****** ****** ****** ****** ****** ****** ******
  16  ****** ****** ****** ****** ****** ****** ****** ****** ****** ******
      ****** ****** ****** ****** ****** ****** ****** ****** ****** ******
      ****** ****** ****** ****** ****** ****** ****** ****** ****** ******
  17  ****** ****** ****** ****** ****** ****** ****** ****** ****** ******
      ****** ****** ****** ****** ****** ****** ****** ****** ****** ******
      ****** ****** ****** ****** ****** ****** ****** ****** ****** ******
  18  ****** ****** ****** ****** ****** ****** ****** ****** ****** ******
      ****** ****** ****** ****** ****** ****** ****** ****** ****** ******
      ****** ****** ****** ****** ****** ****** ****** ****** ****** ******
  19  ****** ****** ****** ****** ****** ****** ****** ****** ****** ******
      ****** ****** ****** ****** ****** ****** ****** ****** ****** ******
      ****** ****** ****** ****** ****** ****** ****** ****** ****** ******
  20  ****** ****** ****** ****** ****** ****** ****** ****** ****** ******
      ****** ****** ****** ****** ****** ****** ****** ****** ****** ******
      ****** ****** ****** ****** ****** ****** ****** ****** ****** ******
  21  ****** ****** ****** ****** ****** ****** ****** ****** ****** ******
      ****** ****** ****** ****** ****** ****** ****** ****** ****** ******
      ****** ****** ****** ****** ****** ****** ****** ****** ****** ******
  22  ****** ****** ****** ****** ****** ****** ****** ****** ****** ******
      ****** ****** ****** ****** ****** ****** ****** ****** ****** ******
      ****** ****** ****** ****** ****** ****** ****** ****** ****** ******
  23  ****** ****** ****** ****** ****** ****** ****** ****** ****** ******
      ****** ****** ****** ****** ****** ****** ****** ****** ****** ******
      ****** ****** ****** ****** ****** ****** ****** ****** ****** ******
  24  ****** ****** ****** ****** ****** ****** ****** ****** ****** ******
      ****** ****** ****** ****** ****** ****** ****** ****** ****** ******
      ****** ****** ****** ****** ****** ****** ****** ****** ****** ******
  25  ****** ****** ****** ****** ****** ****** ****** ****** ****** ******
      ****** ****** ****** ****** ****** ****** ****** ****** ****** ******
      ****** ****** ****** ****** ****** ****** ****** ****** ****** ******

 HEAD WILL BE SAVED ON UNIT   51 AT END OF TIME STEP    1, STRESS PERIOD    2
1
  VOLUMETRIC BUDGET FOR ENTIRE MODEL AT END OF TIME STEP    1, STRESS PERIOD   2
  ------------------------------------------------------------------------------

     CUMULATIVE VOLUMES      L**3       RATES FOR THIS TIME STEP      L**3/T
     ------------------                 ------------------------

           IN:                                      IN:
           ---                                      ---
             STORAGE =    19981547.9201               STORAGE =        7085.9412
       CONSTANT HEAD =   217387272.9109         CONSTANT HEAD =     1186604.7196
               WELLS =           0.0000                 WELLS =           0.0000
            RECHARGE =     6292800.0000              RECHARGE =       55200.0000
      STREAM LEAKAGE =           0.0000        STREAM LEAKAGE =           0.0000

            TOTAL IN =   243661620.8310              TOTAL IN =     1248890.6609

          OUT:                                     OUT:
          ----                                     ----
             STORAGE =       37239.4391               STORAGE =         409.2246
       CONSTANT HEAD =           0.0000         CONSTANT HEAD =           0.0000
               WELLS =    19240000.0000                 WELLS =       80000.0000
            RECHARGE =           0.0000              RECHARGE =           0.0000
      STREAM LEAKAGE =   224384388.4704        STREAM LEAKAGE =     1168481.4958

           TOTAL OUT =   243661627.9095             TOTAL OUT =     1248890.7204

            IN - OUT =          -7.0785              IN - OUT =      -5.9582E-02

 PERCENT DISCREPANCY =          -0.00     PERCENT DISCREPANCY =          -0.00






         TIME SUMMARY AT END OF TIME STEP    1 IN STRESS PERIOD    2
                    SECONDS     MINUTES      HOURS       DAYS        YEARS
                    -----------------------------------------------------------
   TIME STEP LENGTH 7.86240E+06 1.31040E+05  2184.0      91.000     0.24914    
 STRESS PERIOD TIME 7.86240E+06 1.31040E+05  2184.0      91.000     0.24914    
         TOTAL TIME 1.58112E+07 2.63520E+05  4392.0      183.00     0.50103    
1
1
                            STRESS PERIOD NO.    3, LENGTH =   91.00000    
                            -----------------------------------------------

                              NUMBER OF TIME STEPS =     1

                               MULTIPLIER FOR DELT =     1.500

                            INITIAL TIME STEP SIZE =   91.00000    

 WELL NO.  LAYER   ROW   COL   STRESS RATE         
 --------------------------------------------------
      1      1     22     22     -0.3000E+05
      2      1      2     29     -0.5000E+05
      3      1      5     21     -0.5000E+05

      3 WELLS

                 RECHARGE =   0.00000    

 REUSING STREAM SEGMENT DATA FROM LAST STRESS PERIOD
 
 SOLVING FOR HEAD 


     6 CALLS TO PCG ROUTINE FOR TIME STEP   1 IN STRESS PERIOD    3
    23 TOTAL ITERATIONS

 OUTPUT CONTROL FOR STRESS PERIOD    3   TIME STEP    1
    SAVE BUDGET
    SAVE HEAD FOR ALL LAYERS
    PRINT HEAD FOR ALL LAYERS
 UBDSV2 SAVING "STREAMFLOW OUT  " ON UNIT  50 AT TIME STEP  1, STRESS PERIOD   3



 STREAM LISTING     PERIOD      3   STEP        1

 LAYER ROW COL. STREAM  RCH.  FLOW INTO     FLOW TO   FLOW OUT OF   OVRLND.     DIRECT     STREAM       STREAM     STREAM     STREAM   STREAMBED  STREAMBED
                SEG.NO.  NO.  STRM. RCH.    AQUIFER    STRM. RCH.    RUNOFF     PRECIP       ET          HEAD       DEPTH      WIDTH   CONDCTNC.   GRADIENT

   1   13    1     1     1    1.0000E+05 -2.7461E+04   1.2746E+05  0.000E+00  0.000E+00  0.000E+00  4.84176E+01  1.563E-01  2.000E+01  2.000E+04 -1.373E+00
   1   13    2     1     2    1.2746E+05 -3.7122E+04   1.6458E+05  0.000E+00  0.000E+00  0.000E+00  4.79656E+01  1.815E-01  2.000E+01  2.000E+04 -1.856E+00
   1   14    3     1     3    1.6458E+05 -3.2613E+04   1.9720E+05  0.000E+00  0.000E+00  0.000E+00  4.75132E+01  2.064E-01  2.000E+01  2.000E+04 -1.631E+00
   1   15    4     1     4    1.9720E+05 -3.1870E+04   2.2907E+05  0.000E+00  0.000E+00  0.000E+00  4.70573E+01  2.278E-01  2.000E+01  2.000E+04 -1.594E+00
   1   16    5     1     5    2.2907E+05 -3.3439E+04   2.6251E+05  0.000E+00  0.000E+00  0.000E+00  4.66004E+01  2.481E-01  2.000E+01  2.000E+04 -1.672E+00
   1   16    6     1     6    2.6251E+05 -2.9209E+04   2.9171E+05  0.000E+00  0.000E+00  0.000E+00  4.61416E+01  2.666E-01  2.000E+01  2.000E+04 -1.460E+00
   1   16    7     1     7    2.9171E+05 -2.9026E+04   3.2074E+05  0.000E+00  0.000E+00  0.000E+00  4.56808E+01  2.831E-01  2.000E+01  2.000E+04 -1.451E+00
   1   16    8     1     8    3.2074E+05 -2.9201E+04   3.4994E+05  0.000E+00  0.000E+00  0.000E+00  4.52194E+01  2.990E-01  2.000E+01  2.000E+04 -1.460E+00
   1   16    9     1     9    3.4994E+05 -2.9271E+04   3.7921E+05  0.000E+00  0.000E+00  0.000E+00  4.47575E+01  3.143E-01  2.000E+01  2.000E+04 -1.464E+00
   1   16   10     1    10    3.7921E+05 -2.9286E+04   4.0850E+05  0.000E+00  0.000E+00  0.000E+00  4.42952E+01  3.293E-01  2.000E+01  2.000E+04 -1.464E+00
   1   16   11     1    11    4.0850E+05 -2.9861E+04   4.3836E+05  0.000E+00  0.000E+00  0.000E+00  4.38325E+01  3.439E-01  2.000E+01  2.000E+04 -1.493E+00
   1   16   12     1    12    4.3836E+05 -3.5249E+04   4.7361E+05  0.000E+00  0.000E+00  0.000E+00  4.33709E+01  3.595E-01  2.000E+01  2.000E+04 -1.762E+00
   1   15   13     1    13    4.7361E+05 -3.3859E+04   5.0747E+05  0.000E+00  0.000E+00  0.000E+00  4.29097E+01  3.756E-01  2.000E+01  2.000E+04 -1.693E+00
   1   14   14     1    14    5.0747E+05 -3.4317E+04   5.4178E+05  0.000E+00  0.000E+00  0.000E+00  4.24479E+01  3.911E-01  2.000E+01  2.000E+04 -1.716E+00
   1   13   15     1    15    5.4178E+05 -3.6353E+04   5.7814E+05  0.000E+00  0.000E+00  0.000E+00  4.19862E+01  4.066E-01  2.000E+01  2.000E+04 -1.818E+00
   1   12   16     1    16    5.7814E+05 -4.1994E+04   6.2013E+05  0.000E+00  0.000E+00  0.000E+00  4.15258E+01  4.235E-01  2.000E+01  2.000E+04 -2.100E+00
   1   12   17     1    17    6.2013E+05 -3.2570E+04   6.5270E+05  0.000E+00  0.000E+00  0.000E+00  4.10641E+01  4.391E-01  2.000E+01  2.000E+04 -1.628E+00
   1   12   18     1    18    6.5270E+05 -3.0750E+04   6.8345E+05  0.000E+00  0.000E+00  0.000E+00  4.05998E+01  4.521E-01  2.000E+01  2.000E+04 -1.538E+00
   1   12   19     1    19    6.8345E+05 -3.4308E+04   7.1776E+05  0.000E+00  0.000E+00  0.000E+00  4.01356E+01  4.652E-01  2.000E+01  2.000E+04 -1.715E+00
   1   13   20     1    20    7.1776E+05 -2.5178E+04   7.4294E+05  0.000E+00  0.000E+00  0.000E+00  3.96701E+01  4.769E-01  2.000E+01  2.000E+04 -1.259E+00
   1   14   21     1    21    7.4294E+05 -1.8500E+04   7.6144E+05  0.000E+00  0.000E+00  0.000E+00  3.92013E+01  4.854E-01  2.000E+01  2.000E+04 -9.250E-01
   1   14   22     1    22    7.6144E+05 -1.2170E+03   7.6265E+05  0.000E+00  0.000E+00  0.000E+00  3.87279E+01  4.892E-01  2.000E+01  2.000E+04 -6.085E-02
   1    9   30     2     1    5.0000E+04 -2.4788E+04   7.4788E+04  0.000E+00  0.000E+00  0.000E+00  4.02573E+01  1.323E-01  2.000E+01  2.000E+04 -1.239E+00
   1    9   29     2     2    7.4788E+04 -2.7216E+04   1.0200E+05  0.000E+00  0.000E+00  0.000E+00  4.00381E+01  1.631E-01  2.000E+01  2.000E+04 -1.361E+00
   1    9   28     2     3    1.0200E+05 -3.1319E+04   1.3332E+05  0.000E+00  0.000E+00  0.000E+00  3.98186E+01  1.936E-01  2.000E+01  2.000E+04 -1.566E+00
   1    9   27     2     4    1.3332E+05 -4.4621E+04   1.7794E+05  0.000E+00  0.000E+00  0.000E+00  3.96040E+01  2.290E-01  2.000E+01  2.000E+04 -2.231E+00
   1   10   26     2     5    1.7794E+05 -3.1030E+04   2.0897E+05  0.000E+00  0.000E+00  0.000E+00  3.93859E+01  2.609E-01  2.000E+01  2.000E+04 -1.551E+00
   1   11   25     2     6    2.0897E+05 -2.3019E+04   2.3199E+05  0.000E+00  0.000E+00  0.000E+00  3.91572E+01  2.822E-01  2.000E+01  2.000E+04 -1.151E+00
   1   12   24     2     7    2.3199E+05 -1.6868E+04   2.4886E+05  0.000E+00  0.000E+00  0.000E+00  3.89223E+01  2.973E-01  2.000E+01  2.000E+04 -8.434E-01
   1   13   23     2     8    2.4886E+05 -1.2021E+04   2.6088E+05  0.000E+00  0.000E+00  0.000E+00  3.86829E+01  3.079E-01  2.000E+01  2.000E+04 -6.010E-01
   1   14   22     2     9    2.6088E+05 -6.9802E+03   2.6786E+05  0.000E+00  0.000E+00  0.000E+00  3.84397E+01  3.147E-01  2.000E+01  2.000E+04 -3.490E-01
   1   14   22     3     1    1.0305E+06 -1.4890E+04   1.0454E+06  0.000E+00  0.000E+00  0.000E+00  3.80442E+01  4.887E-01  2.000E+01  2.000E+04 -7.445E-01
   1   15   23     3     2    1.0454E+06 -2.2521E+04   1.0679E+06  0.000E+00  0.000E+00  0.000E+00  3.71606E+01  4.939E-01  2.000E+01  2.000E+04 -1.126E+00
   1   15   24     3     3    1.0679E+06 -1.8836E+04   1.0868E+06  0.000E+00  0.000E+00  0.000E+00  3.62775E+01  4.997E-01  2.000E+01  2.000E+04 -9.418E-01
   1   15   25     3     4    1.0868E+06 -1.8562E+04   1.1053E+06  0.000E+00  0.000E+00  0.000E+00  3.53938E+01  5.049E-01  2.000E+01  2.000E+04 -9.281E-01
   1   15   26     3     5    1.1053E+06 -2.1376E+04   1.1267E+06  0.000E+00  0.000E+00  0.000E+00  3.45104E+01  5.104E-01  2.000E+01  2.000E+04 -1.069E+00
   1   16   27     3     6    1.1267E+06 -2.8328E+04   1.1550E+06  0.000E+00  0.000E+00  0.000E+00  3.36283E+01  5.172E-01  2.000E+01  2.000E+04 -1.416E+00
   1   17   28     3     7    1.1550E+06 -3.5350E+04   1.1904E+06  0.000E+00  0.000E+00  0.000E+00  3.27480E+01  5.258E-01  2.000E+01  2.000E+04 -1.768E+00
   1   18   29     3     8    1.1904E+06 -4.6380E+04   1.2368E+06  0.000E+00  0.000E+00  0.000E+00  3.18700E+01  5.367E-01  2.000E+01  2.000E+04 -2.319E+00
   1   18   30     3     9    1.2368E+06 -4.3093E+04   1.2799E+06  0.000E+00  0.000E+00  0.000E+00  3.09929E+01  5.485E-01  2.000E+01  2.000E+04 -2.155E+00



1
              HEAD IN LAYER   1 AT END OF TIME STEP   1 IN STRESS PERIOD    3
  ---------------------------------------------------------------------------

          1      2      3      4      5      6      7      8      9     10
         11     12     13     14     15     16     17     18     19     20
         21     22     23     24     25     26     27     28     29     30
 .........................................................................
   1  ****** ****** ****** ****** ****** ****** ****** ****** ****** ******
      ****** ****** ****** ****** ****** ****** ****** ****** ****** ******
      ****** ****** ****** ****** ****** ****** ****** ****** ****** ******
   2  ****** ****** ****** ****** ****** ****** ****** ****** ****** ******
      ****** ****** ****** ****** ****** ****** ****** ****** ****** ******
      ****** ****** ****** ****** ****** ****** ****** ****** ****** ******
   3  ****** ****** ****** ****** ****** ****** ****** ****** ****** ******
      ****** ****** ****** ****** ****** ****** ****** ****** ****** ******
      ****** ****** ****** ****** ****** ****** ****** ****** ****** ******
   4  ****** ****** ****** ****** ****** ****** ****** ****** ****** ******
      ****** ****** ****** ****** ****** ****** ****** ****** ****** ******
      ****** ****** ****** ****** ****** ****** ****** ****** ****** ******
   5  ****** ****** ****** ****** ****** ****** ****** ****** ****** ******
      ****** ****** ****** ****** ****** ****** ****** ****** ****** ******
      ****** ****** ****** ****** ****** ****** ****** ****** ****** ******
   6  ****** ****** ****** ****** ****** ****** ****** ****** ****** ******
      ****** ****** ****** ****** ****** ****** ****** ****** ****** ******
      ****** ****** ****** ****** ****** ****** ****** ****** ****** ******
   7  ****** ****** ****** ****** ****** ****** ****** ****** ****** ******
      ****** ****** ****** ****** ****** ****** ****** ****** ****** ******
      ****** ****** ****** ****** ****** ****** ****** ****** ****** ******
   8  ****** ****** ****** ****** ****** ****** ****** ****** ****** ******
      ****** ****** ****** ****** ****** ****** ****** ****** ****** ******
      ****** ****** ****** ****** ****** ****** ****** ****** ****** ******
   9  ****** ****** ****** ****** ****** ****** ****** ****** ****** ******
      ****** ****** ****** ****** ****** ****** ****** ****** ****** ******
      ****** ****** ****** ****** ****** ****** ****** ****** ****** ******
  10  ****** ****** ****** ****** ****** ****** ****** ****** ****** ******
      ****** ****** ****** ****** ****** ****** ****** ****** ****** ******
      ****** ****** ****** ****** ****** ****** ****** ****** ****** ******
  11  ****** ****** ****** ****** ****** ****** ****** ****** ****** ******
      ****** ****** ****** ****** ****** ****** ****** ****** ****** ******
      ****** ****** ****** ****** ****** ****** ****** ****** ****** ******
  12  ****** ****** ****** ****** ****** ****** ****** ****** ****** ******
      ****** ****** ****** ****** ****** ****** ****** ****** ****** ******
      ****** ****** ****** ****** ****** ****** ****** ****** ****** ******
  13  ****** ****** ****** ****** ****** ****** ****** ****** ****** ******
      ****** ****** ****** ****** ****** ****** ****** ****** ****** ******
      ****** ****** ****** ****** ****** ****** ****** ****** ****** ******
  14  ****** ****** ****** ****** ****** ****** ****** ****** ****** ******
      ****** ****** ****** ****** ****** ****** ****** ****** ****** ******
      ****** ****** ****** ****** ****** ****** ****** ****** ****** ******
  15  ****** ****** ****** ****** ****** ****** ****** ****** ****** ******
      ****** ****** ****** ****** ****** ****** ****** ****** ****** ******
      ****** ****** ****** ****** ****** ****** ****** ****** ****** ******
  16  ****** ****** ****** ****** ****** ****** ****** ****** ****** ******
      ****** ****** ****** ****** ****** ****** ****** ****** ****** ******
      ****** ****** ****** ****** ****** ****** ****** ****** ****** ******
  17  ****** ****** ****** ****** ****** ****** ****** ****** ****** ******
      ****** ****** ****** ****** ****** ****** ****** ****** ****** ******
      ****** ****** ****** ****** ****** ****** ****** ****** ****** ******
  18  ****** ****** ****** ****** ****** ****** ****** ****** ****** ******
      ****** ****** ****** ****** ****** ****** ****** ****** ****** ******
      ****** ****** ****** ****** ****** ****** ****** ****** ****** ******
  19  ****** ****** ****** ****** ****** ****** ****** ****** ****** ******
      ****** ****** ****** ****** ****** ****** ****** ****** ****** ******
      ****** ****** ****** ****** ****** ****** ****** ****** ****** ******
  20  ****** ****** ****** ****** ****** ****** ****** ****** ****** ******
      ****** ****** ****** ****** ****** ****** ****** ****** ****** ******
      ****** ****** ****** ****** ****** ****** ****** ****** ****** ******
  21  ****** ****** ****** ****** ****** ****** ****** ****** ****** ******
      ****** ****** ****** ****** ****** ****** ****** ****** ****** ******
      ****** ****** ****** ****** ****** ****** ****** ****** ****** ******
  22  ****** ****** ****** ****** ****** ****** ****** ****** ****** ******
      ****** ****** ****** ****** ****** ****** ****** ****** ****** ******
      ****** ****** ****** ****** ****** ****** ****** ****** ****** ******
  23  ****** ****** ****** ****** ****** ****** ****** ****** ****** ******
      ****** ****** ****** ****** ****** ****** ****** ****** ****** ******
      ****** ****** ****** ****** ****** ****** ****** ****** ****** ******
  24  ****** ****** ****** ****** ****** ****** ****** ****** ****** ******
      ****** ****** ****** ****** ****** ****** ****** ****** ****** ******
      ****** ****** ****** ****** ****** ****** ****** ****** ****** ******
  25  ****** ****** ****** ****** ****** ****** ****** ****** ****** ******
      ****** ****** ****** ****** ****** ****** ****** ****** ****** ******
      ****** ****** ****** ****** ****** ****** ****** ****** ****** ******

 HEAD WILL BE SAVED ON UNIT   51 AT END OF TIME STEP    1, STRESS PERIOD    3
1
  VOLUMETRIC BUDGET FOR ENTIRE MODEL AT END OF TIME STEP    1, STRESS PERIOD   3
  ------------------------------------------------------------------------------

     CUMULATIVE VOLUMES      L**3       RATES FOR THIS TIME STEP      L**3/T
     ------------------                 ------------------------

           IN:                                      IN:
           ---                                      ---
             STORAGE =    20336785.4066               STORAGE =        3903.7086
       CONSTANT HEAD =   331678584.6192         CONSTANT HEAD =     1255948.4803
               WELLS =           0.0000                 WELLS =           0.0000
            RECHARGE =     6292800.0000              RECHARGE =           0.0000
      STREAM LEAKAGE =           0.0000        STREAM LEAKAGE =           0.0000

            TOTAL IN =   358308170.0258              TOTAL IN =     1259852.1890

          OUT:                                     OUT:
          ----                                     ----
             STORAGE =       37239.4391               STORAGE =           0.0000
       CONSTANT HEAD =           0.0000         CONSTANT HEAD =           0.0000
               WELLS =    31070000.0000                 WELLS =      130000.0000
            RECHARGE =           0.0000              RECHARGE =           0.0000
      STREAM LEAKAGE =   327200941.8247        STREAM LEAKAGE =     1129852.2347

           TOTAL OUT =   358308181.2637             TOTAL OUT =     1259852.2347

            IN - OUT =         -11.2379              IN - OUT =      -4.5708E-02

 PERCENT DISCREPANCY =          -0.00     PERCENT DISCREPANCY =          -0.00






         TIME SUMMARY AT END OF TIME STEP    1 IN STRESS PERIOD    3
                    SECONDS     MINUTES      HOURS       DAYS        YEARS
                    -----------------------------------------------------------
   TIME STEP LENGTH 7.86240E+06 1.31040E+05  2184.0      91.000     0.24914    
 STRESS PERIOD TIME 7.86240E+06 1.31040E+05  2184.0      91.000     0.24914    
         TOTAL TIME 2.36736E+07 3.94560E+05  6576.0      274.00     0.75017    
1
1
                            STRESS PERIOD NO.    4, LENGTH =   91.00000    
                            -----------------------------------------------

                              NUMBER OF TIME STEPS =     1

                               MULTIPLIER FOR DELT =     1.500

                            INITIAL TIME STEP SIZE =   91.00000    

 WELL NO.  LAYER   ROW   COL   STRESS RATE         
 --------------------------------------------------
      1      1     22     22     -0.3000E+05
      2      1      2     29       0.000    
      3      1      5     21     -0.5000E+05

      3 WELLS

                 RECHARGE =  1.000000E-03

 REUSING STREAM SEGMENT DATA FROM LAST STRESS PERIOD
 
 SOLVING FOR HEAD 


     6 CALLS TO PCG ROUTINE FOR TIME STEP   1 IN STRESS PERIOD    4
    22 TOTAL ITERATIONS

 OUTPUT CONTROL FOR STRESS PERIOD    4   TIME STEP    1
    SAVE BUDGET
    SAVE HEAD FOR ALL LAYERS
    PRINT HEAD FOR ALL LAYERS
 UBDSV2 SAVING "STREAMFLOW OUT  " ON UNIT  50 AT TIME STEP  1, STRESS PERIOD   4



 STREAM LISTING     PERIOD      4   STEP        1

 LAYER ROW COL. STREAM  RCH.  FLOW INTO     FLOW TO   FLOW OUT OF   OVRLND.     DIRECT     STREAM       STREAM     STREAM     STREAM   STREAMBED  STREAMBED
                SEG.NO.  NO.  STRM. RCH.    AQUIFER    STRM. RCH.    RUNOFF     PRECIP       ET          HEAD       DEPTH      WIDTH   CONDCTNC.   GRADIENT

   1   13    1     1     1    1.0000E+05 -2.7842E+04   1.2784E+05  0.000E+00  0.000E+00  0.000E+00  4.84178E+01  1.564E-01  2.000E+01  2.000E+04 -1.392E+00
   1   13    2     1     2    1.2784E+05 -3.7575E+04   1.6542E+05  0.000E+00  0.000E+00  0.000E+00  4.79661E+01  1.820E-01  2.000E+01  2.000E+04 -1.879E+00
   1   14    3     1     3    1.6542E+05 -3.3064E+04   1.9848E+05  0.000E+00  0.000E+00  0.000E+00  4.75140E+01  2.072E-01  2.000E+01  2.000E+04 -1.653E+00
   1   15    4     1     4    1.9848E+05 -3.2307E+04   2.3079E+05  0.000E+00  0.000E+00  0.000E+00  4.70583E+01  2.287E-01  2.000E+01  2.000E+04 -1.615E+00
   1   16    5     1     5    2.3079E+05 -3.3837E+04   2.6462E+05  0.000E+00  0.000E+00  0.000E+00  4.66016E+01  2.493E-01  2.000E+01  2.000E+04 -1.692E+00
   1   16    6     1     6    2.6462E+05 -2.9554E+04   2.9418E+05  0.000E+00  0.000E+00  0.000E+00  4.61430E+01  2.680E-01  2.000E+01  2.000E+04 -1.478E+00
   1   16    7     1     7    2.9418E+05 -2.9368E+04   3.2355E+05  0.000E+00  0.000E+00  0.000E+00  4.56823E+01  2.846E-01  2.000E+01  2.000E+04 -1.468E+00
   1   16    8     1     8    3.2355E+05 -2.9543E+04   3.5309E+05  0.000E+00  0.000E+00  0.000E+00  4.52210E+01  3.006E-01  2.000E+01  2.000E+04 -1.477E+00
   1   16    9     1     9    3.5309E+05 -2.9613E+04   3.8270E+05  0.000E+00  0.000E+00  0.000E+00  4.47592E+01  3.161E-01  2.000E+01  2.000E+04 -1.481E+00
   1   16   10     1    10    3.8270E+05 -2.9628E+04   4.1233E+05  0.000E+00  0.000E+00  0.000E+00  4.42970E+01  3.311E-01  2.000E+01  2.000E+04 -1.481E+00
   1   16   11     1    11    4.1233E+05 -3.0209E+04   4.4254E+05  0.000E+00  0.000E+00  0.000E+00  4.38345E+01  3.458E-01  2.000E+01  2.000E+04 -1.510E+00
   1   16   12     1    12    4.4254E+05 -3.5655E+04   4.7819E+05  0.000E+00  0.000E+00  0.000E+00  4.33729E+01  3.616E-01  2.000E+01  2.000E+04 -1.783E+00
   1   15   13     1    13    4.7819E+05 -3.4307E+04   5.1250E+05  0.000E+00  0.000E+00  0.000E+00  4.29119E+01  3.778E-01  2.000E+01  2.000E+04 -1.715E+00
   1   14   14     1    14    5.1250E+05 -3.4781E+04   5.4728E+05  0.000E+00  0.000E+00  0.000E+00  4.24502E+01  3.934E-01  2.000E+01  2.000E+04 -1.739E+00
   1   13   15     1    15    5.4728E+05 -3.6819E+04   5.8410E+05  0.000E+00  0.000E+00  0.000E+00  4.19887E+01  4.091E-01  2.000E+01  2.000E+04 -1.841E+00
   1   12   16     1    16    5.8410E+05 -4.2459E+04   6.2656E+05  0.000E+00  0.000E+00  0.000E+00  4.15284E+01  4.261E-01  2.000E+01  2.000E+04 -2.123E+00
   1   12   17     1    17    6.2656E+05 -3.2958E+04   6.5952E+05  0.000E+00  0.000E+00  0.000E+00  4.10668E+01  4.418E-01  2.000E+01  2.000E+04 -1.648E+00
   1   12   18     1    18    6.5952E+05 -3.1137E+04   6.9065E+05  0.000E+00  0.000E+00  0.000E+00  4.06027E+01  4.549E-01  2.000E+01  2.000E+04 -1.557E+00
   1   12   19     1    19    6.9065E+05 -3.4758E+04   7.2541E+05  0.000E+00  0.000E+00  0.000E+00  4.01386E+01  4.681E-01  2.000E+01  2.000E+04 -1.738E+00
   1   13   20     1    20    7.2541E+05 -2.5586E+04   7.5100E+05  0.000E+00  0.000E+00  0.000E+00  3.96732E+01  4.800E-01  2.000E+01  2.000E+04 -1.279E+00
   1   14   21     1    21    7.5100E+05 -1.8834E+04   7.6983E+05  0.000E+00  0.000E+00  0.000E+00  3.92045E+01  4.886E-01  2.000E+01  2.000E+04 -9.417E-01
   1   14   22     1    22    7.6983E+05 -1.3656E+03   7.7120E+05  0.000E+00  0.000E+00  0.000E+00  3.87311E+01  4.925E-01  2.000E+01  2.000E+04 -6.828E-02
   1    9   30     2     1    5.0000E+04 -2.6034E+04   7.6034E+04  0.000E+00  0.000E+00  0.000E+00  4.02581E+01  1.331E-01  2.000E+01  2.000E+04 -1.302E+00
   1    9   29     2     2    7.6034E+04 -2.8411E+04   1.0445E+05  0.000E+00  0.000E+00  0.000E+00  4.00401E+01  1.651E-01  2.000E+01  2.000E+04 -1.421E+00
   1    9   28     2     3    1.0445E+05 -3.2453E+04   1.3690E+05  0.000E+00  0.000E+00  0.000E+00  3.98216E+01  1.966E-01  2.000E+01  2.000E+04 -1.623E+00
   1    9   27     2     4    1.3690E+05 -4.5835E+04   1.8273E+05  0.000E+00  0.000E+00  0.000E+00  3.96077E+01  2.327E-01  2.000E+01  2.000E+04 -2.292E+00
   1   10   26     2     5    1.8273E+05 -3.1825E+04   2.1456E+05  0.000E+00  0.000E+00  0.000E+00  3.93901E+01  2.651E-01  2.000E+01  2.000E+04 -1.591E+00
   1   11   25     2     6    2.1456E+05 -2.3605E+04   2.3816E+05  0.000E+00  0.000E+00  0.000E+00  3.91617E+01  2.867E-01  2.000E+01  2.000E+04 -1.180E+00
   1   12   24     2     7    2.3816E+05 -1.7309E+04   2.5547E+05  0.000E+00  0.000E+00  0.000E+00  3.89270E+01  3.020E-01  2.000E+01  2.000E+04 -8.654E-01
   1   13   23     2     8    2.5547E+05 -1.2332E+04   2.6781E+05  0.000E+00  0.000E+00  0.000E+00  3.86877E+01  3.127E-01  2.000E+01  2.000E+04 -6.166E-01
   1   14   22     2     9    2.6781E+05 -7.0947E+03   2.7490E+05  0.000E+00  0.000E+00  0.000E+00  3.84447E+01  3.197E-01  2.000E+01  2.000E+04 -3.547E-01
   1   14   22     3     1    1.0461E+06 -1.5016E+04   1.0611E+06  0.000E+00  0.000E+00  0.000E+00  3.80486E+01  4.931E-01  2.000E+01  2.000E+04 -7.508E-01
   1   15   23     3     2    1.0611E+06 -2.2814E+04   1.0839E+06  0.000E+00  0.000E+00  0.000E+00  3.71650E+01  4.984E-01  2.000E+01  2.000E+04 -1.141E+00
   1   15   24     3     3    1.0839E+06 -1.9086E+04   1.1030E+06  0.000E+00  0.000E+00  0.000E+00  3.62820E+01  5.042E-01  2.000E+01  2.000E+04 -9.543E-01
   1   15   25     3     4    1.1030E+06 -1.8818E+04   1.1218E+06  0.000E+00  0.000E+00  0.000E+00  3.53983E+01  5.094E-01  2.000E+01  2.000E+04 -9.409E-01
   1   15   26     3     5    1.1218E+06 -2.1683E+04   1.1435E+06  0.000E+00  0.000E+00  0.000E+00  3.45149E+01  5.149E-01  2.000E+01  2.000E+04 -1.084E+00
   1   16   27     3     6    1.1435E+06 -2.8684E+04   1.1722E+06  0.000E+00  0.000E+00  0.000E+00  3.36329E+01  5.218E-01  2.000E+01  2.000E+04 -1.434E+00
   1   17   28     3     7    1.1722E+06 -3.5707E+04   1.2079E+06  0.000E+00  0.000E+00  0.000E+00  3.27527E+01  5.304E-01  2.000E+01  2.000E+04 -1.785E+00
   1   18   29     3     8    1.2079E+06 -4.6707E+04   1.2546E+06  0.000E+00  0.000E+00  0.000E+00  3.18747E+01  5.414E-01  2.000E+01  2.000E+04 -2.335E+00
   1   18   30     3     9    1.2546E+06 -4.3369E+04   1.2980E+06  0.000E+00  0.000E+00  0.000E+00  3.09976E+01  5.532E-01  2.000E+01  2.000E+04 -2.168E+00



1
              HEAD IN LAYER   1 AT END OF TIME STEP   1 IN STRESS PERIOD    4
  ---------------------------------------------------------------------------

          1      2      3      4      5      6      7      8      9     10
         11     12     13     14     15     16     17     18     19     20
         21     22     23     24     25     26     27     28     29     30
 .........................................................................
   1  ****** ****** ****** ****** ****** ****** ****** ****** ****** ******
      ****** ****** ****** ****** ****** ****** ****** ****** ****** ******
      ****** ****** ****** ****** ****** ****** ****** ****** ****** ******
   2  ****** ****** ****** ****** ****** ****** ****** ****** ****** ******
      ****** ****** ****** ****** ****** ****** ****** ****** ****** ******
      ****** ****** ****** ****** ****** ****** ****** ****** ****** ******
   3  ****** ****** ****** ****** ****** ****** ****** ****** ****** ******
      ****** ****** ****** ****** ****** ****** ****** ****** ****** ******
      ****** ****** ****** ****** ****** ****** ****** ****** ****** ******
   4  ****** ****** ****** ****** ****** ****** ****** ****** ****** ******
      ****** ****** ****** ****** ****** ****** ****** ****** ****** ******
      ****** ****** ****** ****** ****** ****** ****** ****** ****** ******
   5  ****** ****** ****** ****** ****** ****** ****** ****** ****** ******
      ****** ****** ****** ****** ****** ****** ****** ****** ****** ******
      ****** ****** ****** ****** ****** ****** ****** ****** ****** ******
   6  ****** ****** ****** ****** ****** ****** ****** ****** ****** ******
      ****** ****** ****** ****** ****** ****** ****** ****** ****** ******
      ****** ****** ****** ****** ****** ****** ****** ****** ****** ******
   7  ****** ****** ****** ****** ****** ****** ****** ****** ****** ******
      ****** ****** ****** ****** ****** ****** ****** ****** ****** ******
      ****** ****** ****** ****** ****** ****** ****** ****** ****** ******
   8  ****** ****** ****** ****** ****** ****** ****** ****** ****** ******
      ****** ****** ****** ****** ****** ****** ****** ****** ****** ******
      ****** ****** ****** ****** ****** ****** ****** ****** ****** ******
   9  ****** ****** ****** ****** ****** ****** ****** ****** ****** ******
      ****** ****** ****** ****** ****** ****** ****** ****** ****** ******
      ****** ****** ****** ****** ****** ****** ****** ****** ****** ******
  10  ****** ****** ****** ****** ****** ****** ****** ****** ****** ******
      ****** ****** ****** ****** ****** ****** ****** ****** ****** ******
      ****** ****** ****** ****** ****** ****** ****** ****** ****** ******
  11  ****** ****** ****** ****** ****** ****** ****** ****** ****** ******
      ****** ****** ****** ****** ****** ****** ****** ****** ****** ******
      ****** ****** ****** ****** ****** ****** ****** ****** ****** ******
  12  ****** ****** ****** ****** ****** ****** ****** ****** ****** ******
      ****** ****** ****** ****** ****** ****** ****** ****** ****** ******
      ****** ****** ****** ****** ****** ****** ****** ****** ****** ******
  13  ****** ****** ****** ****** ****** ****** ****** ****** ****** ******
      ****** ****** ****** ****** ****** ****** ****** ****** ****** ******
      ****** ****** ****** ****** ****** ****** ****** ****** ****** ******
  14  ****** ****** ****** ****** ****** ****** ****** ****** ****** ******
      ****** ****** ****** ****** ****** ****** ****** ****** ****** ******
      ****** ****** ****** ****** ****** ****** ****** ****** ****** ******
  15  ****** ****** ****** ****** ****** ****** ****** ****** ****** ******
      ****** ****** ****** ****** ****** ****** ****** ****** ****** ******
      ****** ****** ****** ****** ****** ****** ****** ****** ****** ******
  16  ****** ****** ****** ****** ****** ****** ****** ****** ****** ******
      ****** ****** ****** ****** ****** ****** ****** ****** ****** ******
      ****** ****** ****** ****** ****** ****** ****** ****** ****** ******
  17  ****** ****** ****** ****** ****** ****** ****** ****** ****** ******
      ****** ****** ****** ****** ****** ****** ****** ****** ****** ******
      ****** ****** ****** ****** ****** ****** ****** ****** ****** ******
  18  ****** ****** ****** ****** ****** ****** ****** ****** ****** ******
      ****** ****** ****** ****** ****** ****** ****** ****** ****** ******
      ****** ****** ****** ****** ****** ****** ****** ****** ****** ******
  19  ****** ****** ****** ****** ****** ****** ****** ****** ****** ******
      ****** ****** ****** ****** ****** ****** ****** ****** ****** ******
      ****** ****** ****** ****** ****** ****** ****** ****** ****** ******
  20  ****** ****** ****** ****** ****** ****** ****** ****** ****** ******
      ****** ****** ****** ****** ****** ****** ****** ****** ****** ******
      ****** ****** ****** ****** ****** ****** ****** ****** ****** ******
  21  ****** ****** ****** ****** ****** ****** ****** ****** ****** ******
      ****** ****** ****** ****** ****** ****** ****** ****** ****** ******
      ****** ****** ****** ****** ****** ****** ****** ****** ****** ******
  22  ****** ****** ****** ****** ****** ****** ****** ****** ****** ******
      ****** ****** ****** ****** ****** ****** ****** ****** ****** ******
      ****** ****** ****** ****** ****** ****** ****** ****** ****** ******
  23  ****** ****** ****** ****** ****** ****** ****** ****** ****** ******
      ****** ****** ****** ****** ****** ****** ****** ****** ****** ******
      ****** ****** ****** ****** ****** ****** ****** ****** ****** ******
  24  ****** ****** ****** ****** ****** ****** ****** ****** ****** ******
      ****** ****** ****** ****** ****** ****** ****** ****** ****** ******
      ****** ****** ****** ****** ****** ****** ****** ****** ****** ******
  25  ****** ****** ****** ****** ****** ****** ****** ****** ****** ******
      ****** ****** ****** ****** ****** ****** ****** ****** ****** ******
      ****** ****** ****** ****** ****** ****** ****** ****** ****** ******

 HEAD WILL BE SAVED ON UNIT   51 AT END OF TIME STEP    1, STRESS PERIOD    4
1
  VOLUMETRIC BUDGET FOR ENTIRE MODEL AT END OF TIME STEP    1, STRESS PERIOD   4
  ------------------------------------------------------------------------------

     CUMULATIVE VOLUMES      L**3       RATES FOR THIS TIME STEP      L**3/T
     ------------------                 ------------------------

           IN:                                      IN:
           ---                                      ---
             STORAGE =    20336785.4066               STORAGE =           0.0000
       CONSTANT HEAD =   441093874.8797         CONSTANT HEAD =     1202365.8270
               WELLS =           0.0000                 WELLS =           0.0000
            RECHARGE =     8804400.0000              RECHARGE =       27600.0000
      STREAM LEAKAGE =           0.0000        STREAM LEAKAGE =           0.0000

            TOTAL IN =   470235060.2863              TOTAL IN =     1229965.8270

          OUT:                                     OUT:
          ----                                     ----
             STORAGE =      217760.9639               STORAGE =        1983.7530
       CONSTANT HEAD =           0.0000         CONSTANT HEAD =           0.0000
               WELLS =    38350000.0000                 WELLS =       80000.0000
            RECHARGE =           0.0000              RECHARGE =           0.0000
      STREAM LEAKAGE =   431667308.3063        STREAM LEAKAGE =     1147982.0492

           TOTAL OUT =   470235069.2702             TOTAL OUT =     1229965.8023

            IN - OUT =          -8.9839              IN - OUT =       2.4769E-02

 PERCENT DISCREPANCY =          -0.00     PERCENT DISCREPANCY =           0.00






         TIME SUMMARY AT END OF TIME STEP    1 IN STRESS PERIOD    4
                    SECONDS     MINUTES      HOURS       DAYS        YEARS
                    -----------------------------------------------------------
   TIME STEP LENGTH 7.86240E+06 1.31040E+05  2184.0      91.000     0.24914    
 STRESS PERIOD TIME 7.86240E+06 1.31040E+05  2184.0      91.000     0.24914    
         TOTAL TIME 3.15360E+07 5.25600E+05  8760.0      365.00     0.99932    
1
1
                            STRESS PERIOD NO.    5, LENGTH =   92.00000    
                            -----------------------------------------------

                              NUMBER OF TIME STEPS =     1

                               MULTIPLIER FOR DELT =     1.500

                            INITIAL TIME STEP SIZE =   92.00000    

 WELL NO.  LAYER   ROW   COL   STRESS RATE         
 --------------------------------------------------
      1      1     22     22     -0.3000E+05
      2      1      2     29     -0.5000E+05
      3      1      5     21     -0.5000E+05

      3 WELLS

                 RECHARGE =  5.000000E-04

 REUSING STREAM SEGMENT DATA FROM LAST STRESS PERIOD
 
 SOLVING FOR HEAD 


     6 CALLS TO PCG ROUTINE FOR TIME STEP   1 IN STRESS PERIOD    5
    22 TOTAL ITERATIONS

 OUTPUT CONTROL FOR STRESS PERIOD    5   TIME STEP    1
    SAVE BUDGET
    SAVE HEAD FOR ALL LAYERS
    PRINT HEAD FOR ALL LAYERS
 UBDSV2 SAVING "STREAMFLOW OUT  " ON UNIT  50 AT TIME STEP  1, STRESS PERIOD   5



 STREAM LISTING     PERIOD      5   STEP        1

 LAYER ROW COL. STREAM  RCH.  FLOW INTO     FLOW TO   FLOW OUT OF   OVRLND.     DIRECT     STREAM       STREAM     STREAM     STREAM   STREAMBED  STREAMBED
                SEG.NO.  NO.  STRM. RCH.    AQUIFER    STRM. RCH.    RUNOFF     PRECIP       ET          HEAD       DEPTH      WIDTH   CONDCTNC.   GRADIENT

   1   13    1     1     1    1.0000E+05 -2.7641E+04   1.2764E+05  0.000E+00  0.000E+00  0.000E+00  4.84177E+01  1.563E-01  2.000E+01  2.000E+04 -1.382E+00
   1   13    2     1     2    1.2764E+05 -3.7336E+04   1.6498E+05  0.000E+00  0.000E+00  0.000E+00  4.79658E+01  1.818E-01  2.000E+01  2.000E+04 -1.867E+00
   1   14    3     1     3    1.6498E+05 -3.2828E+04   1.9781E+05  0.000E+00  0.000E+00  0.000E+00  4.75136E+01  2.068E-01  2.000E+01  2.000E+04 -1.641E+00
   1   15    4     1     4    1.9781E+05 -3.2079E+04   2.2988E+05  0.000E+00  0.000E+00  0.000E+00  4.70578E+01  2.282E-01  2.000E+01  2.000E+04 -1.604E+00
   1   16    5     1     5    2.2988E+05 -3.3631E+04   2.6352E+05  0.000E+00  0.000E+00  0.000E+00  4.66009E+01  2.487E-01  2.000E+01  2.000E+04 -1.682E+00
   1   16    6     1     6    2.6352E+05 -2.9374E+04   2.9289E+05  0.000E+00  0.000E+00  0.000E+00  4.61423E+01  2.673E-01  2.000E+01  2.000E+04 -1.469E+00
   1   16    7     1     7    2.9289E+05 -2.9190E+04   3.2208E+05  0.000E+00  0.000E+00  0.000E+00  4.56815E+01  2.838E-01  2.000E+01  2.000E+04 -1.460E+00
   1   16    8     1     8    3.2208E+05 -2.9364E+04   3.5144E+05  0.000E+00  0.000E+00  0.000E+00  4.52202E+01  2.997E-01  2.000E+01  2.000E+04 -1.468E+00
   1   16    9     1     9    3.5144E+05 -2.9435E+04   3.8088E+05  0.000E+00  0.000E+00  0.000E+00  4.47583E+01  3.152E-01  2.000E+01  2.000E+04 -1.472E+00
   1   16   10     1    10    3.8088E+05 -2.9449E+04   4.1033E+05  0.000E+00  0.000E+00  0.000E+00  4.42960E+01  3.301E-01  2.000E+01  2.000E+04 -1.472E+00
   1   16   11     1    11    4.1033E+05 -3.0027E+04   4.4036E+05  0.000E+00  0.000E+00  0.000E+00  4.38334E+01  3.448E-01  2.000E+01  2.000E+04 -1.501E+00
   1   16   12     1    12    4.4036E+05 -3.5444E+04   4.7580E+05  0.000E+00  0.000E+00  0.000E+00  4.33718E+01  3.605E-01  2.000E+01  2.000E+04 -1.772E+00
   1   15   13     1    13    4.7580E+05 -3.4072E+04   5.0987E+05  0.000E+00  0.000E+00  0.000E+00  4.29107E+01  3.767E-01  2.000E+01  2.000E+04 -1.704E+00
   1   14   14     1    14    5.0987E+05 -3.4535E+04   5.4441E+05  0.000E+00  0.000E+00  0.000E+00  4.24490E+01  3.922E-01  2.000E+01  2.000E+04 -1.727E+00
   1   13   15     1    15    5.4441E+05 -3.6568E+04   5.8097E+05  0.000E+00  0.000E+00  0.000E+00  4.19874E+01  4.078E-01  2.000E+01  2.000E+04 -1.828E+00
   1   12   16     1    16    5.8097E+05 -4.2200E+04   6.2317E+05  0.000E+00  0.000E+00  0.000E+00  4.15270E+01  4.247E-01  2.000E+01  2.000E+04 -2.110E+00
   1   12   17     1    17    6.2317E+05 -3.2739E+04   6.5591E+05  0.000E+00  0.000E+00  0.000E+00  4.10654E+01  4.404E-01  2.000E+01  2.000E+04 -1.637E+00
   1   12   18     1    18    6.5591E+05 -3.0913E+04   6.8683E+05  0.000E+00  0.000E+00  0.000E+00  4.06011E+01  4.534E-01  2.000E+01  2.000E+04 -1.546E+00
   1   12   19     1    19    6.8683E+05 -3.4487E+04   7.2131E+05  0.000E+00  0.000E+00  0.000E+00  4.01370E+01  4.665E-01  2.000E+01  2.000E+04 -1.724E+00
   1   13   20     1    20    7.2131E+05 -2.5348E+04   7.4666E+05  0.000E+00  0.000E+00  0.000E+00  3.96715E+01  4.783E-01  2.000E+01  2.000E+04 -1.267E+00
   1   14   21     1    21    7.4666E+05 -1.8647E+04   7.6531E+05  0.000E+00  0.000E+00  0.000E+00  3.92028E+01  4.869E-01  2.000E+01  2.000E+04 -9.324E-01
   1   14   22     1    22    7.6531E+05 -1.2703E+03   7.6658E+05  0.000E+00  0.000E+00  0.000E+00  3.87294E+01  4.907E-01  2.000E+01  2.000E+04 -6.351E-02
   1    9   30     2     1    5.0000E+04 -2.4924E+04   7.4924E+04  0.000E+00  0.000E+00  0.000E+00  4.02574E+01  1.324E-01  2.000E+01  2.000E+04 -1.246E+00
   1    9   29     2     2    7.4924E+04 -2.7353E+04   1.0228E+05  0.000E+00  0.000E+00  0.000E+00  4.00383E+01  1.633E-01  2.000E+01  2.000E+04 -1.368E+00
   1    9   28     2     3    1.0228E+05 -3.1459E+04   1.3374E+05  0.000E+00  0.000E+00  0.000E+00  3.98190E+01  1.940E-01  2.000E+01  2.000E+04 -1.573E+00
   1    9   27     2     4    1.3374E+05 -4.4791E+04   1.7853E+05  0.000E+00  0.000E+00  0.000E+00  3.96044E+01  2.294E-01  2.000E+01  2.000E+04 -2.240E+00
   1   10   26     2     5    1.7853E+05 -3.1206E+04   2.0973E+05  0.000E+00  0.000E+00  0.000E+00  3.93865E+01  2.615E-01  2.000E+01  2.000E+04 -1.560E+00
   1   11   25     2     6    2.0973E+05 -2.3190E+04   2.3292E+05  0.000E+00  0.000E+00  0.000E+00  3.91579E+01  2.829E-01  2.000E+01  2.000E+04 -1.159E+00
   1   12   24     2     7    2.3292E+05 -1.7021E+04   2.4994E+05  0.000E+00  0.000E+00  0.000E+00  3.89230E+01  2.980E-01  2.000E+01  2.000E+04 -8.510E-01
   1   13   23     2     8    2.4994E+05 -1.2145E+04   2.6209E+05  0.000E+00  0.000E+00  0.000E+00  3.86837E+01  3.087E-01  2.000E+01  2.000E+04 -6.072E-01
   1   14   22     2     9    2.6209E+05 -7.0458E+03   2.6913E+05  0.000E+00  0.000E+00  0.000E+00  3.84406E+01  3.156E-01  2.000E+01  2.000E+04 -3.523E-01
   1   14   22     3     1    1.0357E+06 -1.4944E+04   1.0507E+06  0.000E+00  0.000E+00  0.000E+00  3.80457E+01  4.901E-01  2.000E+01  2.000E+04 -7.472E-01
   1   15   23     3     2    1.0507E+06 -2.2659E+04   1.0733E+06  0.000E+00  0.000E+00  0.000E+00  3.71621E+01  4.954E-01  2.000E+01  2.000E+04 -1.133E+00
   1   15   24     3     3    1.0733E+06 -1.8952E+04   1.0923E+06  0.000E+00  0.000E+00  0.000E+00  3.62790E+01  5.012E-01  2.000E+01  2.000E+04 -9.476E-01
   1   15   25     3     4    1.0923E+06 -1.8679E+04   1.1109E+06  0.000E+00  0.000E+00  0.000E+00  3.53953E+01  5.064E-01  2.000E+01  2.000E+04 -9.339E-01
   1   15   26     3     5    1.1109E+06 -2.1512E+04   1.1325E+06  0.000E+00  0.000E+00  0.000E+00  3.45119E+01  5.119E-01  2.000E+01  2.000E+04 -1.076E+00
   1   16   27     3     6    1.1325E+06 -2.8491E+04   1.1609E+06  0.000E+00  0.000E+00  0.000E+00  3.36299E+01  5.188E-01  2.000E+01  2.000E+04 -1.425E+00
   1   17   28     3     7    1.1609E+06 -3.5518E+04   1.1965E+06  0.000E+00  0.000E+00  0.000E+00  3.27496E+01  5.274E-01  2.000E+01  2.000E+04 -1.776E+00
   1   18   29     3     8    1.1965E+06 -4.6537E+04   1.2430E+06  0.000E+00  0.000E+00  0.000E+00  3.18717E+01  5.383E-01  2.000E+01  2.000E+04 -2.327E+00
   1   18   30     3     9    1.2430E+06 -4.3225E+04   1.2862E+06  0.000E+00  0.000E+00  0.000E+00  3.09946E+01  5.501E-01  2.000E+01  2.000E+04 -2.161E+00



1
              HEAD IN LAYER   1 AT END OF TIME STEP   1 IN STRESS PERIOD    5
  ---------------------------------------------------------------------------

          1      2      3      4      5      6      7      8      9     10
         11     12     13     14     15     16     17     18     19     20
         21     22     23     24     25     26     27     28     29     30
 .........................................................................
   1  ****** ****** ****** ****** ****** ****** ****** ****** ****** ******
      ****** ****** ****** ****** ****** ****** ****** ****** ****** ******
      ****** ****** ****** ****** ****** ****** ****** ****** ****** ******
   2  ****** ****** ****** ****** ****** ****** ****** ****** ****** ******
      ****** ****** ****** ****** ****** ****** ****** ****** ****** ******
      ****** ****** ****** ****** ****** ****** ****** ****** ****** ******
   3  ****** ****** ****** ****** ****** ****** ****** ****** ****** ******
      ****** ****** ****** ****** ****** ****** ****** ****** ****** ******
      ****** ****** ****** ****** ****** ****** ****** ****** ****** ******
   4  ****** ****** ****** ****** ****** ****** ****** ****** ****** ******
      ****** ****** ****** ****** ****** ****** ****** ****** ****** ******
      ****** ****** ****** ****** ****** ****** ****** ****** ****** ******
   5  ****** ****** ****** ****** ****** ****** ****** ****** ****** ******
      ****** ****** ****** ****** ****** ****** ****** ****** ****** ******
      ****** ****** ****** ****** ****** ****** ****** ****** ****** ******
   6  ****** ****** ****** ****** ****** ****** ****** ****** ****** ******
      ****** ****** ****** ****** ****** ****** ****** ****** ****** ******
      ****** ****** ****** ****** ****** ****** ****** ****** ****** ******
   7  ****** ****** ****** ****** ****** ****** ****** ****** ****** ******
      ****** ****** ****** ****** ****** ****** ****** ****** ****** ******
      ****** ****** ****** ****** ****** ****** ****** ****** ****** ******
   8  ****** ****** ****** ****** ****** ****** ****** ****** ****** ******
      ****** ****** ****** ****** ****** ****** ****** ****** ****** ******
      ****** ****** ****** ****** ****** ****** ****** ****** ****** ******
   9  ****** ****** ****** ****** ****** ****** ****** ****** ****** ******
      ****** ****** ****** ****** ****** ****** ****** ****** ****** ******
      ****** ****** ****** ****** ****** ****** ****** ****** ****** ******
  10  ****** ****** ****** ****** ****** ****** ****** ****** ****** ******
      ****** ****** ****** ****** ****** ****** ****** ****** ****** ******
      ****** ****** ****** ****** ****** ****** ****** ****** ****** ******
  11  ****** ****** ****** ****** ****** ****** ****** ****** ****** ******
      ****** ****** ****** ****** ****** ****** ****** ****** ****** ******
      ****** ****** ****** ****** ****** ****** ****** ****** ****** ******
  12  ****** ****** ****** ****** ****** ****** ****** ****** ****** ******
      ****** ****** ****** ****** ****** ****** ****** ****** ****** ******
      ****** ****** ****** ****** ****** ****** ****** ****** ****** ******
  13  ****** ****** ****** ****** ****** ****** ****** ****** ****** ******
      ****** ****** ****** ****** ****** ****** ****** ****** ****** ******
      ****** ****** ****** ****** ****** ****** ****** ****** ****** ******
  14  ****** ****** ****** ****** ****** ****** ****** ****** ****** ******
      ****** ****** ****** ****** ****** ****** ****** ****** ****** ******
      ****** ****** ****** ****** ****** ****** ****** ****** ****** ******
  15  ****** ****** ****** ****** ****** ****** ****** ****** ****** ******
      ****** ****** ****** ****** ****** ****** ****** ****** ****** ******
      ****** ****** ****** ****** ****** ****** ****** ****** ****** ******
  16  ****** ****** ****** ****** ****** ****** ****** ****** ****** ******
      ****** ****** ****** ****** ****** ****** ****** ****** ****** ******
      ****** ****** ****** ****** ****** ****** ****** ****** ****** ******
  17  ****** ****** ****** ****** ****** ****** ****** ****** ****** ******
      ****** ****** ****** ****** ****** ****** ****** ****** ****** ******
      ****** ****** ****** ****** ****** ****** ****** ****** ****** ******
  18  ****** ****** ****** ****** ****** ****** ****** ****** ****** ******
      ****** ****** ****** ****** ****** ****** ****** ****** ****** ******
      ****** ****** ****** ****** ****** ****** ****** ****** ****** ******
  19  ****** ****** ****** ****** ****** ****** ****** ****** ****** ******
      ****** ****** ****** ****** ****** ****** ****** ****** ****** ******
      ****** ****** ****** ****** ****** ****** ****** ****** ****** ******
  20  ****** ****** ****** ****** ****** ****** ****** ****** ****** ******
      ****** ****** ****** ****** ****** ****** ****** ****** ****** ******
      ****** ****** ****** ****** ****** ****** ****** ****** ****** ******
  21  ****** ****** ****** ****** ****** ****** ****** ****** ****** ******
      ****** ****** ****** ****** ****** ****** ****** ****** ****** ******
      ****** ****** ****** ****** ****** ****** ****** ****** ****** ******
  22  ****** ****** ****** ****** ****** ****** ****** ****** ****** ******
      ****** ****** ****** ****** ****** ****** ****** ****** ****** ******
      ****** ****** ****** ****** ****** ****** ****** ****** ****** ******
  23  ****** ****** ****** ****** ****** ****** ****** ****** ****** ******
      ****** ****** ****** ****** ****** ****** ****** ****** ****** ******
      ****** ****** ****** ****** ****** ****** ****** ****** ****** ******
  24  ****** ****** ****** ****** ****** ****** ****** ****** ****** ******
      ****** ****** ****** ****** ****** ****** ****** ****** ****** ******
      ****** ****** ****** ****** ****** ****** ****** ****** ****** ******
  25  ****** ****** ****** ****** ****** ****** ****** ****** ****** ******
      ****** ****** ****** ****** ****** ****** ****** ****** ****** ******
      ****** ****** ****** ****** ****** ****** ****** ****** ****** ******

 HEAD WILL BE SAVED ON UNIT   51 AT END OF TIME STEP    1, STRESS PERIOD    5
1
  VOLUMETRIC BUDGET FOR ENTIRE MODEL AT END OF TIME STEP    1, STRESS PERIOD   5
  ------------------------------------------------------------------------------

     CUMULATIVE VOLUMES      L**3       RATES FOR THIS TIME STEP      L**3/T
     ------------------                 ------------------------

           IN:                                      IN:
           ---                                      ---
             STORAGE =    20467927.1225               STORAGE =        1425.4534
       CONSTANT HEAD =   556186132.2528         CONSTANT HEAD =     1251002.7975
               WELLS =           0.0000                 WELLS =           0.0000
            RECHARGE =    10074000.0000              RECHARGE =       13800.0000
      STREAM LEAKAGE =           0.0000        STREAM LEAKAGE =           0.0000

            TOTAL IN =   586728059.3753              TOTAL IN =     1266228.2510

          OUT:                                     OUT:
          ----                                     ----
             STORAGE =      217760.9639               STORAGE =           0.0000
       CONSTANT HEAD =           0.0000         CONSTANT HEAD =           0.0000
               WELLS =    50310000.0000                 WELLS =      130000.0000
            RECHARGE =           0.0000              RECHARGE =           0.0000
      STREAM LEAKAGE =   536200308.9529        STREAM LEAKAGE =     1136228.2679

           TOTAL OUT =   586728069.9168             TOTAL OUT =     1266228.2679

            IN - OUT =         -10.5414              IN - OUT =      -1.6930E-02

 PERCENT DISCREPANCY =          -0.00     PERCENT DISCREPANCY =          -0.00






         TIME SUMMARY AT END OF TIME STEP    1 IN STRESS PERIOD    5
                    SECONDS     MINUTES      HOURS       DAYS        YEARS
                    -----------------------------------------------------------
   TIME STEP LENGTH 7.94880E+06 1.32480E+05  2208.0      92.000     0.25188    
 STRESS PERIOD TIME 7.94880E+06 1.32480E+05  2208.0      92.000     0.25188    
         TOTAL TIME 3.94848E+07 6.58080E+05  10968.      457.00      1.2512    
1
1
                            STRESS PERIOD NO.    6, LENGTH =   91.00000    
                            -----------------------------------------------

                              NUMBER OF TIME STEPS =     1

                               MULTIPLIER FOR DELT =     1.500

                            INITIAL TIME STEP SIZE =   91.00000    

 WELL NO.  LAYER   ROW   COL   STRESS RATE         
 --------------------------------------------------
      1      1     22     22     -0.3000E+05
      2      1      2     29       0.000    
      3      1      5     21     -0.5000E+05

      3 WELLS

                 RECHARGE =  2.000000E-03

 REUSING STREAM SEGMENT DATA FROM LAST STRESS PERIOD
 
 SOLVING FOR HEAD 


     6 CALLS TO PCG ROUTINE FOR TIME STEP   1 IN STRESS PERIOD    6
    22 TOTAL ITERATIONS

 OUTPUT CONTROL FOR STRESS PERIOD    6   TIME STEP    1
    SAVE BUDGET
    SAVE HEAD FOR ALL LAYERS
    PRINT HEAD FOR ALL LAYERS
 UBDSV2 SAVING "STREAMFLOW OUT  " ON UNIT  50 AT TIME STEP  1, STRESS PERIOD   6



 STREAM LISTING     PERIOD      6   STEP        1

 LAYER ROW COL. STREAM  RCH.  FLOW INTO     FLOW TO   FLOW OUT OF   OVRLND.     DIRECT     STREAM       STREAM     STREAM     STREAM   STREAMBED  STREAMBED
                SEG.NO.  NO.  STRM. RCH.    AQUIFER    STRM. RCH.    RUNOFF     PRECIP       ET          HEAD       DEPTH      WIDTH   CONDCTNC.   GRADIENT

   1   13    1     1     1    1.0000E+05 -2.8295E+04   1.2829E+05  0.000E+00  0.000E+00  0.000E+00  4.84180E+01  1.566E-01  2.000E+01  2.000E+04 -1.415E+00
   1   13    2     1     2    1.2829E+05 -3.8117E+04   1.6641E+05  0.000E+00  0.000E+00  0.000E+00  4.79666E+01  1.825E-01  2.000E+01  2.000E+04 -1.906E+00
   1   14    3     1     3    1.6641E+05 -3.3592E+04   2.0000E+05  0.000E+00  0.000E+00  0.000E+00  4.75148E+01  2.080E-01  2.000E+01  2.000E+04 -1.680E+00
   1   15    4     1     4    2.0000E+05 -3.2813E+04   2.3282E+05  0.000E+00  0.000E+00  0.000E+00  4.70594E+01  2.299E-01  2.000E+01  2.000E+04 -1.641E+00
   1   16    5     1     5    2.3282E+05 -3.4293E+04   2.6711E+05  0.000E+00  0.000E+00  0.000E+00  4.66029E+01  2.506E-01  2.000E+01  2.000E+04 -1.715E+00
   1   16    6     1     6    2.6711E+05 -2.9950E+04   2.9706E+05  0.000E+00  0.000E+00  0.000E+00  4.61445E+01  2.695E-01  2.000E+01  2.000E+04 -1.498E+00
   1   16    7     1     7    2.9706E+05 -2.9761E+04   3.2682E+05  0.000E+00  0.000E+00  0.000E+00  4.56840E+01  2.863E-01  2.000E+01  2.000E+04 -1.488E+00
   1   16    8     1     8    3.2682E+05 -2.9937E+04   3.5676E+05  0.000E+00  0.000E+00  0.000E+00  4.52229E+01  3.024E-01  2.000E+01  2.000E+04 -1.497E+00
   1   16    9     1     9    3.5676E+05 -3.0007E+04   3.8677E+05  0.000E+00  0.000E+00  0.000E+00  4.47612E+01  3.180E-01  2.000E+01  2.000E+04 -1.500E+00
   1   16   10     1    10    3.8677E+05 -3.0021E+04   4.1679E+05  0.000E+00  0.000E+00  0.000E+00  4.42991E+01  3.332E-01  2.000E+01  2.000E+04 -1.501E+00
   1   16   11     1    11    4.1679E+05 -3.0607E+04   4.4739E+05  0.000E+00  0.000E+00  0.000E+00  4.38367E+01  3.481E-01  2.000E+01  2.000E+04 -1.530E+00
   1   16   12     1    12    4.4739E+05 -3.6119E+04   4.8351E+05  0.000E+00  0.000E+00  0.000E+00  4.33753E+01  3.640E-01  2.000E+01  2.000E+04 -1.806E+00
   1   15   13     1    13    4.8351E+05 -3.4820E+04   5.1833E+05  0.000E+00  0.000E+00  0.000E+00  4.29144E+01  3.804E-01  2.000E+01  2.000E+04 -1.741E+00
   1   14   14     1    14    5.1833E+05 -3.5311E+04   5.5364E+05  0.000E+00  0.000E+00  0.000E+00  4.24529E+01  3.961E-01  2.000E+01  2.000E+04 -1.766E+00
   1   13   15     1    15    5.5364E+05 -3.7346E+04   5.9099E+05  0.000E+00  0.000E+00  0.000E+00  4.19916E+01  4.120E-01  2.000E+01  2.000E+04 -1.867E+00
   1   12   16     1    16    5.9099E+05 -4.2968E+04   6.3396E+05  0.000E+00  0.000E+00  0.000E+00  4.15314E+01  4.291E-01  2.000E+01  2.000E+04 -2.148E+00
   1   12   17     1    17    6.3396E+05 -3.3367E+04   6.6732E+05  0.000E+00  0.000E+00  0.000E+00  4.10700E+01  4.450E-01  2.000E+01  2.000E+04 -1.668E+00
   1   12   18     1    18    6.6732E+05 -3.1527E+04   6.9885E+05  0.000E+00  0.000E+00  0.000E+00  4.06059E+01  4.582E-01  2.000E+01  2.000E+04 -1.576E+00
   1   12   19     1    19    6.9885E+05 -3.5184E+04   7.3403E+05  0.000E+00  0.000E+00  0.000E+00  4.01419E+01  4.714E-01  2.000E+01  2.000E+04 -1.759E+00
   1   13   20     1    20    7.3403E+05 -2.5982E+04   7.6002E+05  0.000E+00  0.000E+00  0.000E+00  3.96766E+01  4.834E-01  2.000E+01  2.000E+04 -1.299E+00
   1   14   21     1    21    7.6002E+05 -1.9176E+04   7.7919E+05  0.000E+00  0.000E+00  0.000E+00  3.92080E+01  4.921E-01  2.000E+01  2.000E+04 -9.588E-01
   1   14   22     1    22    7.7919E+05 -1.4849E+03   7.8068E+05  0.000E+00  0.000E+00  0.000E+00  3.87347E+01  4.961E-01  2.000E+01  2.000E+04 -7.425E-02
   1    9   30     2     1    5.0000E+04 -2.6338E+04   7.6338E+04  0.000E+00  0.000E+00  0.000E+00  4.02583E+01  1.333E-01  2.000E+01  2.000E+04 -1.317E+00
   1    9   29     2     2    7.6338E+04 -2.8715E+04   1.0505E+05  0.000E+00  0.000E+00  0.000E+00  4.00406E+01  1.656E-01  2.000E+01  2.000E+04 -1.436E+00
   1    9   28     2     3    1.0505E+05 -3.2768E+04   1.3782E+05  0.000E+00  0.000E+00  0.000E+00  3.98223E+01  1.973E-01  2.000E+01  2.000E+04 -1.638E+00
   1    9   27     2     4    1.3782E+05 -4.6222E+04   1.8404E+05  0.000E+00  0.000E+00  0.000E+00  3.96086E+01  2.336E-01  2.000E+01  2.000E+04 -2.311E+00
   1   10   26     2     5    1.8404E+05 -3.2226E+04   2.1627E+05  0.000E+00  0.000E+00  0.000E+00  3.93913E+01  2.663E-01  2.000E+01  2.000E+04 -1.611E+00
   1   11   25     2     6    2.1627E+05 -2.3991E+04   2.4026E+05  0.000E+00  0.000E+00  0.000E+00  3.91632E+01  2.882E-01  2.000E+01  2.000E+04 -1.200E+00
   1   12   24     2     7    2.4026E+05 -1.7654E+04   2.5792E+05  0.000E+00  0.000E+00  0.000E+00  3.89287E+01  3.037E-01  2.000E+01  2.000E+04 -8.827E-01
   1   13   23     2     8    2.5792E+05 -1.2613E+04   2.7053E+05  0.000E+00  0.000E+00  0.000E+00  3.86896E+01  3.146E-01  2.000E+01  2.000E+04 -6.307E-01
   1   14   22     2     9    2.7053E+05 -7.2467E+03   2.7778E+05  0.000E+00  0.000E+00  0.000E+00  3.84466E+01  3.216E-01  2.000E+01  2.000E+04 -3.623E-01
   1   14   22     3     1    1.0585E+06 -1.5137E+04   1.0736E+06  0.000E+00  0.000E+00  0.000E+00  3.80521E+01  4.965E-01  2.000E+01  2.000E+04 -7.569E-01
   1   15   23     3     2    1.0736E+06 -2.3130E+04   1.0967E+06  0.000E+00  0.000E+00  0.000E+00  3.71685E+01  5.019E-01  2.000E+01  2.000E+04 -1.157E+00
   1   15   24     3     3    1.0967E+06 -1.9347E+04   1.1161E+06  0.000E+00  0.000E+00  0.000E+00  3.62855E+01  5.077E-01  2.000E+01  2.000E+04 -9.674E-01
   1   15   25     3     4    1.1161E+06 -1.9076E+04   1.1351E+06  0.000E+00  0.000E+00  0.000E+00  3.54019E+01  5.130E-01  2.000E+01  2.000E+04 -9.538E-01
   1   15   26     3     5    1.1351E+06 -2.1984E+04   1.1571E+06  0.000E+00  0.000E+00  0.000E+00  3.45186E+01  5.186E-01  2.000E+01  2.000E+04 -1.099E+00
   1   16   27     3     6    1.1571E+06 -2.9047E+04   1.1862E+06  0.000E+00  0.000E+00  0.000E+00  3.36366E+01  5.255E-01  2.000E+01  2.000E+04 -1.452E+00
   1   17   28     3     7    1.1862E+06 -3.6079E+04   1.2223E+06  0.000E+00  0.000E+00  0.000E+00  3.27564E+01  5.342E-01  2.000E+01  2.000E+04 -1.804E+00
   1   18   29     3     8    1.2223E+06 -4.7057E+04   1.2693E+06  0.000E+00  0.000E+00  0.000E+00  3.18785E+01  5.452E-01  2.000E+01  2.000E+04 -2.353E+00
   1   18   30     3     9    1.2693E+06 -4.3660E+04   1.3130E+06  0.000E+00  0.000E+00  0.000E+00  3.10015E+01  5.570E-01  2.000E+01  2.000E+04 -2.183E+00



1
              HEAD IN LAYER   1 AT END OF TIME STEP   1 IN STRESS PERIOD    6
  ---------------------------------------------------------------------------

          1      2      3      4      5      6      7      8      9     10
         11     12     13     14     15     16     17     18     19     20
         21     22     23     24     25     26     27     28     29     30
 .........................................................................
   1  ****** ****** ****** ****** ****** ****** ****** ****** ****** ******
      ****** ****** ****** ****** ****** ****** ****** ****** ****** ******
      ****** ****** ****** ****** ****** ****** ****** ****** ****** ******
   2  ****** ****** ****** ****** ****** ****** ****** ****** ****** ******
      ****** ****** ****** ****** ****** ****** ****** ****** ****** ******
      ****** ****** ****** ****** ****** ****** ****** ****** ****** ******
   3  ****** ****** ****** ****** ****** ****** ****** ****** ****** ******
      ****** ****** ****** ****** ****** ****** ****** ****** ****** ******
      ****** ****** ****** ****** ****** ****** ****** ****** ****** ******
   4  ****** ****** ****** ****** ****** ****** ****** ****** ****** ******
      ****** ****** ****** ****** ****** ****** ****** ****** ****** ******
      ****** ****** ****** ****** ****** ****** ****** ****** ****** ******
   5  ****** ****** ****** ****** ****** ****** ****** ****** ****** ******
      ****** ****** ****** ****** ****** ****** ****** ****** ****** ******
      ****** ****** ****** ****** ****** ****** ****** ****** ****** ******
   6  ****** ****** ****** ****** ****** ****** ****** ****** ****** ******
      ****** ****** ****** ****** ****** ****** ****** ****** ****** ******
      ****** ****** ****** ****** ****** ****** ****** ****** ****** ******
   7  ****** ****** ****** ****** ****** ****** ****** ****** ****** ******
      ****** ****** ****** ****** ****** ****** ****** ****** ****** ******
      ****** ****** ****** ****** ****** ****** ****** ****** ****** ******
   8  ****** ****** ****** ****** ****** ****** ****** ****** ****** ******
      ****** ****** ****** ****** ****** ****** ****** ****** ****** ******
      ****** ****** ****** ****** ****** ****** ****** ****** ****** ******
   9  ****** ****** ****** ****** ****** ****** ****** ****** ****** ******
      ****** ****** ****** ****** ****** ****** ****** ****** ****** ******
      ****** ****** ****** ****** ****** ****** ****** ****** ****** ******
  10  ****** ****** ****** ****** ****** ****** ****** ****** ****** ******
      ****** ****** ****** ****** ****** ****** ****** ****** ****** ******
      ****** ****** ****** ****** ****** ****** ****** ****** ****** ******
  11  ****** ****** ****** ****** ****** ****** ****** ****** ****** ******
      ****** ****** ****** ****** ****** ****** ****** ****** ****** ******
      ****** ****** ****** ****** ****** ****** ****** ****** ****** ******
  12  ****** ****** ****** ****** ****** ****** ****** ****** ****** ******
      ****** ****** ****** ****** ****** ****** ****** ****** ****** ******
      ****** ****** ****** ****** ****** ****** ****** ****** ****** ******
  13  ****** ****** ****** ****** ****** ****** ****** ****** ****** ******
      ****** ****** ****** ****** ****** ****** ****** ****** ****** ******
      ****** ****** ****** ****** ****** ****** ****** ****** ****** ******
  14  ****** ****** ****** ****** ****** ****** ****** ****** ****** ******
      ****** ****** ****** ****** ****** ****** ****** ****** ****** ******
      ****** ****** ****** ****** ****** ****** ****** ****** ****** ******
  15  ****** ****** ****** ****** ****** ****** ****** ****** ****** ******
      ****** ****** ****** ****** ****** ****** ****** ****** ****** ******
      ****** ****** ****** ****** ****** ****** ****** ****** ****** ******
  16  ****** ****** ****** ****** ****** ****** ****** ****** ****** ******
      ****** ****** ****** ****** ****** ****** ****** ****** ****** ******
      ****** ****** ****** ****** ****** ****** ****** ****** ****** ******
  17  ****** ****** ****** ****** ****** ****** ****** ****** ****** ******
      ****** ****** ****** ****** ****** ****** ****** ****** ****** ******
      ****** ****** ****** ****** ****** ****** ****** ****** ****** ******
  18  ****** ****** ****** ****** ****** ****** ****** ****** ****** ******
      ****** ****** ****** ****** ****** ****** ****** ****** ****** ******
      ****** ****** ****** ****** ****** ****** ****** ****** ****** ******
  19  ****** ****** ****** ****** ****** ****** ****** ****** ****** ******
      ****** ****** ****** ****** ****** ****** ****** ****** ****** ******
      ****** ****** ****** ****** ****** ****** ****** ****** ****** ******
  20  ****** ****** ****** ****** ****** ****** ****** ****** ****** ******
      ****** ****** ****** ****** ****** ****** ****** ****** ****** ******
      ****** ****** ****** ****** ****** ****** ****** ****** ****** ******
  21  ****** ****** ****** ****** ****** ****** ****** ****** ****** ******
      ****** ****** ****** ****** ****** ****** ****** ****** ****** ******
      ****** ****** ****** ****** ****** ****** ****** ****** ****** ******
  22  ****** ****** ****** ****** ****** ****** ****** ****** ****** ******
      ****** ****** ****** ****** ****** ****** ****** ****** ****** ******
      ****** ****** ****** ****** ****** ****** ****** ****** ****** ******
  23  ****** ****** ****** ****** ****** ****** ****** ****** ****** ******
      ****** ****** ****** ****** ****** ****** ****** ****** ****** ******
      ****** ****** ****** ****** ****** ****** ****** ****** ****** ******
  24  ****** ****** ****** ****** ****** ****** ****** ****** ****** ******
      ****** ****** ****** ****** ****** ****** ****** ****** ****** ******
      ****** ****** ****** ****** ****** ****** ****** ****** ****** ******
  25  ****** ****** ****** ****** ****** ****** ****** ****** ****** ******
      ****** ****** ****** ****** ****** ****** ****** ****** ****** ******
      ****** ****** ****** ****** ****** ****** ****** ****** ****** ******

 HEAD WILL BE SAVED ON UNIT   51 AT END OF TIME STEP    1, STRESS PERIOD    6
1
  VOLUMETRIC BUDGET FOR ENTIRE MODEL AT END OF TIME STEP    1, STRESS PERIOD   6
  ------------------------------------------------------------------------------

     CUMULATIVE VOLUMES      L**3       RATES FOR THIS TIME STEP      L**3/T
     ------------------                 ------------------------

           IN:                                      IN:
           ---                                      ---
             STORAGE =    20467927.1225               STORAGE =           0.0000
       CONSTANT HEAD =   664527007.5701         CONSTANT HEAD =     1190559.0694
               WELLS =           0.0000                 WELLS =           0.0000
            RECHARGE =    15097200.0000              RECHARGE =       55200.0000
      STREAM LEAKAGE =           0.0000        STREAM LEAKAGE =           0.0000

            TOTAL IN =   700092134.6926              TOTAL IN =     1245759.0694

          OUT:                                     OUT:
          ----                                     ----
             STORAGE =      471342.6408               STORAGE =        2786.6118
       CONSTANT HEAD =           0.0000         CONSTANT HEAD =           0.0000
               WELLS =    57590000.0000                 WELLS =       80000.0000
            RECHARGE =           0.0000              RECHARGE =           0.0000
      STREAM LEAKAGE =   642030799.0841        STREAM LEAKAGE =     1162972.4190

           TOTAL OUT =   700092141.7249             TOTAL OUT =     1245759.0309

            IN - OUT =          -7.0323              IN - OUT =       3.8562E-02

 PERCENT DISCREPANCY =          -0.00     PERCENT DISCREPANCY =           0.00






         TIME SUMMARY AT END OF TIME STEP    1 IN STRESS PERIOD    6
                    SECONDS     MINUTES      HOURS       DAYS        YEARS
                    -----------------------------------------------------------
   TIME STEP LENGTH 7.86240E+06 1.31040E+05  2184.0      91.000     0.24914    
 STRESS PERIOD TIME 7.86240E+06 1.31040E+05  2184.0      91.000     0.24914    
         TOTAL TIME 4.73472E+07 7.89120E+05  13152.      548.00      1.5003    
1
1
                            STRESS PERIOD NO.    7, LENGTH =   91.00000    
                            -----------------------------------------------

                              NUMBER OF TIME STEPS =     1

                               MULTIPLIER FOR DELT =     1.500

                            INITIAL TIME STEP SIZE =   91.00000    

 WELL NO.  LAYER   ROW   COL   STRESS RATE         
 --------------------------------------------------
      1      1     22     22     -0.3000E+05
      2      1      2     29     -0.5000E+05
      3      1      5     21     -0.5000E+05

      3 WELLS

                 RECHARGE =   0.00000    

 REUSING STREAM SEGMENT DATA FROM LAST STRESS PERIOD
 
 SOLVING FOR HEAD 


     6 CALLS TO PCG ROUTINE FOR TIME STEP   1 IN STRESS PERIOD    7
    23 TOTAL ITERATIONS

 OUTPUT CONTROL FOR STRESS PERIOD    7   TIME STEP    1
    SAVE BUDGET
    SAVE HEAD FOR ALL LAYERS
    PRINT HEAD FOR ALL LAYERS
 UBDSV2 SAVING "STREAMFLOW OUT  " ON UNIT  50 AT TIME STEP  1, STRESS PERIOD   7



 STREAM LISTING     PERIOD      7   STEP        1

 LAYER ROW COL. STREAM  RCH.  FLOW INTO     FLOW TO   FLOW OUT OF   OVRLND.     DIRECT     STREAM       STREAM     STREAM     STREAM   STREAMBED  STREAMBED
                SEG.NO.  NO.  STRM. RCH.    AQUIFER    STRM. RCH.    RUNOFF     PRECIP       ET          HEAD       DEPTH      WIDTH   CONDCTNC.   GRADIENT

   1   13    1     1     1    1.0000E+05 -2.7447E+04   1.2745E+05  0.000E+00  0.000E+00  0.000E+00  4.84176E+01  1.563E-01  2.000E+01  2.000E+04 -1.372E+00
   1   13    2     1     2    1.2745E+05 -3.7105E+04   1.6455E+05  0.000E+00  0.000E+00  0.000E+00  4.79656E+01  1.815E-01  2.000E+01  2.000E+04 -1.855E+00
   1   14    3     1     3    1.6455E+05 -3.2599E+04   1.9715E+05  0.000E+00  0.000E+00  0.000E+00  4.75132E+01  2.064E-01  2.000E+01  2.000E+04 -1.630E+00
   1   15    4     1     4    1.9715E+05 -3.1858E+04   2.2901E+05  0.000E+00  0.000E+00  0.000E+00  4.70573E+01  2.277E-01  2.000E+01  2.000E+04 -1.593E+00
   1   16    5     1     5    2.2901E+05 -3.3430E+04   2.6244E+05  0.000E+00  0.000E+00  0.000E+00  4.66004E+01  2.481E-01  2.000E+01  2.000E+04 -1.671E+00
   1   16    6     1     6    2.6244E+05 -2.9200E+04   2.9164E+05  0.000E+00  0.000E+00  0.000E+00  4.61416E+01  2.666E-01  2.000E+01  2.000E+04 -1.460E+00
   1   16    7     1     7    2.9164E+05 -2.9018E+04   3.2066E+05  0.000E+00  0.000E+00  0.000E+00  4.56808E+01  2.831E-01  2.000E+01  2.000E+04 -1.451E+00
   1   16    8     1     8    3.2066E+05 -2.9191E+04   3.4985E+05  0.000E+00  0.000E+00  0.000E+00  4.52194E+01  2.989E-01  2.000E+01  2.000E+04 -1.460E+00
   1   16    9     1     9    3.4985E+05 -2.9262E+04   3.7911E+05  0.000E+00  0.000E+00  0.000E+00  4.47575E+01  3.143E-01  2.000E+01  2.000E+04 -1.463E+00
   1   16   10     1    10    3.7911E+05 -2.9277E+04   4.0839E+05  0.000E+00  0.000E+00  0.000E+00  4.42951E+01  3.292E-01  2.000E+01  2.000E+04 -1.464E+00
   1   16   11     1    11    4.0839E+05 -2.9852E+04   4.3824E+05  0.000E+00  0.000E+00  0.000E+00  4.38324E+01  3.438E-01  2.000E+01  2.000E+04 -1.493E+00
   1   16   12     1    12    4.3824E+05 -3.5240E+04   4.7348E+05  0.000E+00  0.000E+00  0.000E+00  4.33708E+01  3.594E-01  2.000E+01  2.000E+04 -1.762E+00
   1   15   13     1    13    4.7348E+05 -3.3847E+04   5.0733E+05  0.000E+00  0.000E+00  0.000E+00  4.29096E+01  3.755E-01  2.000E+01  2.000E+04 -1.692E+00
   1   14   14     1    14    5.0733E+05 -3.4304E+04   5.4163E+05  0.000E+00  0.000E+00  0.000E+00  4.24478E+01  3.910E-01  2.000E+01  2.000E+04 -1.715E+00
   1   13   15     1    15    5.4163E+05 -3.6339E+04   5.7797E+05  0.000E+00  0.000E+00  0.000E+00  4.19861E+01  4.066E-01  2.000E+01  2.000E+04 -1.817E+00
   1   12   16     1    16    5.7797E+05 -4.1980E+04   6.1995E+05  0.000E+00  0.000E+00  0.000E+00  4.15257E+01  4.234E-01  2.000E+01  2.000E+04 -2.099E+00
   1   12   17     1    17    6.1995E+05 -3.2560E+04   6.5251E+05  0.000E+00  0.000E+00  0.000E+00  4.10640E+01  4.390E-01  2.000E+01  2.000E+04 -1.628E+00
   1   12   18     1    18    6.5251E+05 -3.0742E+04   6.8325E+05  0.000E+00  0.000E+00  0.000E+00  4.05997E+01  4.520E-01  2.000E+01  2.000E+04 -1.537E+00
   1   12   19     1    19    6.8325E+05 -3.4299E+04   7.1755E+05  0.000E+00  0.000E+00  0.000E+00  4.01355E+01  4.651E-01  2.000E+01  2.000E+04 -1.715E+00
   1   13   20     1    20    7.1755E+05 -2.5171E+04   7.4272E+05  0.000E+00  0.000E+00  0.000E+00  3.96700E+01  4.768E-01  2.000E+01  2.000E+04 -1.259E+00
   1   14   21     1    21    7.4272E+05 -1.8494E+04   7.6121E+05  0.000E+00  0.000E+00  0.000E+00  3.92012E+01  4.853E-01  2.000E+01  2.000E+04 -9.247E-01
   1   14   22     1    22    7.6121E+05 -1.2155E+03   7.6243E+05  0.000E+00  0.000E+00  0.000E+00  3.87278E+01  4.891E-01  2.000E+01  2.000E+04 -6.078E-02
   1    9   30     2     1    5.0000E+04 -2.4785E+04   7.4785E+04  0.000E+00  0.000E+00  0.000E+00  4.02573E+01  1.323E-01  2.000E+01  2.000E+04 -1.239E+00
   1    9   29     2     2    7.4785E+04 -2.7213E+04   1.0200E+05  0.000E+00  0.000E+00  0.000E+00  4.00381E+01  1.631E-01  2.000E+01  2.000E+04 -1.361E+00
   1    9   28     2     3    1.0200E+05 -3.1315E+04   1.3331E+05  0.000E+00  0.000E+00  0.000E+00  3.98186E+01  1.936E-01  2.000E+01  2.000E+04 -1.566E+00
   1    9   27     2     4    1.3331E+05 -4.4615E+04   1.7793E+05  0.000E+00  0.000E+00  0.000E+00  3.96040E+01  2.290E-01  2.000E+01  2.000E+04 -2.231E+00
   1   10   26     2     5    1.7793E+05 -3.1024E+04   2.0895E+05  0.000E+00  0.000E+00  0.000E+00  3.93859E+01  2.609E-01  2.000E+01  2.000E+04 -1.551E+00
   1   11   25     2     6    2.0895E+05 -2.3014E+04   2.3197E+05  0.000E+00  0.000E+00  0.000E+00  3.91572E+01  2.822E-01  2.000E+01  2.000E+04 -1.151E+00
   1   12   24     2     7    2.3197E+05 -1.6863E+04   2.4883E+05  0.000E+00  0.000E+00  0.000E+00  3.89223E+01  2.973E-01  2.000E+01  2.000E+04 -8.432E-01
   1   13   23     2     8    2.4883E+05 -1.2017E+04   2.6085E+05  0.000E+00  0.000E+00  0.000E+00  3.86828E+01  3.078E-01  2.000E+01  2.000E+04 -6.008E-01
   1   14   22     2     9    2.6085E+05 -6.9776E+03   2.6782E+05  0.000E+00  0.000E+00  0.000E+00  3.84397E+01  3.147E-01  2.000E+01  2.000E+04 -3.489E-01
   1   14   22     3     1    1.0303E+06 -1.4888E+04   1.0451E+06  0.000E+00  0.000E+00  0.000E+00  3.80441E+01  4.886E-01  2.000E+01  2.000E+04 -7.444E-01
   1   15   23     3     2    1.0451E+06 -2.2516E+04   1.0677E+06  0.000E+00  0.000E+00  0.000E+00  3.71605E+01  4.939E-01  2.000E+01  2.000E+04 -1.126E+00
   1   15   24     3     3    1.0677E+06 -1.8833E+04   1.0865E+06  0.000E+00  0.000E+00  0.000E+00  3.62774E+01  4.996E-01  2.000E+01  2.000E+04 -9.416E-01
   1   15   25     3     4    1.0865E+06 -1.8559E+04   1.1051E+06  0.000E+00  0.000E+00  0.000E+00  3.53937E+01  5.048E-01  2.000E+01  2.000E+04 -9.280E-01
   1   15   26     3     5    1.1051E+06 -2.1372E+04   1.1264E+06  0.000E+00  0.000E+00  0.000E+00  3.45103E+01  5.103E-01  2.000E+01  2.000E+04 -1.069E+00
   1   16   27     3     6    1.1264E+06 -2.8324E+04   1.1547E+06  0.000E+00  0.000E+00  0.000E+00  3.36282E+01  5.171E-01  2.000E+01  2.000E+04 -1.416E+00
   1   17   28     3     7    1.1547E+06 -3.5346E+04   1.1901E+06  0.000E+00  0.000E+00  0.000E+00  3.27479E+01  5.257E-01  2.000E+01  2.000E+04 -1.767E+00
   1   18   29     3     8    1.1901E+06 -4.6376E+04   1.2365E+06  0.000E+00  0.000E+00  0.000E+00  3.18700E+01  5.366E-01  2.000E+01  2.000E+04 -2.319E+00
   1   18   30     3     9    1.2365E+06 -4.3090E+04   1.2796E+06  0.000E+00  0.000E+00  0.000E+00  3.09929E+01  5.484E-01  2.000E+01  2.000E+04 -2.155E+00



1
              HEAD IN LAYER   1 AT END OF TIME STEP   1 IN STRESS PERIOD    7
  ---------------------------------------------------------------------------

          1      2      3      4      5      6      7      8      9     10
         11     12     13     14     15     16     17     18     19     20
         21     22     23     24     25     26     27     28     29     30
 .........................................................................
   1  ****** ****** ****** ****** ****** ****** ****** ****** ****** ******
      ****** ****** ****** ****** ****** ****** ****** ****** ****** ******
      ****** ****** ****** ****** ****** ****** ****** ****** ****** ******
   2  ****** ****** ****** ****** ****** ****** ****** ****** ****** ******
      ****** ****** ****** ****** ****** ****** ****** ****** ****** ******
      ****** ****** ****** ****** ****** ****** ****** ****** ****** ******
   3  ****** ****** ****** ****** ****** ****** ****** ****** ****** ******
      ****** ****** ****** ****** ****** ****** ****** ****** ****** ******
      ****** ****** ****** ****** ****** ****** ****** ****** ****** ******
   4  ****** ****** ****** ****** ****** ****** ****** ****** ****** ******
      ****** ****** ****** ****** ****** ****** ****** ****** ****** ******
      ****** ****** ****** ****** ****** ****** ****** ****** ****** ******
   5  ****** ****** ****** ****** ****** ****** ****** ****** ****** ******
      ****** ****** ****** ****** ****** ****** ****** ****** ****** ******
      ****** ****** ****** ****** ****** ****** ****** ****** ****** ******
   6  ****** ****** ****** ****** ****** ****** ****** ****** ****** ******
      ****** ****** ****** ****** ****** ****** ****** ****** ****** ******
      ****** ****** ****** ****** ****** ****** ****** ****** ****** ******
   7  ****** ****** ****** ****** ****** ****** ****** ****** ****** ******
      ****** ****** ****** ****** ****** ****** ****** ****** ****** ******
      ****** ****** ****** ****** ****** ****** ****** ****** ****** ******
   8  ****** ****** ****** ****** ****** ****** ****** ****** ****** ******
      ****** ****** ****** ****** ****** ****** ****** ****** ****** ******
      ****** ****** ****** ****** ****** ****** ****** ****** ****** ******
   9  ****** ****** ****** ****** ****** ****** ****** ****** ****** ******
      ****** ****** ****** ****** ****** ****** ****** ****** ****** ******
      ****** ****** ****** ****** ****** ****** ****** ****** ****** ******
  10  ****** ****** ****** ****** ****** ****** ****** ****** ****** ******
      ****** ****** ****** ****** ****** ****** ****** ****** ****** ******
      ****** ****** ****** ****** ****** ****** ****** ****** ****** ******
  11  ****** ****** ****** ****** ****** ****** ****** ****** ****** ******
      ****** ****** ****** ****** ****** ****** ****** ****** ****** ******
      ****** ****** ****** ****** ****** ****** ****** ****** ****** ******
  12  ****** ****** ****** ****** ****** ****** ****** ****** ****** ******
      ****** ****** ****** ****** ****** ****** ****** ****** ****** ******
      ****** ****** ****** ****** ****** ****** ****** ****** ****** ******
  13  ****** ****** ****** ****** ****** ****** ****** ****** ****** ******
      ****** ****** ****** ****** ****** ****** ****** ****** ****** ******
      ****** ****** ****** ****** ****** ****** ****** ****** ****** ******
  14  ****** ****** ****** ****** ****** ****** ****** ****** ****** ******
      ****** ****** ****** ****** ****** ****** ****** ****** ****** ******
      ****** ****** ****** ****** ****** ****** ****** ****** ****** ******
  15  ****** ****** ****** ****** ****** ****** ****** ****** ****** ******
      ****** ****** ****** ****** ****** ****** ****** ****** ****** ******
      ****** ****** ****** ****** ****** ****** ****** ****** ****** ******
  16  ****** ****** ****** ****** ****** ****** ****** ****** ****** ******
      ****** ****** ****** ****** ****** ****** ****** ****** ****** ******
      ****** ****** ****** ****** ****** ****** ****** ****** ****** ******
  17  ****** ****** ****** ****** ****** ****** ****** ****** ****** ******
      ****** ****** ****** ****** ****** ****** ****** ****** ****** ******
      ****** ****** ****** ****** ****** ****** ****** ****** ****** ******
  18  ****** ****** ****** ****** ****** ****** ****** ****** ****** ******
      ****** ****** ****** ****** ****** ****** ****** ****** ****** ******
      ****** ****** ****** ****** ****** ****** ****** ****** ****** ******
  19  ****** ****** ****** ****** ****** ****** ****** ****** ****** ******
      ****** ****** ****** ****** ****** ****** ****** ****** ****** ******
      ****** ****** ****** ****** ****** ****** ****** ****** ****** ******
  20  ****** ****** ****** ****** ****** ****** ****** ****** ****** ******
      ****** ****** ****** ****** ****** ****** ****** ****** ****** ******
      ****** ****** ****** ****** ****** ****** ****** ****** ****** ******
  21  ****** ****** ****** ****** ****** ****** ****** ****** ****** ******
      ****** ****** ****** ****** ****** ****** ****** ****** ****** ******
      ****** ****** ****** ****** ****** ****** ****** ****** ****** ******
  22  ****** ****** ****** ****** ****** ****** ****** ****** ****** ******
      ****** ****** ****** ****** ****** ****** ****** ****** ****** ******
      ****** ****** ****** ****** ****** ****** ****** ****** ****** ******
  23  ****** ****** ****** ****** ****** ****** ****** ****** ****** ******
      ****** ****** ****** ****** ****** ****** ****** ****** ****** ******
      ****** ****** ****** ****** ****** ****** ****** ****** ****** ******
  24  ****** ****** ****** ****** ****** ****** ****** ****** ****** ******
      ****** ****** ****** ****** ****** ****** ****** ****** ****** ******
      ****** ****** ****** ****** ****** ****** ****** ****** ****** ******
  25  ****** ****** ****** ****** ****** ****** ****** ****** ****** ******
      ****** ****** ****** ****** ****** ****** ****** ****** ****** ******
      ****** ****** ****** ****** ****** ****** ****** ****** ****** ******

 HEAD WILL BE SAVED ON UNIT   51 AT END OF TIME STEP    1, STRESS PERIOD    7
1
  VOLUMETRIC BUDGET FOR ENTIRE MODEL AT END OF TIME STEP    1, STRESS PERIOD   7
  ------------------------------------------------------------------------------

     CUMULATIVE VOLUMES      L**3       RATES FOR THIS TIME STEP      L**3/T
     ------------------                 ------------------------

           IN:                                      IN:
           ---                                      ---
             STORAGE =    20774124.3852               STORAGE =        3364.8051
       CONSTANT HEAD =   778840683.7030         CONSTANT HEAD =     1256194.2432
               WELLS =           0.0000                 WELLS =           0.0000
            RECHARGE =    15097200.0000              RECHARGE =           0.0000
      STREAM LEAKAGE =           0.0000        STREAM LEAKAGE =           0.0000

            TOTAL IN =   814712008.0882              TOTAL IN =     1259559.0483

          OUT:                                     OUT:
          ----                                     ----
             STORAGE =      471342.6408               STORAGE =           0.0000
       CONSTANT HEAD =           0.0000         CONSTANT HEAD =           0.0000
               WELLS =    69420000.0000                 WELLS =      130000.0000
            RECHARGE =           0.0000              RECHARGE =           0.0000
      STREAM LEAKAGE =   744820675.9980        STREAM LEAKAGE =     1129559.0870

           TOTAL OUT =   814712018.6388             TOTAL OUT =     1259559.0870

            IN - OUT =         -10.5506              IN - OUT =      -3.8662E-02

 PERCENT DISCREPANCY =          -0.00     PERCENT DISCREPANCY =          -0.00






         TIME SUMMARY AT END OF TIME STEP    1 IN STRESS PERIOD    7
                    SECONDS     MINUTES      HOURS       DAYS        YEARS
                    -----------------------------------------------------------
   TIME STEP LENGTH 7.86240E+06 1.31040E+05  2184.0      91.000     0.24914    
 STRESS PERIOD TIME 7.86240E+06 1.31040E+05  2184.0      91.000     0.24914    
         TOTAL TIME 5.52096E+07 9.20160E+05  15336.      639.00      1.7495    
1
1
                            STRESS PERIOD NO.    8, LENGTH =   91.00000    
                            -----------------------------------------------

                              NUMBER OF TIME STEPS =     1

                               MULTIPLIER FOR DELT =     1.500

                            INITIAL TIME STEP SIZE =   91.00000    

 WELL NO.  LAYER   ROW   COL   STRESS RATE         
 --------------------------------------------------
      1      1     22     22     -0.3000E+05
      2      1      2     29       0.000    
      3      1      5     21     -0.5000E+05

      3 WELLS

                 RECHARGE =  1.000000E-03

 REUSING STREAM SEGMENT DATA FROM LAST STRESS PERIOD
 
 SOLVING FOR HEAD 


     6 CALLS TO PCG ROUTINE FOR TIME STEP   1 IN STRESS PERIOD    8
    22 TOTAL ITERATIONS

 OUTPUT CONTROL FOR STRESS PERIOD    8   TIME STEP    1
    SAVE BUDGET
    SAVE HEAD FOR ALL LAYERS
    PRINT HEAD FOR ALL LAYERS
 UBDSV2 SAVING "STREAMFLOW OUT  " ON UNIT  50 AT TIME STEP  1, STRESS PERIOD   8



 STREAM LISTING     PERIOD      8   STEP        1

 LAYER ROW COL. STREAM  RCH.  FLOW INTO     FLOW TO   FLOW OUT OF   OVRLND.     DIRECT     STREAM       STREAM     STREAM     STREAM   STREAMBED  STREAMBED
                SEG.NO.  NO.  STRM. RCH.    AQUIFER    STRM. RCH.    RUNOFF     PRECIP       ET          HEAD       DEPTH      WIDTH   CONDCTNC.   GRADIENT

   1   13    1     1     1    1.0000E+05 -2.7841E+04   1.2784E+05  0.000E+00  0.000E+00  0.000E+00  4.84178E+01  1.564E-01  2.000E+01  2.000E+04 -1.392E+00
   1   13    2     1     2    1.2784E+05 -3.7574E+04   1.6542E+05  0.000E+00  0.000E+00  0.000E+00  4.79661E+01  1.820E-01  2.000E+01  2.000E+04 -1.879E+00
   1   14    3     1     3    1.6542E+05 -3.3063E+04   1.9848E+05  0.000E+00  0.000E+00  0.000E+00  4.75140E+01  2.072E-01  2.000E+01  2.000E+04 -1.653E+00
   1   15    4     1     4    1.9848E+05 -3.2306E+04   2.3078E+05  0.000E+00  0.000E+00  0.000E+00  4.70583E+01  2.287E-01  2.000E+01  2.000E+04 -1.615E+00
   1   16    5     1     5    2.3078E+05 -3.3836E+04   2.6462E+05  0.000E+00  0.000E+00  0.000E+00  4.66015E+01  2.493E-01  2.000E+01  2.000E+04 -1.692E+00
   1   16    6     1     6    2.6462E+05 -2.9553E+04   2.9417E+05  0.000E+00  0.000E+00  0.000E+00  4.61430E+01  2.680E-01  2.000E+01  2.000E+04 -1.478E+00
   1   16    7     1     7    2.9417E+05 -2.9367E+04   3.2354E+05  0.000E+00  0.000E+00  0.000E+00  4.56823E+01  2.846E-01  2.000E+01  2.000E+04 -1.468E+00
   1   16    8     1     8    3.2354E+05 -2.9542E+04   3.5308E+05  0.000E+00  0.000E+00  0.000E+00  4.52210E+01  3.005E-01  2.000E+01  2.000E+04 -1.477E+00
   1   16    9     1     9    3.5308E+05 -2.9613E+04   3.8270E+05  0.000E+00  0.000E+00  0.000E+00  4.47592E+01  3.160E-01  2.000E+01  2.000E+04 -1.481E+00
   1   16   10     1    10    3.8270E+05 -2.9627E+04   4.1232E+05  0.000E+00  0.000E+00  0.000E+00  4.42970E+01  3.311E-01  2.000E+01  2.000E+04 -1.481E+00
   1   16   11     1    11    4.1232E+05 -3.0208E+04   4.4253E+05  0.000E+00  0.000E+00  0.000E+00  4.38344E+01  3.458E-01  2.000E+01  2.000E+04 -1.510E+00
   1   16   12     1    12    4.4253E+05 -3.5654E+04   4.7819E+05  0.000E+00  0.000E+00  0.000E+00  4.33729E+01  3.616E-01  2.000E+01  2.000E+04 -1.783E+00
   1   15   13     1    13    4.7819E+05 -3.4306E+04   5.1249E+05  0.000E+00  0.000E+00  0.000E+00  4.29119E+01  3.778E-01  2.000E+01  2.000E+04 -1.715E+00
   1   14   14     1    14    5.1249E+05 -3.4780E+04   5.4727E+05  0.000E+00  0.000E+00  0.000E+00  4.24502E+01  3.934E-01  2.000E+01  2.000E+04 -1.739E+00
   1   13   15     1    15    5.4727E+05 -3.6818E+04   5.8409E+05  0.000E+00  0.000E+00  0.000E+00  4.19887E+01  4.091E-01  2.000E+01  2.000E+04 -1.841E+00
   1   12   16     1    16    5.8409E+05 -4.2458E+04   6.2655E+05  0.000E+00  0.000E+00  0.000E+00  4.15284E+01  4.261E-01  2.000E+01  2.000E+04 -2.123E+00
   1   12   17     1    17    6.2655E+05 -3.2958E+04   6.5950E+05  0.000E+00  0.000E+00  0.000E+00  4.10668E+01  4.418E-01  2.000E+01  2.000E+04 -1.648E+00
   1   12   18     1    18    6.5950E+05 -3.1137E+04   6.9064E+05  0.000E+00  0.000E+00  0.000E+00  4.06026E+01  4.549E-01  2.000E+01  2.000E+04 -1.557E+00
   1   12   19     1    19    6.9064E+05 -3.4758E+04   7.2540E+05  0.000E+00  0.000E+00  0.000E+00  4.01386E+01  4.681E-01  2.000E+01  2.000E+04 -1.738E+00
   1   13   20     1    20    7.2540E+05 -2.5585E+04   7.5098E+05  0.000E+00  0.000E+00  0.000E+00  3.96732E+01  4.800E-01  2.000E+01  2.000E+04 -1.279E+00
   1   14   21     1    21    7.5098E+05 -1.8834E+04   7.6982E+05  0.000E+00  0.000E+00  0.000E+00  3.92045E+01  4.886E-01  2.000E+01  2.000E+04 -9.417E-01
   1   14   22     1    22    7.6982E+05 -1.3655E+03   7.7118E+05  0.000E+00  0.000E+00  0.000E+00  3.87311E+01  4.925E-01  2.000E+01  2.000E+04 -6.827E-02
   1    9   30     2     1    5.0000E+04 -2.6034E+04   7.6034E+04  0.000E+00  0.000E+00  0.000E+00  4.02581E+01  1.331E-01  2.000E+01  2.000E+04 -1.302E+00
   1    9   29     2     2    7.6034E+04 -2.8411E+04   1.0445E+05  0.000E+00  0.000E+00  0.000E+00  4.00401E+01  1.651E-01  2.000E+01  2.000E+04 -1.421E+00
   1    9   28     2     3    1.0445E+05 -3.2453E+04   1.3690E+05  0.000E+00  0.000E+00  0.000E+00  3.98216E+01  1.966E-01  2.000E+01  2.000E+04 -1.623E+00
   1    9   27     2     4    1.3690E+05 -4.5835E+04   1.8273E+05  0.000E+00  0.000E+00  0.000E+00  3.96077E+01  2.327E-01  2.000E+01  2.000E+04 -2.292E+00
   1   10   26     2     5    1.8273E+05 -3.1825E+04   2.1456E+05  0.000E+00  0.000E+00  0.000E+00  3.93901E+01  2.651E-01  2.000E+01  2.000E+04 -1.591E+00
   1   11   25     2     6    2.1456E+05 -2.3605E+04   2.3816E+05  0.000E+00  0.000E+00  0.000E+00  3.91617E+01  2.867E-01  2.000E+01  2.000E+04 -1.180E+00
   1   12   24     2     7    2.3816E+05 -1.7308E+04   2.5547E+05  0.000E+00  0.000E+00  0.000E+00  3.89270E+01  3.020E-01  2.000E+01  2.000E+04 -8.654E-01
   1   13   23     2     8    2.5547E+05 -1.2332E+04   2.6780E+05  0.000E+00  0.000E+00  0.000E+00  3.86877E+01  3.127E-01  2.000E+01  2.000E+04 -6.166E-01
   1   14   22     2     9    2.6780E+05 -7.0946E+03   2.7490E+05  0.000E+00  0.000E+00  0.000E+00  3.84447E+01  3.197E-01  2.000E+01  2.000E+04 -3.547E-01
   1   14   22     3     1    1.0461E+06 -1.5015E+04   1.0611E+06  0.000E+00  0.000E+00  0.000E+00  3.80486E+01  4.931E-01  2.000E+01  2.000E+04 -7.508E-01
   1   15   23     3     2    1.0611E+06 -2.2813E+04   1.0839E+06  0.000E+00  0.000E+00  0.000E+00  3.71650E+01  4.984E-01  2.000E+01  2.000E+04 -1.141E+00
   1   15   24     3     3    1.0839E+06 -1.9086E+04   1.1030E+06  0.000E+00  0.000E+00  0.000E+00  3.62820E+01  5.042E-01  2.000E+01  2.000E+04 -9.543E-01
   1   15   25     3     4    1.1030E+06 -1.8818E+04   1.1218E+06  0.000E+00  0.000E+00  0.000E+00  3.53983E+01  5.094E-01  2.000E+01  2.000E+04 -9.409E-01
   1   15   26     3     5    1.1218E+06 -2.1683E+04   1.1435E+06  0.000E+00  0.000E+00  0.000E+00  3.45149E+01  5.149E-01  2.000E+01  2.000E+04 -1.084E+00
   1   16   27     3     6    1.1435E+06 -2.8683E+04   1.1722E+06  0.000E+00  0.000E+00  0.000E+00  3.36329E+01  5.218E-01  2.000E+01  2.000E+04 -1.434E+00
   1   17   28     3     7    1.1722E+06 -3.5707E+04   1.2079E+06  0.000E+00  0.000E+00  0.000E+00  3.27527E+01  5.304E-01  2.000E+01  2.000E+04 -1.785E+00
   1   18   29     3     8    1.2079E+06 -4.6707E+04   1.2546E+06  0.000E+00  0.000E+00  0.000E+00  3.18747E+01  5.414E-01  2.000E+01  2.000E+04 -2.335E+00
   1   18   30     3     9    1.2546E+06 -4.3369E+04   1.2980E+06  0.000E+00  0.000E+00  0.000E+00  3.09976E+01  5.532E-01  2.000E+01  2.000E+04 -2.168E+00



1
              HEAD IN LAYER   1 AT END OF TIME STEP   1 IN STRESS PERIOD    8
  ---------------------------------------------------------------------------

          1      2      3      4      5      6      7      8      9     10
         11     12     13     14     15     16     17     18     19     20
         21     22     23     24     25     26     27     28     29     30
 .........................................................................
   1  ****** ****** ****** ****** ****** ****** ****** ****** ****** ******
      ****** ****** ****** ****** ****** ****** ****** ****** ****** ******
      ****** ****** ****** ****** ****** ****** ****** ****** ****** ******
   2  ****** ****** ****** ****** ****** ****** ****** ****** ****** ******
      ****** ****** ****** ****** ****** ****** ****** ****** ****** ******
      ****** ****** ****** ****** ****** ****** ****** ****** ****** ******
   3  ****** ****** ****** ****** ****** ****** ****** ****** ****** ******
      ****** ****** ****** ****** ****** ****** ****** ****** ****** ******
      ****** ****** ****** ****** ****** ****** ****** ****** ****** ******
   4  ****** ****** ****** ****** ****** ****** ****** ****** ****** ******
      ****** ****** ****** ****** ****** ****** ****** ****** ****** ******
      ****** ****** ****** ****** ****** ****** ****** ****** ****** ******
   5  ****** ****** ****** ****** ****** ****** ****** ****** ****** ******
      ****** ****** ****** ****** ****** ****** ****** ****** ****** ******
      ****** ****** ****** ****** ****** ****** ****** ****** ****** ******
   6  ****** ****** ****** ****** ****** ****** ****** ****** ****** ******
      ****** ****** ****** ****** ****** ****** ****** ****** ****** ******
      ****** ****** ****** ****** ****** ****** ****** ****** ****** ******
   7  ****** ****** ****** ****** ****** ****** ****** ****** ****** ******
      ****** ****** ****** ****** ****** ****** ****** ****** ****** ******
      ****** ****** ****** ****** ****** ****** ****** ****** ****** ******
   8  ****** ****** ****** ****** ****** ****** ****** ****** ****** ******
      ****** ****** ****** ****** ****** ****** ****** ****** ****** ******
      ****** ****** ****** ****** ****** ****** ****** ****** ****** ******
   9  ****** ****** ****** ****** ****** ****** ****** ****** ****** ******
      ****** ****** ****** ****** ****** ****** ****** ****** ****** ******
      ****** ****** ****** ****** ****** ****** ****** ****** ****** ******
  10  ****** ****** ****** ****** ****** ****** ****** ****** ****** ******
      ****** ****** ****** ****** ****** ****** ****** ****** ****** ******
      ****** ****** ****** ****** ****** ****** ****** ****** ****** ******
  11  ****** ****** ****** ****** ****** ****** ****** ****** ****** ******
      ****** ****** ****** ****** ****** ****** ****** ****** ****** ******
      ****** ****** ****** ****** ****** ****** ****** ****** ****** ******
  12  ****** ****** ****** ****** ****** ****** ****** ****** ****** ******
      ****** ****** ****** ****** ****** ****** ****** ****** ****** ******
      ****** ****** ****** ****** ****** ****** ****** ****** ****** ******
  13  ****** ****** ****** ****** ****** ****** ****** ****** ****** ******
      ****** ****** ****** ****** ****** ****** ****** ****** ****** ******
      ****** ****** ****** ****** ****** ****** ****** ****** ****** ******
  14  ****** ****** ****** ****** ****** ****** ****** ****** ****** ******
      ****** ****** ****** ****** ****** ****** ****** ****** ****** ******
      ****** ****** ****** ****** ****** ****** ****** ****** ****** ******
  15  ****** ****** ****** ****** ****** ****** ****** ****** ****** ******
      ****** ****** ****** ****** ****** ****** ****** ****** ****** ******
      ****** ****** ****** ****** ****** ****** ****** ****** ****** ******
  16  ****** ****** ****** ****** ****** ****** ****** ****** ****** ******
      ****** ****** ****** ****** ****** ****** ****** ****** ****** ******
      ****** ****** ****** ****** ****** ****** ****** ****** ****** ******
  17  ****** ****** ****** ****** ****** ****** ****** ****** ****** ******
      ****** ****** ****** ****** ****** ****** ****** ****** ****** ******
      ****** ****** ****** ****** ****** ****** ****** ****** ****** ******
  18  ****** ****** ****** ****** ****** ****** ****** ****** ****** ******
      ****** ****** ****** ****** ****** ****** ****** ****** ****** ******
      ****** ****** ****** ****** ****** ****** ****** ****** ****** ******
  19  ****** ****** ****** ****** ****** ****** ****** ****** ****** ******
      ****** ****** ****** ****** ****** ****** ****** ****** ****** ******
      ****** ****** ****** ****** ****** ****** ****** ****** ****** ******
  20  ****** ****** ****** ****** ****** ****** ****** ****** ****** ******
      ****** ****** ****** ****** ****** ****** ****** ****** ****** ******
      ****** ****** ****** ****** ****** ****** ****** ****** ****** ******
  21  ****** ****** ****** ****** ****** ****** ****** ****** ****** ******
      ****** ****** ****** ****** ****** ****** ****** ****** ****** ******
      ****** ****** ****** ****** ****** ****** ****** ****** ****** ******
  22  ****** ****** ****** ****** ****** ****** ****** ****** ****** ******
      ****** ****** ****** ****** ****** ****** ****** ****** ****** ******
      ****** ****** ****** ****** ****** ****** ****** ****** ****** ******
  23  ****** ****** ****** ****** ****** ****** ****** ****** ****** ******
      ****** ****** ****** ****** ****** ****** ****** ****** ****** ******
      ****** ****** ****** ****** ****** ****** ****** ****** ****** ******
  24  ****** ****** ****** ****** ****** ****** ****** ****** ****** ******
      ****** ****** ****** ****** ****** ****** ****** ****** ****** ******
      ****** ****** ****** ****** ****** ****** ****** ****** ****** ******
  25  ****** ****** ****** ****** ****** ****** ****** ****** ****** ******
      ****** ****** ****** ****** ****** ****** ****** ****** ****** ******
      ****** ****** ****** ****** ****** ****** ****** ****** ****** ******

 HEAD WILL BE SAVED ON UNIT   51 AT END OF TIME STEP    1, STRESS PERIOD    8
1
  VOLUMETRIC BUDGET FOR ENTIRE MODEL AT END OF TIME STEP    1, STRESS PERIOD   8
  ------------------------------------------------------------------------------

     CUMULATIVE VOLUMES      L**3       RATES FOR THIS TIME STEP      L**3/T
     ------------------                 ------------------------

           IN:                                      IN:
           ---                                      ---
             STORAGE =    20774124.3852               STORAGE =           0.0000
       CONSTANT HEAD =   888257393.9009         CONSTANT HEAD =     1202381.4307
               WELLS =           0.0000                 WELLS =           0.0000
            RECHARGE =    17608800.0000              RECHARGE =       27600.0000
      STREAM LEAKAGE =           0.0000        STREAM LEAKAGE =           0.0000

            TOTAL IN =   926640318.2861              TOTAL IN =     1229981.4307

          OUT:                                     OUT:
          ----                                     ----
             STORAGE =      654890.1088               STORAGE =        2017.0051
       CONSTANT HEAD =           0.0000         CONSTANT HEAD =           0.0000
               WELLS =    76700000.0000                 WELLS =       80000.0000
            RECHARGE =           0.0000              RECHARGE =           0.0000
      STREAM LEAKAGE =   849285436.4238        STREAM LEAKAGE =     1147964.4003

           TOTAL OUT =   926640326.5327             TOTAL OUT =     1229981.4054

            IN - OUT =          -8.2465              IN - OUT =       2.5319E-02

 PERCENT DISCREPANCY =          -0.00     PERCENT DISCREPANCY =           0.00






         TIME SUMMARY AT END OF TIME STEP    1 IN STRESS PERIOD    8
                    SECONDS     MINUTES      HOURS       DAYS        YEARS
                    -----------------------------------------------------------
   TIME STEP LENGTH 7.86240E+06 1.31040E+05  2184.0      91.000     0.24914    
 STRESS PERIOD TIME 7.86240E+06 1.31040E+05  2184.0      91.000     0.24914    
         TOTAL TIME 6.30720E+07 1.05120E+06  17520.      730.00      1.9986    
1
1
                            STRESS PERIOD NO.    9, LENGTH =   92.00000    
                            -----------------------------------------------

                              NUMBER OF TIME STEPS =     1

                               MULTIPLIER FOR DELT =     1.500

                            INITIAL TIME STEP SIZE =   92.00000    

 WELL NO.  LAYER   ROW   COL   STRESS RATE         
 --------------------------------------------------
      1      1     22     22     -0.3000E+05
      2      1      2     29     -0.5000E+05
      3      1      5     21     -0.5000E+05

      3 WELLS

                 RECHARGE =  5.000000E-04

 REUSING STREAM SEGMENT DATA FROM LAST STRESS PERIOD
 
 SOLVING FOR HEAD 


     6 CALLS TO PCG ROUTINE FOR TIME STEP   1 IN STRESS PERIOD    9
    22 TOTAL ITERATIONS

 OUTPUT CONTROL FOR STRESS PERIOD    9   TIME STEP    1
    SAVE BUDGET
    SAVE HEAD FOR ALL LAYERS
    PRINT HEAD FOR ALL LAYERS
 UBDSV2 SAVING "STREAMFLOW OUT  " ON UNIT  50 AT TIME STEP  1, STRESS PERIOD   9



 STREAM LISTING     PERIOD      9   STEP        1

 LAYER ROW COL. STREAM  RCH.  FLOW INTO     FLOW TO   FLOW OUT OF   OVRLND.     DIRECT     STREAM       STREAM     STREAM     STREAM   STREAMBED  STREAMBED
                SEG.NO.  NO.  STRM. RCH.    AQUIFER    STRM. RCH.    RUNOFF     PRECIP       ET          HEAD       DEPTH      WIDTH   CONDCTNC.   GRADIENT

   1   13    1     1     1    1.0000E+05 -2.7641E+04   1.2764E+05  0.000E+00  0.000E+00  0.000E+00  4.84177E+01  1.563E-01  2.000E+01  2.000E+04 -1.382E+00
   1   13    2     1     2    1.2764E+05 -3.7336E+04   1.6498E+05  0.000E+00  0.000E+00  0.000E+00  4.79658E+01  1.818E-01  2.000E+01  2.000E+04 -1.867E+00
   1   14    3     1     3    1.6498E+05 -3.2828E+04   1.9780E+05  0.000E+00  0.000E+00  0.000E+00  4.75136E+01  2.068E-01  2.000E+01  2.000E+04 -1.641E+00
   1   15    4     1     4    1.9780E+05 -3.2079E+04   2.2988E+05  0.000E+00  0.000E+00  0.000E+00  4.70578E+01  2.282E-01  2.000E+01  2.000E+04 -1.604E+00
   1   16    5     1     5    2.2988E+05 -3.3631E+04   2.6352E+05  0.000E+00  0.000E+00  0.000E+00  4.66009E+01  2.487E-01  2.000E+01  2.000E+04 -1.682E+00
   1   16    6     1     6    2.6352E+05 -2.9374E+04   2.9289E+05  0.000E+00  0.000E+00  0.000E+00  4.61423E+01  2.673E-01  2.000E+01  2.000E+04 -1.469E+00
   1   16    7     1     7    2.9289E+05 -2.9190E+04   3.2208E+05  0.000E+00  0.000E+00  0.000E+00  4.56815E+01  2.838E-01  2.000E+01  2.000E+04 -1.460E+00
   1   16    8     1     8    3.2208E+05 -2.9364E+04   3.5144E+05  0.000E+00  0.000E+00  0.000E+00  4.52202E+01  2.997E-01  2.000E+01  2.000E+04 -1.468E+00
   1   16    9     1     9    3.5144E+05 -2.9435E+04   3.8088E+05  0.000E+00  0.000E+00  0.000E+00  4.47583E+01  3.152E-01  2.000E+01  2.000E+04 -1.472E+00
   1   16   10     1    10    3.8088E+05 -2.9449E+04   4.1033E+05  0.000E+00  0.000E+00  0.000E+00  4.42960E+01  3.301E-01  2.000E+01  2.000E+04 -1.472E+00
   1   16   11     1    11    4.1033E+05 -3.0027E+04   4.4036E+05  0.000E+00  0.000E+00  0.000E+00  4.38334E+01  3.448E-01  2.000E+01  2.000E+04 -1.501E+00
   1   16   12     1    12    4.4036E+05 -3.5444E+04   4.7580E+05  0.000E+00  0.000E+00  0.000E+00  4.33718E+01  3.605E-01  2.000E+01  2.000E+04 -1.772E+00
   1   15   13     1    13    4.7580E+05 -3.4072E+04   5.0987E+05  0.000E+00  0.000E+00  0.000E+00  4.29107E+01  3.767E-01  2.000E+01  2.000E+04 -1.704E+00
   1   14   14     1    14    5.0987E+05 -3.4535E+04   5.4441E+05  0.000E+00  0.000E+00  0.000E+00  4.24490E+01  3.922E-01  2.000E+01  2.000E+04 -1.727E+00
   1   13   15     1    15    5.4441E+05 -3.6568E+04   5.8097E+05  0.000E+00  0.000E+00  0.000E+00  4.19874E+01  4.078E-01  2.000E+01  2.000E+04 -1.828E+00
   1   12   16     1    16    5.8097E+05 -4.2200E+04   6.2317E+05  0.000E+00  0.000E+00  0.000E+00  4.15270E+01  4.247E-01  2.000E+01  2.000E+04 -2.110E+00
   1   12   17     1    17    6.2317E+05 -3.2738E+04   6.5591E+05  0.000E+00  0.000E+00  0.000E+00  4.10654E+01  4.404E-01  2.000E+01  2.000E+04 -1.637E+00
   1   12   18     1    18    6.5591E+05 -3.0913E+04   6.8682E+05  0.000E+00  0.000E+00  0.000E+00  4.06011E+01  4.534E-01  2.000E+01  2.000E+04 -1.546E+00
   1   12   19     1    19    6.8682E+05 -3.4487E+04   7.2131E+05  0.000E+00  0.000E+00  0.000E+00  4.01370E+01  4.665E-01  2.000E+01  2.000E+04 -1.724E+00
   1   13   20     1    20    7.2131E+05 -2.5348E+04   7.4666E+05  0.000E+00  0.000E+00  0.000E+00  3.96715E+01  4.783E-01  2.000E+01  2.000E+04 -1.267E+00
   1   14   21     1    21    7.4666E+05 -1.8647E+04   7.6531E+05  0.000E+00  0.000E+00  0.000E+00  3.92028E+01  4.869E-01  2.000E+01  2.000E+04 -9.324E-01
   1   14   22     1    22    7.6531E+05 -1.2703E+03   7.6658E+05  0.000E+00  0.000E+00  0.000E+00  3.87294E+01  4.907E-01  2.000E+01  2.000E+04 -6.351E-02
   1    9   30     2     1    5.0000E+04 -2.4924E+04   7.4924E+04  0.000E+00  0.000E+00  0.000E+00  4.02574E+01  1.324E-01  2.000E+01  2.000E+04 -1.246E+00
   1    9   29     2     2    7.4924E+04 -2.7353E+04   1.0228E+05  0.000E+00  0.000E+00  0.000E+00  4.00383E+01  1.633E-01  2.000E+01  2.000E+04 -1.368E+00
   1    9   28     2     3    1.0228E+05 -3.1459E+04   1.3374E+05  0.000E+00  0.000E+00  0.000E+00  3.98190E+01  1.940E-01  2.000E+01  2.000E+04 -1.573E+00
   1    9   27     2     4    1.3374E+05 -4.4791E+04   1.7853E+05  0.000E+00  0.000E+00  0.000E+00  3.96044E+01  2.294E-01  2.000E+01  2.000E+04 -2.240E+00
   1   10   26     2     5    1.7853E+05 -3.1206E+04   2.0973E+05  0.000E+00  0.000E+00  0.000E+00  3.93865E+01  2.615E-01  2.000E+01  2.000E+04 -1.560E+00
   1   11   25     2     6    2.0973E+05 -2.3190E+04   2.3292E+05  0.000E+00  0.000E+00  0.000E+00  3.91579E+01  2.829E-01  2.000E+01  2.000E+04 -1.159E+00
   1   12   24     2     7    2.3292E+05 -1.7021E+04   2.4994E+05  0.000E+00  0.000E+00  0.000E+00  3.89230E+01  2.980E-01  2.000E+01  2.000E+04 -8.510E-01
   1   13   23     2     8    2.4994E+05 -1.2145E+04   2.6209E+05  0.000E+00  0.000E+00  0.000E+00  3.86837E+01  3.087E-01  2.000E+01  2.000E+04 -6.072E-01
   1   14   22     2     9    2.6209E+05 -7.0458E+03   2.6913E+05  0.000E+00  0.000E+00  0.000E+00  3.84406E+01  3.156E-01  2.000E+01  2.000E+04 -3.523E-01
   1   14   22     3     1    1.0357E+06 -1.4944E+04   1.0507E+06  0.000E+00  0.000E+00  0.000E+00  3.80457E+01  4.901E-01  2.000E+01  2.000E+04 -7.472E-01
   1   15   23     3     2    1.0507E+06 -2.2659E+04   1.0733E+06  0.000E+00  0.000E+00  0.000E+00  3.71621E+01  4.954E-01  2.000E+01  2.000E+04 -1.133E+00
   1   15   24     3     3    1.0733E+06 -1.8952E+04   1.0923E+06  0.000E+00  0.000E+00  0.000E+00  3.62790E+01  5.012E-01  2.000E+01  2.000E+04 -9.476E-01
   1   15   25     3     4    1.0923E+06 -1.8679E+04   1.1109E+06  0.000E+00  0.000E+00  0.000E+00  3.53953E+01  5.064E-01  2.000E+01  2.000E+04 -9.339E-01
   1   15   26     3     5    1.1109E+06 -2.1512E+04   1.1325E+06  0.000E+00  0.000E+00  0.000E+00  3.45119E+01  5.119E-01  2.000E+01  2.000E+04 -1.076E+00
   1   16   27     3     6    1.1325E+06 -2.8491E+04   1.1609E+06  0.000E+00  0.000E+00  0.000E+00  3.36299E+01  5.188E-01  2.000E+01  2.000E+04 -1.425E+00
   1   17   28     3     7    1.1609E+06 -3.5518E+04   1.1965E+06  0.000E+00  0.000E+00  0.000E+00  3.27496E+01  5.274E-01  2.000E+01  2.000E+04 -1.776E+00
   1   18   29     3     8    1.1965E+06 -4.6537E+04   1.2430E+06  0.000E+00  0.000E+00  0.000E+00  3.18717E+01  5.383E-01  2.000E+01  2.000E+04 -2.327E+00
   1   18   30     3     9    1.2430E+06 -4.3225E+04   1.2862E+06  0.000E+00  0.000E+00  0.000E+00  3.09946E+01  5.501E-01  2.000E+01  2.000E+04 -2.161E+00



1
              HEAD IN LAYER   1 AT END OF TIME STEP   1 IN STRESS PERIOD    9
  ---------------------------------------------------------------------------

          1      2      3      4      5      6      7      8      9     10
         11     12     13     14     15     16     17     18     19     20
         21     22     23     24     25     26     27     28     29     30
 .........................................................................
   1  ****** ****** ****** ****** ****** ****** ****** ****** ****** ******
      ****** ****** ****** ****** ****** ****** ****** ****** ****** ******
      ****** ****** ****** ****** ****** ****** ****** ****** ****** ******
   2  ****** ****** ****** ****** ****** ****** ****** ****** ****** ******
      ****** ****** ****** ****** ****** ****** ****** ****** ****** ******
      ****** ****** ****** ****** ****** ****** ****** ****** ****** ******
   3  ****** ****** ****** ****** ****** ****** ****** ****** ****** ******
      ****** ****** ****** ****** ****** ****** ****** ****** ****** ******
      ****** ****** ****** ****** ****** ****** ****** ****** ****** ******
   4  ****** ****** ****** ****** ****** ****** ****** ****** ****** ******
      ****** ****** ****** ****** ****** ****** ****** ****** ****** ******
      ****** ****** ****** ****** ****** ****** ****** ****** ****** ******
   5  ****** ****** ****** ****** ****** ****** ****** ****** ****** ******
      ****** ****** ****** ****** ****** ****** ****** ****** ****** ******
      ****** ****** ****** ****** ****** ****** ****** ****** ****** ******
   6  ****** ****** ****** ****** ****** ****** ****** ****** ****** ******
      ****** ****** ****** ****** ****** ****** ****** ****** ****** ******
      ****** ****** ****** ****** ****** ****** ****** ****** ****** ******
   7  ****** ****** ****** ****** ****** ****** ****** ****** ****** ******
      ****** ****** ****** ****** ****** ****** ****** ****** ****** ******
      ****** ****** ****** ****** ****** ****** ****** ****** ****** ******
   8  ****** ****** ****** ****** ****** ****** ****** ****** ****** ******
      ****** ****** ****** ****** ****** ****** ****** ****** ****** ******
      ****** ****** ****** ****** ****** ****** ****** ****** ****** ******
   9  ****** ****** ****** ****** ****** ****** ****** ****** ****** ******
      ****** ****** ****** ****** ****** ****** ****** ****** ****** ******
      ****** ****** ****** ****** ****** ****** ****** ****** ****** ******
  10  ****** ****** ****** ****** ****** ****** ****** ****** ****** ******
      ****** ****** ****** ****** ****** ****** ****** ****** ****** ******
      ****** ****** ****** ****** ****** ****** ****** ****** ****** ******
  11  ****** ****** ****** ****** ****** ****** ****** ****** ****** ******
      ****** ****** ****** ****** ****** ****** ****** ****** ****** ******
      ****** ****** ****** ****** ****** ****** ****** ****** ****** ******
  12  ****** ****** ****** ****** ****** ****** ****** ****** ****** ******
      ****** ****** ****** ****** ****** ****** ****** ****** ****** ******
      ****** ****** ****** ****** ****** ****** ****** ****** ****** ******
  13  ****** ****** ****** ****** ****** ****** ****** ****** ****** ******
      ****** ****** ****** ****** ****** ****** ****** ****** ****** ******
      ****** ****** ****** ****** ****** ****** ****** ****** ****** ******
  14  ****** ****** ****** ****** ****** ****** ****** ****** ****** ******
      ****** ****** ****** ****** ****** ****** ****** ****** ****** ******
      ****** ****** ****** ****** ****** ****** ****** ****** ****** ******
  15  ****** ****** ****** ****** ****** ****** ****** ****** ****** ******
      ****** ****** ****** ****** ****** ****** ****** ****** ****** ******
      ****** ****** ****** ****** ****** ****** ****** ****** ****** ******
  16  ****** ****** ****** ****** ****** ****** ****** ****** ****** ******
      ****** ****** ****** ****** ****** ****** ****** ****** ****** ******
      ****** ****** ****** ****** ****** ****** ****** ****** ****** ******
  17  ****** ****** ****** ****** ****** ****** ****** ****** ****** ******
      ****** ****** ****** ****** ****** ****** ****** ****** ****** ******
      ****** ****** ****** ****** ****** ****** ****** ****** ****** ******
  18  ****** ****** ****** ****** ****** ****** ****** ****** ****** ******
      ****** ****** ****** ****** ****** ****** ****** ****** ****** ******
      ****** ****** ****** ****** ****** ****** ****** ****** ****** ******
  19  ****** ****** ****** ****** ****** ****** ****** ****** ****** ******
      ****** ****** ****** ****** ****** ****** ****** ****** ****** ******
      ****** ****** ****** ****** ****** ****** ****** ****** ****** ******
  20  ****** ****** ****** ****** ****** ****** ****** ****** ****** ******
      ****** ****** ****** ****** ****** ****** ****** ****** ****** ******
      ****** ****** ****** ****** ****** ****** ****** ****** ****** ******
  21  ****** ****** ****** ****** ****** ****** ****** ****** ****** ******
      ****** ****** ****** ****** ****** ****** ****** ****** ****** ******
      ****** ****** ****** ****** ****** ****** ****** ****** ****** ******
  22  ****** ****** ****** ****** ****** ****** ****** ****** ****** ******
      ****** ****** ****** ****** ****** ****** ****** ****** ****** ******
      ****** ****** ****** ****** ****** ****** ****** ****** ****** ******
  23  ****** ****** ****** ****** ****** ****** ****** ****** ****** ******
      ****** ****** ****** ****** ****** ****** ****** ****** ****** ******
      ****** ****** ****** ****** ****** ****** ****** ****** ****** ******
  24  ****** ****** ****** ****** ****** ****** ****** ****** ****** ******
      ****** ****** ****** ****** ****** ****** ****** ****** ****** ******
      ****** ****** ****** ****** ****** ****** ****** ****** ****** ******
  25  ****** ****** ****** ****** ****** ****** ****** ****** ****** ******
      ****** ****** ****** ****** ****** ****** ****** ****** ****** ******
      ****** ****** ****** ****** ****** ****** ****** ****** ****** ******

 HEAD WILL BE SAVED ON UNIT   51 AT END OF TIME STEP    1, STRESS PERIOD    9
1
  VOLUMETRIC BUDGET FOR ENTIRE MODEL AT END OF TIME STEP    1, STRESS PERIOD   9
  ------------------------------------------------------------------------------

     CUMULATIVE VOLUMES      L**3       RATES FOR THIS TIME STEP      L**3/T
     ------------------                 ------------------------

           IN:                                      IN:
           ---                                      ---
             STORAGE =    20905070.1617               STORAGE =        1423.3237
       CONSTANT HEAD =  1003349744.2144         CONSTANT HEAD =     1251003.8078
               WELLS =           0.0000                 WELLS =           0.0000
            RECHARGE =    18878400.0000              RECHARGE =       13800.0000
      STREAM LEAKAGE =           0.0000        STREAM LEAKAGE =           0.0000

            TOTAL IN =  1043133214.3760              TOTAL IN =     1266227.1314

          OUT:                                     OUT:
          ----                                     ----
             STORAGE =      654890.1088               STORAGE =           0.0000
       CONSTANT HEAD =           0.0000         CONSTANT HEAD =           0.0000
               WELLS =    88660000.0000                 WELLS =      130000.0000
            RECHARGE =           0.0000              RECHARGE =           0.0000
      STREAM LEAKAGE =   953818334.0681        STREAM LEAKAGE =     1136227.1483

           TOTAL OUT =  1043133224.1769             TOTAL OUT =     1266227.1483

            IN - OUT =          -9.8009              IN - OUT =      -1.6896E-02

 PERCENT DISCREPANCY =          -0.00     PERCENT DISCREPANCY =          -0.00






         TIME SUMMARY AT END OF TIME STEP    1 IN STRESS PERIOD    9
                    SECONDS     MINUTES      HOURS       DAYS        YEARS
                    -----------------------------------------------------------
   TIME STEP LENGTH 7.94880E+06 1.32480E+05  2208.0      92.000     0.25188    
 STRESS PERIOD TIME 7.94880E+06 1.32480E+05  2208.0      92.000     0.25188    
         TOTAL TIME 7.10208E+07 1.18368E+06  19728.      822.00      2.2505    
1
1
                            STRESS PERIOD NO.   10, LENGTH =   91.00000    
                            -----------------------------------------------

                              NUMBER OF TIME STEPS =     1

                               MULTIPLIER FOR DELT =     1.500

                            INITIAL TIME STEP SIZE =   91.00000    

 WELL NO.  LAYER   ROW   COL   STRESS RATE         
 --------------------------------------------------
      1      1     22     22     -0.3000E+05
      2      1      2     29       0.000    
      3      1      5     21     -0.5000E+05

      3 WELLS

                 RECHARGE =  2.000000E-03

 REUSING STREAM SEGMENT DATA FROM LAST STRESS PERIOD
 
 SOLVING FOR HEAD 


     6 CALLS TO PCG ROUTINE FOR TIME STEP   1 IN STRESS PERIOD   10
    22 TOTAL ITERATIONS

 OUTPUT CONTROL FOR STRESS PERIOD   10   TIME STEP    1
    SAVE BUDGET
    SAVE HEAD FOR ALL LAYERS
    PRINT HEAD FOR ALL LAYERS
 UBDSV2 SAVING "STREAMFLOW OUT  " ON UNIT  50 AT TIME STEP  1, STRESS PERIOD  10



 STREAM LISTING     PERIOD     10   STEP        1

 LAYER ROW COL. STREAM  RCH.  FLOW INTO     FLOW TO   FLOW OUT OF   OVRLND.     DIRECT     STREAM       STREAM     STREAM     STREAM   STREAMBED  STREAMBED
                SEG.NO.  NO.  STRM. RCH.    AQUIFER    STRM. RCH.    RUNOFF     PRECIP       ET          HEAD       DEPTH      WIDTH   CONDCTNC.   GRADIENT

   1   13    1     1     1    1.0000E+05 -2.8295E+04   1.2829E+05  0.000E+00  0.000E+00  0.000E+00  4.84180E+01  1.566E-01  2.000E+01  2.000E+04 -1.415E+00
   1   13    2     1     2    1.2829E+05 -3.8117E+04   1.6641E+05  0.000E+00  0.000E+00  0.000E+00  4.79666E+01  1.825E-01  2.000E+01  2.000E+04 -1.906E+00
   1   14    3     1     3    1.6641E+05 -3.3592E+04   2.0000E+05  0.000E+00  0.000E+00  0.000E+00  4.75148E+01  2.080E-01  2.000E+01  2.000E+04 -1.680E+00
   1   15    4     1     4    2.0000E+05 -3.2813E+04   2.3282E+05  0.000E+00  0.000E+00  0.000E+00  4.70594E+01  2.299E-01  2.000E+01  2.000E+04 -1.641E+00
   1   16    5     1     5    2.3282E+05 -3.4293E+04   2.6711E+05  0.000E+00  0.000E+00  0.000E+00  4.66029E+01  2.506E-01  2.000E+01  2.000E+04 -1.715E+00
   1   16    6     1     6    2.6711E+05 -2.9950E+04   2.9706E+05  0.000E+00  0.000E+00  0.000E+00  4.61445E+01  2.695E-01  2.000E+01  2.000E+04 -1.498E+00
   1   16    7     1     7    2.9706E+05 -2.9761E+04   3.2682E+05  0.000E+00  0.000E+00  0.000E+00  4.56840E+01  2.863E-01  2.000E+01  2.000E+04 -1.488E+00
   1   16    8     1     8    3.2682E+05 -2.9937E+04   3.5676E+05  0.000E+00  0.000E+00  0.000E+00  4.52229E+01  3.024E-01  2.000E+01  2.000E+04 -1.497E+00
   1   16    9     1     9    3.5676E+05 -3.0007E+04   3.8677E+05  0.000E+00  0.000E+00  0.000E+00  4.47612E+01  3.180E-01  2.000E+01  2.000E+04 -1.500E+00
   1   16   10     1    10    3.8677E+05 -3.0021E+04   4.1679E+05  0.000E+00  0.000E+00  0.000E+00  4.42991E+01  3.332E-01  2.000E+01  2.000E+04 -1.501E+00
   1   16   11     1    11    4.1679E+05 -3.0607E+04   4.4739E+05  0.000E+00  0.000E+00  0.000E+00  4.38367E+01  3.481E-01  2.000E+01  2.000E+04 -1.530E+00
   1   16   12     1    12    4.4739E+05 -3.6119E+04   4.8351E+05  0.000E+00  0.000E+00  0.000E+00  4.33753E+01  3.640E-01  2.000E+01  2.000E+04 -1.806E+00
   1   15   13     1    13    4.8351E+05 -3.4820E+04   5.1833E+05  0.000E+00  0.000E+00  0.000E+00  4.29144E+01  3.804E-01  2.000E+01  2.000E+04 -1.741E+00
   1   14   14     1    14    5.1833E+05 -3.5311E+04   5.5364E+05  0.000E+00  0.000E+00  0.000E+00  4.24529E+01  3.961E-01  2.000E+01  2.000E+04 -1.766E+00
   1   13   15     1    15    5.5364E+05 -3.7346E+04   5.9099E+05  0.000E+00  0.000E+00  0.000E+00  4.19916E+01  4.120E-01  2.000E+01  2.000E+04 -1.867E+00
   1   12   16     1    16    5.9099E+05 -4.2968E+04   6.3396E+05  0.000E+00  0.000E+00  0.000E+00  4.15314E+01  4.291E-01  2.000E+01  2.000E+04 -2.148E+00
   1   12   17     1    17    6.3396E+05 -3.3367E+04   6.6732E+05  0.000E+00  0.000E+00  0.000E+00  4.10700E+01  4.450E-01  2.000E+01  2.000E+04 -1.668E+00
   1   12   18     1    18    6.6732E+05 -3.1527E+04   6.9885E+05  0.000E+00  0.000E+00  0.000E+00  4.06059E+01  4.582E-01  2.000E+01  2.000E+04 -1.576E+00
   1   12   19     1    19    6.9885E+05 -3.5184E+04   7.3403E+05  0.000E+00  0.000E+00  0.000E+00  4.01419E+01  4.714E-01  2.000E+01  2.000E+04 -1.759E+00
   1   13   20     1    20    7.3403E+05 -2.5982E+04   7.6002E+05  0.000E+00  0.000E+00  0.000E+00  3.96766E+01  4.834E-01  2.000E+01  2.000E+04 -1.299E+00
   1   14   21     1    21    7.6002E+05 -1.9176E+04   7.7919E+05  0.000E+00  0.000E+00  0.000E+00  3.92080E+01  4.921E-01  2.000E+01  2.000E+04 -9.588E-01
   1   14   22     1    22    7.7919E+05 -1.4849E+03   7.8068E+05  0.000E+00  0.000E+00  0.000E+00  3.87347E+01  4.961E-01  2.000E+01  2.000E+04 -7.425E-02
   1    9   30     2     1    5.0000E+04 -2.6338E+04   7.6338E+04  0.000E+00  0.000E+00  0.000E+00  4.02583E+01  1.333E-01  2.000E+01  2.000E+04 -1.317E+00
   1    9   29     2     2    7.6338E+04 -2.8715E+04   1.0505E+05  0.000E+00  0.000E+00  0.000E+00  4.00406E+01  1.656E-01  2.000E+01  2.000E+04 -1.436E+00
   1    9   28     2     3    1.0505E+05 -3.2768E+04   1.3782E+05  0.000E+00  0.000E+00  0.000E+00  3.98223E+01  1.973E-01  2.000E+01  2.000E+04 -1.638E+00
   1    9   27     2     4    1.3782E+05 -4.6222E+04   1.8404E+05  0.000E+00  0.000E+00  0.000E+00  3.96086E+01  2.336E-01  2.000E+01  2.000E+04 -2.311E+00
   1   10   26     2     5    1.8404E+05 -3.2226E+04   2.1627E+05  0.000E+00  0.000E+00  0.000E+00  3.93913E+01  2.663E-01  2.000E+01  2.000E+04 -1.611E+00
   1   11   25     2     6    2.1627E+05 -2.3991E+04   2.4026E+05  0.000E+00  0.000E+00  0.000E+00  3.91632E+01  2.882E-01  2.000E+01  2.000E+04 -1.200E+00
   1   12   24     2     7    2.4026E+05 -1.7654E+04   2.5792E+05  0.000E+00  0.000E+00  0.000E+00  3.89287E+01  3.037E-01  2.000E+01  2.000E+04 -8.827E-01
   1   13   23     2     8    2.5792E+05 -1.2613E+04   2.7053E+05  0.000E+00  0.000E+00  0.000E+00  3.86896E+01  3.146E-01  2.000E+01  2.000E+04 -6.307E-01
   1   14   22     2     9    2.7053E+05 -7.2467E+03   2.7778E+05  0.000E+00  0.000E+00  0.000E+00  3.84466E+01  3.216E-01  2.000E+01  2.000E+04 -3.623E-01
   1   14   22     3     1    1.0585E+06 -1.5137E+04   1.0736E+06  0.000E+00  0.000E+00  0.000E+00  3.80521E+01  4.965E-01  2.000E+01  2.000E+04 -7.569E-01
   1   15   23     3     2    1.0736E+06 -2.3130E+04   1.0967E+06  0.000E+00  0.000E+00  0.000E+00  3.71685E+01  5.019E-01  2.000E+01  2.000E+04 -1.157E+00
   1   15   24     3     3    1.0967E+06 -1.9347E+04   1.1161E+06  0.000E+00  0.000E+00  0.000E+00  3.62855E+01  5.077E-01  2.000E+01  2.000E+04 -9.674E-01
   1   15   25     3     4    1.1161E+06 -1.9076E+04   1.1351E+06  0.000E+00  0.000E+00  0.000E+00  3.54019E+01  5.130E-01  2.000E+01  2.000E+04 -9.538E-01
   1   15   26     3     5    1.1351E+06 -2.1984E+04   1.1571E+06  0.000E+00  0.000E+00  0.000E+00  3.45186E+01  5.186E-01  2.000E+01  2.000E+04 -1.099E+00
   1   16   27     3     6    1.1571E+06 -2.9047E+04   1.1862E+06  0.000E+00  0.000E+00  0.000E+00  3.36366E+01  5.255E-01  2.000E+01  2.000E+04 -1.452E+00
   1   17   28     3     7    1.1862E+06 -3.6079E+04   1.2223E+06  0.000E+00  0.000E+00  0.000E+00  3.27564E+01  5.342E-01  2.000E+01  2.000E+04 -1.804E+00
   1   18   29     3     8    1.2223E+06 -4.7057E+04   1.2693E+06  0.000E+00  0.000E+00  0.000E+00  3.18785E+01  5.452E-01  2.000E+01  2.000E+04 -2.353E+00
   1   18   30     3     9    1.2693E+06 -4.3660E+04   1.3130E+06  0.000E+00  0.000E+00  0.000E+00  3.10015E+01  5.570E-01  2.000E+01  2.000E+04 -2.183E+00



1
              HEAD IN LAYER   1 AT END OF TIME STEP   1 IN STRESS PERIOD   10
  ---------------------------------------------------------------------------

          1      2      3      4      5      6      7      8      9     10
         11     12     13     14     15     16     17     18     19     20
         21     22     23     24     25     26     27     28     29     30
 .........................................................................
   1  ****** ****** ****** ****** ****** ****** ****** ****** ****** ******
      ****** ****** ****** ****** ****** ****** ****** ****** ****** ******
      ****** ****** ****** ****** ****** ****** ****** ****** ****** ******
   2  ****** ****** ****** ****** ****** ****** ****** ****** ****** ******
      ****** ****** ****** ****** ****** ****** ****** ****** ****** ******
      ****** ****** ****** ****** ****** ****** ****** ****** ****** ******
   3  ****** ****** ****** ****** ****** ****** ****** ****** ****** ******
      ****** ****** ****** ****** ****** ****** ****** ****** ****** ******
      ****** ****** ****** ****** ****** ****** ****** ****** ****** ******
   4  ****** ****** ****** ****** ****** ****** ****** ****** ****** ******
      ****** ****** ****** ****** ****** ****** ****** ****** ****** ******
      ****** ****** ****** ****** ****** ****** ****** ****** ****** ******
   5  ****** ****** ****** ****** ****** ****** ****** ****** ****** ******
      ****** ****** ****** ****** ****** ****** ****** ****** ****** ******
      ****** ****** ****** ****** ****** ****** ****** ****** ****** ******
   6  ****** ****** ****** ****** ****** ****** ****** ****** ****** ******
      ****** ****** ****** ****** ****** ****** ****** ****** ****** ******
      ****** ****** ****** ****** ****** ****** ****** ****** ****** ******
   7  ****** ****** ****** ****** ****** ****** ****** ****** ****** ******
      ****** ****** ****** ****** ****** ****** ****** ****** ****** ******
      ****** ****** ****** ****** ****** ****** ****** ****** ****** ******
   8  ****** ****** ****** ****** ****** ****** ****** ****** ****** ******
      ****** ****** ****** ****** ****** ****** ****** ****** ****** ******
      ****** ****** ****** ****** ****** ****** ****** ****** ****** ******
   9  ****** ****** ****** ****** ****** ****** ****** ****** ****** ******
      ****** ****** ****** ****** ****** ****** ****** ****** ****** ******
      ****** ****** ****** ****** ****** ****** ****** ****** ****** ******
  10  ****** ****** ****** ****** ****** ****** ****** ****** ****** ******
      ****** ****** ****** ****** ****** ****** ****** ****** ****** ******
      ****** ****** ****** ****** ****** ****** ****** ****** ****** ******
  11  ****** ****** ****** ****** ****** ****** ****** ****** ****** ******
      ****** ****** ****** ****** ****** ****** ****** ****** ****** ******
      ****** ****** ****** ****** ****** ****** ****** ****** ****** ******
  12  ****** ****** ****** ****** ****** ****** ****** ****** ****** ******
      ****** ****** ****** ****** ****** ****** ****** ****** ****** ******
      ****** ****** ****** ****** ****** ****** ****** ****** ****** ******
  13  ****** ****** ****** ****** ****** ****** ****** ****** ****** ******
      ****** ****** ****** ****** ****** ****** ****** ****** ****** ******
      ****** ****** ****** ****** ****** ****** ****** ****** ****** ******
  14  ****** ****** ****** ****** ****** ****** ****** ****** ****** ******
      ****** ****** ****** ****** ****** ****** ****** ****** ****** ******
      ****** ****** ****** ****** ****** ****** ****** ****** ****** ******
  15  ****** ****** ****** ****** ****** ****** ****** ****** ****** ******
      ****** ****** ****** ****** ****** ****** ****** ****** ****** ******
      ****** ****** ****** ****** ****** ****** ****** ****** ****** ******
  16  ****** ****** ****** ****** ****** ****** ****** ****** ****** ******
      ****** ****** ****** ****** ****** ****** ****** ****** ****** ******
      ****** ****** ****** ****** ****** ****** ****** ****** ****** ******
  17  ****** ****** ****** ****** ****** ****** ****** ****** ****** ******
      ****** ****** ****** ****** ****** ****** ****** ****** ****** ******
      ****** ****** ****** ****** ****** ****** ****** ****** ****** ******
  18  ****** ****** ****** ****** ****** ****** ****** ****** ****** ******
      ****** ****** ****** ****** ****** ****** ****** ****** ****** ******
      ****** ****** ****** ****** ****** ****** ****** ****** ****** ******
  19  ****** ****** ****** ****** ****** ****** ****** ****** ****** ******
      ****** ****** ****** ****** ****** ****** ****** ****** ****** ******
      ****** ****** ****** ****** ****** ****** ****** ****** ****** ******
  20  ****** ****** ****** ****** ****** ****** ****** ****** ****** ******
      ****** ****** ****** ****** ****** ****** ****** ****** ****** ******
      ****** ****** ****** ****** ****** ****** ****** ****** ****** ******
  21  ****** ****** ****** ****** ****** ****** ****** ****** ****** ******
      ****** ****** ****** ****** ****** ****** ****** ****** ****** ******
      ****** ****** ****** ****** ****** ****** ****** ****** ****** ******
  22  ****** ****** ****** ****** ****** ****** ****** ****** ****** ******
      ****** ****** ****** ****** ****** ****** ****** ****** ****** ******
      ****** ****** ****** ****** ****** ****** ****** ****** ****** ******
  23  ****** ****** ****** ****** ****** ****** ****** ****** ****** ******
      ****** ****** ****** ****** ****** ****** ****** ****** ****** ******
      ****** ****** ****** ****** ****** ****** ****** ****** ****** ******
  24  ****** ****** ****** ****** ****** ****** ****** ****** ****** ******
      ****** ****** ****** ****** ****** ****** ****** ****** ****** ******
      ****** ****** ****** ****** ****** ****** ****** ****** ****** ******
  25  ****** ****** ****** ****** ****** ****** ****** ****** ****** ******
      ****** ****** ****** ****** ****** ****** ****** ****** ****** ******
      ****** ****** ****** ****** ****** ****** ****** ****** ****** ******

 HEAD WILL BE SAVED ON UNIT   51 AT END OF TIME STEP    1, STRESS PERIOD   10
1
  VOLUMETRIC BUDGET FOR ENTIRE MODEL AT END OF TIME STEP    1, STRESS PERIOD  10
  ------------------------------------------------------------------------------

     CUMULATIVE VOLUMES      L**3       RATES FOR THIS TIME STEP      L**3/T
     ------------------                 ------------------------

           IN:                                      IN:
           ---                                      ---
             STORAGE =    20905070.1617               STORAGE =           0.0000
       CONSTANT HEAD =  1111690625.7000         CONSTANT HEAD =     1190559.1372
               WELLS =           0.0000                 WELLS =           0.0000
            RECHARGE =    23901600.0000              RECHARGE =       55200.0000
      STREAM LEAKAGE =           0.0000        STREAM LEAKAGE =           0.0000

            TOTAL IN =  1156497295.8617              TOTAL IN =     1245759.1372

          OUT:                                     OUT:
          ----                                     ----
             STORAGE =      908484.7310               STORAGE =        2786.7541
       CONSTANT HEAD =           0.0000         CONSTANT HEAD =           0.0000
               WELLS =    95940000.0000                 WELLS =       80000.0000
            RECHARGE =           0.0000              RECHARGE =           0.0000
      STREAM LEAKAGE =  1059648817.4222        STREAM LEAKAGE =     1162972.3446

           TOTAL OUT =  1156497302.1532             TOTAL OUT =     1245759.0986

            IN - OUT =          -6.2916              IN - OUT =       3.8565E-02

 PERCENT DISCREPANCY =          -0.00     PERCENT DISCREPANCY =           0.00






         TIME SUMMARY AT END OF TIME STEP    1 IN STRESS PERIOD   10
                    SECONDS     MINUTES      HOURS       DAYS        YEARS
                    -----------------------------------------------------------
   TIME STEP LENGTH 7.86240E+06 1.31040E+05  2184.0      91.000     0.24914    
 STRESS PERIOD TIME 7.86240E+06 1.31040E+05  2184.0      91.000     0.24914    
         TOTAL TIME 7.88832E+07 1.31472E+06  21912.      913.00      2.4997    
1
1
                            STRESS PERIOD NO.   11, LENGTH =   91.00000    
                            -----------------------------------------------

                              NUMBER OF TIME STEPS =     1

                               MULTIPLIER FOR DELT =     1.500

                            INITIAL TIME STEP SIZE =   91.00000    

 WELL NO.  LAYER   ROW   COL   STRESS RATE         
 --------------------------------------------------
      1      1     22     22     -0.3000E+05
      2      1      2     29     -0.5000E+05
      3      1      5     21     -0.5000E+05

      3 WELLS

                 RECHARGE =   0.00000    

 REUSING STREAM SEGMENT DATA FROM LAST STRESS PERIOD
 
 SOLVING FOR HEAD 


     6 CALLS TO PCG ROUTINE FOR TIME STEP   1 IN STRESS PERIOD   11
    23 TOTAL ITERATIONS

 OUTPUT CONTROL FOR STRESS PERIOD   11   TIME STEP    1
    SAVE BUDGET
    SAVE HEAD FOR ALL LAYERS
    PRINT HEAD FOR ALL LAYERS
 UBDSV2 SAVING "STREAMFLOW OUT  " ON UNIT  50 AT TIME STEP  1, STRESS PERIOD  11



 STREAM LISTING     PERIOD     11   STEP        1

 LAYER ROW COL. STREAM  RCH.  FLOW INTO     FLOW TO   FLOW OUT OF   OVRLND.     DIRECT     STREAM       STREAM     STREAM     STREAM   STREAMBED  STREAMBED
                SEG.NO.  NO.  STRM. RCH.    AQUIFER    STRM. RCH.    RUNOFF     PRECIP       ET          HEAD       DEPTH      WIDTH   CONDCTNC.   GRADIENT

   1   13    1     1     1    1.0000E+05 -2.7447E+04   1.2745E+05  0.000E+00  0.000E+00  0.000E+00  4.84176E+01  1.563E-01  2.000E+01  2.000E+04 -1.372E+00
   1   13    2     1     2    1.2745E+05 -3.7105E+04   1.6455E+05  0.000E+00  0.000E+00  0.000E+00  4.79656E+01  1.815E-01  2.000E+01  2.000E+04 -1.855E+00
   1   14    3     1     3    1.6455E+05 -3.2599E+04   1.9715E+05  0.000E+00  0.000E+00  0.000E+00  4.75132E+01  2.064E-01  2.000E+01  2.000E+04 -1.630E+00
   1   15    4     1     4    1.9715E+05 -3.1858E+04   2.2901E+05  0.000E+00  0.000E+00  0.000E+00  4.70573E+01  2.277E-01  2.000E+01  2.000E+04 -1.593E+00
   1   16    5     1     5    2.2901E+05 -3.3430E+04   2.6244E+05  0.000E+00  0.000E+00  0.000E+00  4.66004E+01  2.481E-01  2.000E+01  2.000E+04 -1.671E+00
   1   16    6     1     6    2.6244E+05 -2.9200E+04   2.9164E+05  0.000E+00  0.000E+00  0.000E+00  4.61416E+01  2.666E-01  2.000E+01  2.000E+04 -1.460E+00
   1   16    7     1     7    2.9164E+05 -2.9018E+04   3.2066E+05  0.000E+00  0.000E+00  0.000E+00  4.56808E+01  2.831E-01  2.000E+01  2.000E+04 -1.451E+00
   1   16    8     1     8    3.2066E+05 -2.9191E+04   3.4985E+05  0.000E+00  0.000E+00  0.000E+00  4.52194E+01  2.989E-01  2.000E+01  2.000E+04 -1.460E+00
   1   16    9     1     9    3.4985E+05 -2.9262E+04   3.7911E+05  0.000E+00  0.000E+00  0.000E+00  4.47575E+01  3.143E-01  2.000E+01  2.000E+04 -1.463E+00
   1   16   10     1    10    3.7911E+05 -2.9277E+04   4.0839E+05  0.000E+00  0.000E+00  0.000E+00  4.42951E+01  3.292E-01  2.000E+01  2.000E+04 -1.464E+00
   1   16   11     1    11    4.0839E+05 -2.9852E+04   4.3824E+05  0.000E+00  0.000E+00  0.000E+00  4.38324E+01  3.438E-01  2.000E+01  2.000E+04 -1.493E+00
   1   16   12     1    12    4.3824E+05 -3.5240E+04   4.7348E+05  0.000E+00  0.000E+00  0.000E+00  4.33708E+01  3.594E-01  2.000E+01  2.000E+04 -1.762E+00
   1   15   13     1    13    4.7348E+05 -3.3847E+04   5.0733E+05  0.000E+00  0.000E+00  0.000E+00  4.29096E+01  3.755E-01  2.000E+01  2.000E+04 -1.692E+00
   1   14   14     1    14    5.0733E+05 -3.4304E+04   5.4163E+05  0.000E+00  0.000E+00  0.000E+00  4.24478E+01  3.910E-01  2.000E+01  2.000E+04 -1.715E+00
   1   13   15     1    15    5.4163E+05 -3.6339E+04   5.7797E+05  0.000E+00  0.000E+00  0.000E+00  4.19861E+01  4.066E-01  2.000E+01  2.000E+04 -1.817E+00
   1   12   16     1    16    5.7797E+05 -4.1980E+04   6.1995E+05  0.000E+00  0.000E+00  0.000E+00  4.15257E+01  4.234E-01  2.000E+01  2.000E+04 -2.099E+00
   1   12   17     1    17    6.1995E+05 -3.2560E+04   6.5251E+05  0.000E+00  0.000E+00  0.000E+00  4.10640E+01  4.390E-01  2.000E+01  2.000E+04 -1.628E+00
   1   12   18     1    18    6.5251E+05 -3.0742E+04   6.8325E+05  0.000E+00  0.000E+00  0.000E+00  4.05997E+01  4.520E-01  2.000E+01  2.000E+04 -1.537E+00
   1   12   19     1    19    6.8325E+05 -3.4299E+04   7.1755E+05  0.000E+00  0.000E+00  0.000E+00  4.01355E+01  4.651E-01  2.000E+01  2.000E+04 -1.715E+00
   1   13   20     1    20    7.1755E+05 -2.5171E+04   7.4272E+05  0.000E+00  0.000E+00  0.000E+00  3.96700E+01  4.768E-01  2.000E+01  2.000E+04 -1.259E+00
   1   14   21     1    21    7.4272E+05 -1.8494E+04   7.6121E+05  0.000E+00  0.000E+00  0.000E+00  3.92012E+01  4.853E-01  2.000E+01  2.000E+04 -9.247E-01
   1   14   22     1    22    7.6121E+05 -1.2155E+03   7.6243E+05  0.000E+00  0.000E+00  0.000E+00  3.87278E+01  4.891E-01  2.000E+01  2.000E+04 -6.078E-02
   1    9   30     2     1    5.0000E+04 -2.4785E+04   7.4785E+04  0.000E+00  0.000E+00  0.000E+00  4.02573E+01  1.323E-01  2.000E+01  2.000E+04 -1.239E+00
   1    9   29     2     2    7.4785E+04 -2.7213E+04   1.0200E+05  0.000E+00  0.000E+00  0.000E+00  4.00381E+01  1.631E-01  2.000E+01  2.000E+04 -1.361E+00
   1    9   28     2     3    1.0200E+05 -3.1315E+04   1.3331E+05  0.000E+00  0.000E+00  0.000E+00  3.98186E+01  1.936E-01  2.000E+01  2.000E+04 -1.566E+00
   1    9   27     2     4    1.3331E+05 -4.4615E+04   1.7793E+05  0.000E+00  0.000E+00  0.000E+00  3.96040E+01  2.290E-01  2.000E+01  2.000E+04 -2.231E+00
   1   10   26     2     5    1.7793E+05 -3.1024E+04   2.0895E+05  0.000E+00  0.000E+00  0.000E+00  3.93859E+01  2.609E-01  2.000E+01  2.000E+04 -1.551E+00
   1   11   25     2     6    2.0895E+05 -2.3014E+04   2.3197E+05  0.000E+00  0.000E+00  0.000E+00  3.91572E+01  2.822E-01  2.000E+01  2.000E+04 -1.151E+00
   1   12   24     2     7    2.3197E+05 -1.6863E+04   2.4883E+05  0.000E+00  0.000E+00  0.000E+00  3.89223E+01  2.973E-01  2.000E+01  2.000E+04 -8.432E-01
   1   13   23     2     8    2.4883E+05 -1.2017E+04   2.6085E+05  0.000E+00  0.000E+00  0.000E+00  3.86828E+01  3.078E-01  2.000E+01  2.000E+04 -6.008E-01
   1   14   22     2     9    2.6085E+05 -6.9776E+03   2.6782E+05  0.000E+00  0.000E+00  0.000E+00  3.84397E+01  3.147E-01  2.000E+01  2.000E+04 -3.489E-01
   1   14   22     3     1    1.0303E+06 -1.4888E+04   1.0451E+06  0.000E+00  0.000E+00  0.000E+00  3.80441E+01  4.886E-01  2.000E+01  2.000E+04 -7.444E-01
   1   15   23     3     2    1.0451E+06 -2.2516E+04   1.0677E+06  0.000E+00  0.000E+00  0.000E+00  3.71605E+01  4.939E-01  2.000E+01  2.000E+04 -1.126E+00
   1   15   24     3     3    1.0677E+06 -1.8833E+04   1.0865E+06  0.000E+00  0.000E+00  0.000E+00  3.62774E+01  4.996E-01  2.000E+01  2.000E+04 -9.416E-01
   1   15   25     3     4    1.0865E+06 -1.8559E+04   1.1051E+06  0.000E+00  0.000E+00  0.000E+00  3.53937E+01  5.048E-01  2.000E+01  2.000E+04 -9.280E-01
   1   15   26     3     5    1.1051E+06 -2.1372E+04   1.1264E+06  0.000E+00  0.000E+00  0.000E+00  3.45103E+01  5.103E-01  2.000E+01  2.000E+04 -1.069E+00
   1   16   27     3     6    1.1264E+06 -2.8324E+04   1.1547E+06  0.000E+00  0.000E+00  0.000E+00  3.36282E+01  5.171E-01  2.000E+01  2.000E+04 -1.416E+00
   1   17   28     3     7    1.1547E+06 -3.5346E+04   1.1901E+06  0.000E+00  0.000E+00  0.000E+00  3.27479E+01  5.257E-01  2.000E+01  2.000E+04 -1.767E+00
   1   18   29     3     8    1.1901E+06 -4.6376E+04   1.2365E+06  0.000E+00  0.000E+00  0.000E+00  3.18700E+01  5.366E-01  2.000E+01  2.000E+04 -2.319E+00
   1   18   30     3     9    1.2365E+06 -4.3090E+04   1.2796E+06  0.000E+00  0.000E+00  0.000E+00  3.09929E+01  5.484E-01  2.000E+01  2.000E+04 -2.155E+00



1
              HEAD IN LAYER   1 AT END OF TIME STEP   1 IN STRESS PERIOD   11
  ---------------------------------------------------------------------------

          1      2      3      4      5      6      7      8      9     10
         11     12     13     14     15     16     17     18     19     20
         21     22     23     24     25     26     27     28     29     30
 .........................................................................
   1  ****** ****** ****** ****** ****** ****** ****** ****** ****** ******
      ****** ****** ****** ****** ****** ****** ****** ****** ****** ******
      ****** ****** ****** ****** ****** ****** ****** ****** ****** ******
   2  ****** ****** ****** ****** ****** ****** ****** ****** ****** ******
      ****** ****** ****** ****** ****** ****** ****** ****** ****** ******
      ****** ****** ****** ****** ****** ****** ****** ****** ****** ******
   3  ****** ****** ****** ****** ****** ****** ****** ****** ****** ******
      ****** ****** ****** ****** ****** ****** ****** ****** ****** ******
      ****** ****** ****** ****** ****** ****** ****** ****** ****** ******
   4  ****** ****** ****** ****** ****** ****** ****** ****** ****** ******
      ****** ****** ****** ****** ****** ****** ****** ****** ****** ******
      ****** ****** ****** ****** ****** ****** ****** ****** ****** ******
   5  ****** ****** ****** ****** ****** ****** ****** ****** ****** ******
      ****** ****** ****** ****** ****** ****** ****** ****** ****** ******
      ****** ****** ****** ****** ****** ****** ****** ****** ****** ******
   6  ****** ****** ****** ****** ****** ****** ****** ****** ****** ******
      ****** ****** ****** ****** ****** ****** ****** ****** ****** ******
      ****** ****** ****** ****** ****** ****** ****** ****** ****** ******
   7  ****** ****** ****** ****** ****** ****** ****** ****** ****** ******
      ****** ****** ****** ****** ****** ****** ****** ****** ****** ******
      ****** ****** ****** ****** ****** ****** ****** ****** ****** ******
   8  ****** ****** ****** ****** ****** ****** ****** ****** ****** ******
      ****** ****** ****** ****** ****** ****** ****** ****** ****** ******
      ****** ****** ****** ****** ****** ****** ****** ****** ****** ******
   9  ****** ****** ****** ****** ****** ****** ****** ****** ****** ******
      ****** ****** ****** ****** ****** ****** ****** ****** ****** ******
      ****** ****** ****** ****** ****** ****** ****** ****** ****** ******
  10  ****** ****** ****** ****** ****** ****** ****** ****** ****** ******
      ****** ****** ****** ****** ****** ****** ****** ****** ****** ******
      ****** ****** ****** ****** ****** ****** ****** ****** ****** ******
  11  ****** ****** ****** ****** ****** ****** ****** ****** ****** ******
      ****** ****** ****** ****** ****** ****** ****** ****** ****** ******
      ****** ****** ****** ****** ****** ****** ****** ****** ****** ******
  12  ****** ****** ****** ****** ****** ****** ****** ****** ****** ******
      ****** ****** ****** ****** ****** ****** ****** ****** ****** ******
      ****** ****** ****** ****** ****** ****** ****** ****** ****** ******
  13  ****** ****** ****** ****** ****** ****** ****** ****** ****** ******
      ****** ****** ****** ****** ****** ****** ****** ****** ****** ******
      ****** ****** ****** ****** ****** ****** ****** ****** ****** ******
  14  ****** ****** ****** ****** ****** ****** ****** ****** ****** ******
      ****** ****** ****** ****** ****** ****** ****** ****** ****** ******
      ****** ****** ****** ****** ****** ****** ****** ****** ****** ******
  15  ****** ****** ****** ****** ****** ****** ****** ****** ****** ******
      ****** ****** ****** ****** ****** ****** ****** ****** ****** ******
      ****** ****** ****** ****** ****** ****** ****** ****** ****** ******
  16  ****** ****** ****** ****** ****** ****** ****** ****** ****** ******
      ****** ****** ****** ****** ****** ****** ****** ****** ****** ******
      ****** ****** ****** ****** ****** ****** ****** ****** ****** ******
  17  ****** ****** ****** ****** ****** ****** ****** ****** ****** ******
      ****** ****** ****** ****** ****** ****** ****** ****** ****** ******
      ****** ****** ****** ****** ****** ****** ****** ****** ****** ******
  18  ****** ****** ****** ****** ****** ****** ****** ****** ****** ******
      ****** ****** ****** ****** ****** ****** ****** ****** ****** ******
      ****** ****** ****** ****** ****** ****** ****** ****** ****** ******
  19  ****** ****** ****** ****** ****** ****** ****** ****** ****** ******
      ****** ****** ****** ****** ****** ****** ****** ****** ****** ******
      ****** ****** ****** ****** ****** ****** ****** ****** ****** ******
  20  ****** ****** ****** ****** ****** ****** ****** ****** ****** ******
      ****** ****** ****** ****** ****** ****** ****** ****** ****** ******
      ****** ****** ****** ****** ****** ****** ****** ****** ****** ******
  21  ****** ****** ****** ****** ****** ****** ****** ****** ****** ******
      ****** ****** ****** ****** ****** ****** ****** ****** ****** ******
      ****** ****** ****** ****** ****** ****** ****** ****** ****** ******
  22  ****** ****** ****** ****** ****** ****** ****** ****** ****** ******
      ****** ****** ****** ****** ****** ****** ****** ****** ****** ******
      ****** ****** ****** ****** ****** ****** ****** ****** ****** ******
  23  ****** ****** ****** ****** ****** ****** ****** ****** ****** ******
      ****** ****** ****** ****** ****** ****** ****** ****** ****** ******
      ****** ****** ****** ****** ****** ****** ****** ****** ****** ******
  24  ****** ****** ****** ****** ****** ****** ****** ****** ****** ******
      ****** ****** ****** ****** ****** ****** ****** ****** ****** ******
      ****** ****** ****** ****** ****** ****** ****** ****** ****** ******
  25  ****** ****** ****** ****** ****** ****** ****** ****** ****** ******
      ****** ****** ****** ****** ****** ****** ****** ****** ****** ******
      ****** ****** ****** ****** ****** ****** ****** ****** ****** ******

 HEAD WILL BE SAVED ON UNIT   51 AT END OF TIME STEP    1, STRESS PERIOD   11
1
  VOLUMETRIC BUDGET FOR ENTIRE MODEL AT END OF TIME STEP    1, STRESS PERIOD  11
  ------------------------------------------------------------------------------

     CUMULATIVE VOLUMES      L**3       RATES FOR THIS TIME STEP      L**3/T
     ------------------                 ------------------------

           IN:                                      IN:
           ---                                      ---
             STORAGE =    21211266.5411               STORAGE =        3364.7954
       CONSTANT HEAD =  1226004302.2548         CONSTANT HEAD =     1256194.2479
               WELLS =           0.0000                 WELLS =           0.0000
            RECHARGE =    23901600.0000              RECHARGE =           0.0000
      STREAM LEAKAGE =           0.0000        STREAM LEAKAGE =           0.0000

            TOTAL IN =  1271117168.7959              TOTAL IN =     1259559.0432

          OUT:                                     OUT:
          ----                                     ----
             STORAGE =      908484.7310               STORAGE =           0.0000
       CONSTANT HEAD =           0.0000         CONSTANT HEAD =           0.0000
               WELLS =   107770000.0000                 WELLS =      130000.0000
            RECHARGE =           0.0000              RECHARGE =           0.0000
      STREAM LEAKAGE =  1162438693.8747        STREAM LEAKAGE =     1129559.0819

           TOTAL OUT =  1271117178.6057             TOTAL OUT =     1259559.0819

            IN - OUT =          -9.8098              IN - OUT =      -3.8662E-02

 PERCENT DISCREPANCY =          -0.00     PERCENT DISCREPANCY =          -0.00






         TIME SUMMARY AT END OF TIME STEP    1 IN STRESS PERIOD   11
                    SECONDS     MINUTES      HOURS       DAYS        YEARS
                    -----------------------------------------------------------
   TIME STEP LENGTH 7.86240E+06 1.31040E+05  2184.0      91.000     0.24914    
 STRESS PERIOD TIME 7.86240E+06 1.31040E+05  2184.0      91.000     0.24914    
         TOTAL TIME 8.67456E+07 1.44576E+06  24096.      1004.0      2.7488    
1
1
                            STRESS PERIOD NO.   12, LENGTH =   91.00000    
                            -----------------------------------------------

                              NUMBER OF TIME STEPS =     1

                               MULTIPLIER FOR DELT =     1.500

                            INITIAL TIME STEP SIZE =   91.00000    

 WELL NO.  LAYER   ROW   COL   STRESS RATE         
 --------------------------------------------------
      1      1     22     22     -0.3000E+05
      2      1      2     29       0.000    
      3      1      5     21     -0.5000E+05

      3 WELLS

                 RECHARGE =  1.000000E-03

 REUSING STREAM SEGMENT DATA FROM LAST STRESS PERIOD
 
 SOLVING FOR HEAD 


     6 CALLS TO PCG ROUTINE FOR TIME STEP   1 IN STRESS PERIOD   12
    22 TOTAL ITERATIONS

 OUTPUT CONTROL FOR STRESS PERIOD   12   TIME STEP    1
    SAVE BUDGET
    SAVE HEAD FOR ALL LAYERS
    PRINT HEAD FOR ALL LAYERS
 UBDSV2 SAVING "STREAMFLOW OUT  " ON UNIT  50 AT TIME STEP  1, STRESS PERIOD  12



 STREAM LISTING     PERIOD     12   STEP        1

 LAYER ROW COL. STREAM  RCH.  FLOW INTO     FLOW TO   FLOW OUT OF   OVRLND.     DIRECT     STREAM       STREAM     STREAM     STREAM   STREAMBED  STREAMBED
                SEG.NO.  NO.  STRM. RCH.    AQUIFER    STRM. RCH.    RUNOFF     PRECIP       ET          HEAD       DEPTH      WIDTH   CONDCTNC.   GRADIENT

   1   13    1     1     1    1.0000E+05 -2.7841E+04   1.2784E+05  0.000E+00  0.000E+00  0.000E+00  4.84178E+01  1.564E-01  2.000E+01  2.000E+04 -1.392E+00
   1   13    2     1     2    1.2784E+05 -3.7574E+04   1.6542E+05  0.000E+00  0.000E+00  0.000E+00  4.79661E+01  1.820E-01  2.000E+01  2.000E+04 -1.879E+00
   1   14    3     1     3    1.6542E+05 -3.3063E+04   1.9848E+05  0.000E+00  0.000E+00  0.000E+00  4.75140E+01  2.072E-01  2.000E+01  2.000E+04 -1.653E+00
   1   15    4     1     4    1.9848E+05 -3.2306E+04   2.3078E+05  0.000E+00  0.000E+00  0.000E+00  4.70583E+01  2.287E-01  2.000E+01  2.000E+04 -1.615E+00
   1   16    5     1     5    2.3078E+05 -3.3836E+04   2.6462E+05  0.000E+00  0.000E+00  0.000E+00  4.66015E+01  2.493E-01  2.000E+01  2.000E+04 -1.692E+00
   1   16    6     1     6    2.6462E+05 -2.9553E+04   2.9417E+05  0.000E+00  0.000E+00  0.000E+00  4.61430E+01  2.680E-01  2.000E+01  2.000E+04 -1.478E+00
   1   16    7     1     7    2.9417E+05 -2.9367E+04   3.2354E+05  0.000E+00  0.000E+00  0.000E+00  4.56823E+01  2.846E-01  2.000E+01  2.000E+04 -1.468E+00
   1   16    8     1     8    3.2354E+05 -2.9542E+04   3.5308E+05  0.000E+00  0.000E+00  0.000E+00  4.52210E+01  3.005E-01  2.000E+01  2.000E+04 -1.477E+00
   1   16    9     1     9    3.5308E+05 -2.9613E+04   3.8270E+05  0.000E+00  0.000E+00  0.000E+00  4.47592E+01  3.160E-01  2.000E+01  2.000E+04 -1.481E+00
   1   16   10     1    10    3.8270E+05 -2.9627E+04   4.1232E+05  0.000E+00  0.000E+00  0.000E+00  4.42970E+01  3.311E-01  2.000E+01  2.000E+04 -1.481E+00
   1   16   11     1    11    4.1232E+05 -3.0208E+04   4.4253E+05  0.000E+00  0.000E+00  0.000E+00  4.38344E+01  3.458E-01  2.000E+01  2.000E+04 -1.510E+00
   1   16   12     1    12    4.4253E+05 -3.5654E+04   4.7819E+05  0.000E+00  0.000E+00  0.000E+00  4.33729E+01  3.616E-01  2.000E+01  2.000E+04 -1.783E+00
   1   15   13     1    13    4.7819E+05 -3.4306E+04   5.1249E+05  0.000E+00  0.000E+00  0.000E+00  4.29119E+01  3.778E-01  2.000E+01  2.000E+04 -1.715E+00
   1   14   14     1    14    5.1249E+05 -3.4780E+04   5.4727E+05  0.000E+00  0.000E+00  0.000E+00  4.24502E+01  3.934E-01  2.000E+01  2.000E+04 -1.739E+00
   1   13   15     1    15    5.4727E+05 -3.6818E+04   5.8409E+05  0.000E+00  0.000E+00  0.000E+00  4.19887E+01  4.091E-01  2.000E+01  2.000E+04 -1.841E+00
   1   12   16     1    16    5.8409E+05 -4.2458E+04   6.2655E+05  0.000E+00  0.000E+00  0.000E+00  4.15284E+01  4.261E-01  2.000E+01  2.000E+04 -2.123E+00
   1   12   17     1    17    6.2655E+05 -3.2958E+04   6.5950E+05  0.000E+00  0.000E+00  0.000E+00  4.10668E+01  4.418E-01  2.000E+01  2.000E+04 -1.648E+00
   1   12   18     1    18    6.5950E+05 -3.1137E+04   6.9064E+05  0.000E+00  0.000E+00  0.000E+00  4.06026E+01  4.549E-01  2.000E+01  2.000E+04 -1.557E+00
   1   12   19     1    19    6.9064E+05 -3.4758E+04   7.2540E+05  0.000E+00  0.000E+00  0.000E+00  4.01386E+01  4.681E-01  2.000E+01  2.000E+04 -1.738E+00
   1   13   20     1    20    7.2540E+05 -2.5585E+04   7.5098E+05  0.000E+00  0.000E+00  0.000E+00  3.96732E+01  4.800E-01  2.000E+01  2.000E+04 -1.279E+00
   1   14   21     1    21    7.5098E+05 -1.8834E+04   7.6982E+05  0.000E+00  0.000E+00  0.000E+00  3.92045E+01  4.886E-01  2.000E+01  2.000E+04 -9.417E-01
   1   14   22     1    22    7.6982E+05 -1.3655E+03   7.7118E+05  0.000E+00  0.000E+00  0.000E+00  3.87311E+01  4.925E-01  2.000E+01  2.000E+04 -6.827E-02
   1    9   30     2     1    5.0000E+04 -2.6034E+04   7.6034E+04  0.000E+00  0.000E+00  0.000E+00  4.02581E+01  1.331E-01  2.000E+01  2.000E+04 -1.302E+00
   1    9   29     2     2    7.6034E+04 -2.8411E+04   1.0445E+05  0.000E+00  0.000E+00  0.000E+00  4.00401E+01  1.651E-01  2.000E+01  2.000E+04 -1.421E+00
   1    9   28     2     3    1.0445E+05 -3.2453E+04   1.3690E+05  0.000E+00  0.000E+00  0.000E+00  3.98216E+01  1.966E-01  2.000E+01  2.000E+04 -1.623E+00
   1    9   27     2     4    1.3690E+05 -4.5835E+04   1.8273E+05  0.000E+00  0.000E+00  0.000E+00  3.96077E+01  2.327E-01  2.000E+01  2.000E+04 -2.292E+00
   1   10   26     2     5    1.8273E+05 -3.1825E+04   2.1456E+05  0.000E+00  0.000E+00  0.000E+00  3.93901E+01  2.651E-01  2.000E+01  2.000E+04 -1.591E+00
   1   11   25     2     6    2.1456E+05 -2.3605E+04   2.3816E+05  0.000E+00  0.000E+00  0.000E+00  3.91617E+01  2.867E-01  2.000E+01  2.000E+04 -1.180E+00
   1   12   24     2     7    2.3816E+05 -1.7308E+04   2.5547E+05  0.000E+00  0.000E+00  0.000E+00  3.89270E+01  3.020E-01  2.000E+01  2.000E+04 -8.654E-01
   1   13   23     2     8    2.5547E+05 -1.2332E+04   2.6780E+05  0.000E+00  0.000E+00  0.000E+00  3.86877E+01  3.127E-01  2.000E+01  2.000E+04 -6.166E-01
   1   14   22     2     9    2.6780E+05 -7.0946E+03   2.7490E+05  0.000E+00  0.000E+00  0.000E+00  3.84447E+01  3.197E-01  2.000E+01  2.000E+04 -3.547E-01
   1   14   22     3     1    1.0461E+06 -1.5015E+04   1.0611E+06  0.000E+00  0.000E+00  0.000E+00  3.80486E+01  4.931E-01  2.000E+01  2.000E+04 -7.508E-01
   1   15   23     3     2    1.0611E+06 -2.2813E+04   1.0839E+06  0.000E+00  0.000E+00  0.000E+00  3.71650E+01  4.984E-01  2.000E+01  2.000E+04 -1.141E+00
   1   15   24     3     3    1.0839E+06 -1.9086E+04   1.1030E+06  0.000E+00  0.000E+00  0.000E+00  3.62820E+01  5.042E-01  2.000E+01  2.000E+04 -9.543E-01
   1   15   25     3     4    1.1030E+06 -1.8818E+04   1.1218E+06  0.000E+00  0.000E+00  0.000E+00  3.53983E+01  5.094E-01  2.000E+01  2.000E+04 -9.409E-01
   1   15   26     3     5    1.1218E+06 -2.1683E+04   1.1435E+06  0.000E+00  0.000E+00  0.000E+00  3.45149E+01  5.149E-01  2.000E+01  2.000E+04 -1.084E+00
   1   16   27     3     6    1.1435E+06 -2.8683E+04   1.1722E+06  0.000E+00  0.000E+00  0.000E+00  3.36329E+01  5.218E-01  2.000E+01  2.000E+04 -1.434E+00
   1   17   28     3     7    1.1722E+06 -3.5707E+04   1.2079E+06  0.000E+00  0.000E+00  0.000E+00  3.27527E+01  5.304E-01  2.000E+01  2.000E+04 -1.785E+00
   1   18   29     3     8    1.2079E+06 -4.6707E+04   1.2546E+06  0.000E+00  0.000E+00  0.000E+00  3.18747E+01  5.414E-01  2.000E+01  2.000E+04 -2.335E+00
   1   18   30     3     9    1.2546E+06 -4.3369E+04   1.2980E+06  0.000E+00  0.000E+00  0.000E+00  3.09976E+01  5.532E-01  2.000E+01  2.000E+04 -2.168E+00



1
              HEAD IN LAYER   1 AT END OF TIME STEP   1 IN STRESS PERIOD   12
  ---------------------------------------------------------------------------

          1      2      3      4      5      6      7      8      9     10
         11     12     13     14     15     16     17     18     19     20
         21     22     23     24     25     26     27     28     29     30
 .........................................................................
   1  ****** ****** ****** ****** ****** ****** ****** ****** ****** ******
      ****** ****** ****** ****** ****** ****** ****** ****** ****** ******
      ****** ****** ****** ****** ****** ****** ****** ****** ****** ******
   2  ****** ****** ****** ****** ****** ****** ****** ****** ****** ******
      ****** ****** ****** ****** ****** ****** ****** ****** ****** ******
      ****** ****** ****** ****** ****** ****** ****** ****** ****** ******
   3  ****** ****** ****** ****** ****** ****** ****** ****** ****** ******
      ****** ****** ****** ****** ****** ****** ****** ****** ****** ******
      ****** ****** ****** ****** ****** ****** ****** ****** ****** ******
   4  ****** ****** ****** ****** ****** ****** ****** ****** ****** ******
      ****** ****** ****** ****** ****** ****** ****** ****** ****** ******
      ****** ****** ****** ****** ****** ****** ****** ****** ****** ******
   5  ****** ****** ****** ****** ****** ****** ****** ****** ****** ******
      ****** ****** ****** ****** ****** ****** ****** ****** ****** ******
      ****** ****** ****** ****** ****** ****** ****** ****** ****** ******
   6  ****** ****** ****** ****** ****** ****** ****** ****** ****** ******
      ****** ****** ****** ****** ****** ****** ****** ****** ****** ******
      ****** ****** ****** ****** ****** ****** ****** ****** ****** ******
   7  ****** ****** ****** ****** ****** ****** ****** ****** ****** ******
      ****** ****** ****** ****** ****** ****** ****** ****** ****** ******
      ****** ****** ****** ****** ****** ****** ****** ****** ****** ******
   8  ****** ****** ****** ****** ****** ****** ****** ****** ****** ******
      ****** ****** ****** ****** ****** ****** ****** ****** ****** ******
      ****** ****** ****** ****** ****** ****** ****** ****** ****** ******
   9  ****** ****** ****** ****** ****** ****** ****** ****** ****** ******
      ****** ****** ****** ****** ****** ****** ****** ****** ****** ******
      ****** ****** ****** ****** ****** ****** ****** ****** ****** ******
  10  ****** ****** ****** ****** ****** ****** ****** ****** ****** ******
      ****** ****** ****** ****** ****** ****** ****** ****** ****** ******
      ****** ****** ****** ****** ****** ****** ****** ****** ****** ******
  11  ****** ****** ****** ****** ****** ****** ****** ****** ****** ******
      ****** ****** ****** ****** ****** ****** ****** ****** ****** ******
      ****** ****** ****** ****** ****** ****** ****** ****** ****** ******
  12  ****** ****** ****** ****** ****** ****** ****** ****** ****** ******
      ****** ****** ****** ****** ****** ****** ****** ****** ****** ******
      ****** ****** ****** ****** ****** ****** ****** ****** ****** ******
  13  ****** ****** ****** ****** ****** ****** ****** ****** ****** ******
      ****** ****** ****** ****** ****** ****** ****** ****** ****** ******
      ****** ****** ****** ****** ****** ****** ****** ****** ****** ******
  14  ****** ****** ****** ****** ****** ****** ****** ****** ****** ******
      ****** ****** ****** ****** ****** ****** ****** ****** ****** ******
      ****** ****** ****** ****** ****** ****** ****** ****** ****** ******
  15  ****** ****** ****** ****** ****** ****** ****** ****** ****** ******
      ****** ****** ****** ****** ****** ****** ****** ****** ****** ******
      ****** ****** ****** ****** ****** ****** ****** ****** ****** ******
  16  ****** ****** ****** ****** ****** ****** ****** ****** ****** ******
      ****** ****** ****** ****** ****** ****** ****** ****** ****** ******
      ****** ****** ****** ****** ****** ****** ****** ****** ****** ******
  17  ****** ****** ****** ****** ****** ****** ****** ****** ****** ******
      ****** ****** ****** ****** ****** ****** ****** ****** ****** ******
      ****** ****** ****** ****** ****** ****** ****** ****** ****** ******
  18  ****** ****** ****** ****** ****** ****** ****** ****** ****** ******
      ****** ****** ****** ****** ****** ****** ****** ****** ****** ******
      ****** ****** ****** ****** ****** ****** ****** ****** ****** ******
  19  ****** ****** ****** ****** ****** ****** ****** ****** ****** ******
      ****** ****** ****** ****** ****** ****** ****** ****** ****** ******
      ****** ****** ****** ****** ****** ****** ****** ****** ****** ******
  20  ****** ****** ****** ****** ****** ****** ****** ****** ****** ******
      ****** ****** ****** ****** ****** ****** ****** ****** ****** ******
      ****** ****** ****** ****** ****** ****** ****** ****** ****** ******
  21  ****** ****** ****** ****** ****** ****** ****** ****** ****** ******
      ****** ****** ****** ****** ****** ****** ****** ****** ****** ******
      ****** ****** ****** ****** ****** ****** ****** ****** ****** ******
  22  ****** ****** ****** ****** ****** ****** ****** ****** ****** ******
      ****** ****** ****** ****** ****** ****** ****** ****** ****** ******
      ****** ****** ****** ****** ****** ****** ****** ****** ****** ******
  23  ****** ****** ****** ****** ****** ****** ****** ****** ****** ******
      ****** ****** ****** ****** ****** ****** ****** ****** ****** ******
      ****** ****** ****** ****** ****** ****** ****** ****** ****** ******
  24  ****** ****** ****** ****** ****** ****** ****** ****** ****** ******
      ****** ****** ****** ****** ****** ****** ****** ****** ****** ******
      ****** ****** ****** ****** ****** ****** ****** ****** ****** ******
  25  ****** ****** ****** ****** ****** ****** ****** ****** ****** ******
      ****** ****** ****** ****** ****** ****** ****** ****** ****** ******
      ****** ****** ****** ****** ****** ****** ****** ****** ****** ******

 HEAD WILL BE SAVED ON UNIT   51 AT END OF TIME STEP    1, STRESS PERIOD   12
1
  VOLUMETRIC BUDGET FOR ENTIRE MODEL AT END OF TIME STEP    1, STRESS PERIOD  12
  ------------------------------------------------------------------------------

     CUMULATIVE VOLUMES      L**3       RATES FOR THIS TIME STEP      L**3/T
     ------------------                 ------------------------

           IN:                                      IN:
           ---                                      ---
             STORAGE =    21211266.5411               STORAGE =           0.0000
       CONSTANT HEAD =  1335421012.4820         CONSTANT HEAD =     1202381.4311
               WELLS =           0.0000                 WELLS =           0.0000
            RECHARGE =    26413200.0000              RECHARGE =       27600.0000
      STREAM LEAKAGE =           0.0000        STREAM LEAKAGE =           0.0000

            TOTAL IN =  1383045479.0231              TOTAL IN =     1229981.4311

          OUT:                                     OUT:
          ----                                     ----
             STORAGE =     1092032.2602               STORAGE =        2017.0058
       CONSTANT HEAD =           0.0000         CONSTANT HEAD =           0.0000
               WELLS =   115050000.0000                 WELLS =       80000.0000
            RECHARGE =           0.0000              RECHARGE =           0.0000
      STREAM LEAKAGE =  1266903454.2687        STREAM LEAKAGE =     1147964.3999

           TOTAL OUT =  1383045486.5289             TOTAL OUT =     1229981.4057

            IN - OUT =          -7.5057              IN - OUT =       2.5319E-02

 PERCENT DISCREPANCY =          -0.00     PERCENT DISCREPANCY =           0.00






         TIME SUMMARY AT END OF TIME STEP    1 IN STRESS PERIOD   12
                    SECONDS     MINUTES      HOURS       DAYS        YEARS
                    -----------------------------------------------------------
   TIME STEP LENGTH 7.86240E+06 1.31040E+05  2184.0      91.000     0.24914    
 STRESS PERIOD TIME 7.86240E+06 1.31040E+05  2184.0      91.000     0.24914    
         TOTAL TIME 9.46080E+07 1.57680E+06  26280.      1095.0      2.9979    
1

 Run end date and time (yyyy/mm/dd hh:mm:ss): 2018/09/30 22:05:36
 Elapsed run time:  0.055 Seconds

