                                  MODFLOW-2005     
      U.S. GEOLOGICAL SURVEY MODULAR FINITE-DIFFERENCE GROUND-WATER FLOW MODEL
                            VERSION 1.11.00 8/8/2013

 LIST FILE: supply2.lst
                         UNIT   10

 OPENING ..\data\supply.dis
 FILE TYPE:DIS   UNIT   11   STATUS:OLD    
 FORMAT:FORMATTED              ACCESS:SEQUENTIAL          

 OPENING ..\data\supply.ba6
 FILE TYPE:BAS6   UNIT   12   STATUS:OLD    
 FORMAT:FORMATTED              ACCESS:SEQUENTIAL          

 OPENING ..\data\supply.bc6
 FILE TYPE:BCF6   UNIT   13   STATUS:OLD    
 FORMAT:FORMATTED              ACCESS:SEQUENTIAL          

 OPENING ..\data\supply.rch
 FILE TYPE:RCH   UNIT   15   STATUS:OLD    
 FORMAT:FORMATTED              ACCESS:SEQUENTIAL          

 OPENING ..\data\supply2.sfr
 FILE TYPE:SFR   UNIT   16   STATUS:OLD    
 FORMAT:FORMATTED              ACCESS:SEQUENTIAL          

 OPENING ..\data\supply.oc
 FILE TYPE:OC   UNIT   17   STATUS:OLD    
 FORMAT:FORMATTED              ACCESS:SEQUENTIAL          

 OPENING ..\data\supply.pcg
 FILE TYPE:PCG   UNIT   18   STATUS:OLD    
 FORMAT:FORMATTED              ACCESS:SEQUENTIAL          

 OPENING supply2.wel
 FILE TYPE:WEL   UNIT   19   STATUS:OLD    
 FORMAT:FORMATTED              ACCESS:SEQUENTIAL          

 OPENING supply2sf.bin
 FILE TYPE:DATA(BINARY)   UNIT   50   STATUS:UNKNOWN
 FORMAT:BINARY                 ACCESS:SEQUENTIAL          

 OPENING supply2hd.bin
 FILE TYPE:DATA(BINARY)   UNIT   51   STATUS:UNKNOWN
 FORMAT:BINARY                 ACCESS:SEQUENTIAL          

 BAS -- BASIC PACKAGE, VERSION 7, 5/2/2005 INPUT READ FROM UNIT   12
 
 MODFLOW was compiled using uniform precision
 Precision of REAL and DOUBLE PRECISION variables:          15

 DISCRETIZATION INPUT DATA READ FROM UNIT   11
    1 LAYERS        25 ROWS        30 COLUMNS
   12 STRESS PERIOD(S) IN SIMULATION
 MODEL TIME UNIT IS DAYS
 MODEL LENGTH UNIT IS UNDEFINED
  Confining bed flag for each layer:
   0

                     DELR =   200.000    

                     DELC =   200.000    

 TOP ELEVATION OF LAYER 1 =  100.0000    

   MODEL LAYER BOTTOM EL. =   0.00000     FOR LAYER   1


 STRESS PERIOD     LENGTH       TIME STEPS     MULTIPLIER FOR DELT    SS FLAG
 ----------------------------------------------------------------------------
        1         92.00000          1                    1.500         TR
        2         91.00000          1                    1.500         TR
        3         91.00000          1                    1.500         TR
        4         91.00000          1                    1.500         TR
        5         92.00000          1                    1.500         TR
        6         91.00000          1                    1.500         TR
        7         91.00000          1                    1.500         TR
        8         91.00000          1                    1.500         TR
        9         92.00000          1                    1.500         TR
       10         91.00000          1                    1.500         TR
       11         91.00000          1                    1.500         TR
       12         91.00000          1                    1.500         TR

 TRANSIENT SIMULATION



 
 #MODOFC transient water supply sample problem                                   
 #                                                                               
 THE FREE FORMAT OPTION HAS BEEN SELECTED



                     BOUNDARY ARRAY FOR LAYER   1
 READING ON UNIT   12 WITH FORMAT: (20I4)              

 AQUIFER HEAD WILL BE SET TO   0.0000     AT ALL NO-FLOW NODES (IBOUND=0).



                       INITIAL HEAD FOR LAYER   1
 READING ON UNIT   12 WITH FORMAT: (10F13.0)           

 OUTPUT CONTROL IS SPECIFIED ONLY AT TIME STEPS FOR WHICH OUTPUT IS DESIRED
 COMPACT CELL-BY-CELL BUDGET FILES WILL BE WRITTEN
 HEAD PRINT FORMAT CODE IS  18    DRAWDOWN PRINT FORMAT CODE IS   0
 HEADS WILL BE SAVED ON UNIT   51    DRAWDOWNS WILL BE SAVED ON UNIT    0

 BCF -- BLOCK-CENTERED FLOW PACKAGE, VERSION 7, 5/2/2005
         INPUT READ FROM UNIT 13
 TRANSIENT SIMULATION
 HEAD AT CELLS THAT CONVERT TO DRY=   0.0000    
 WETTING CAPABILITY IS NOT ACTIVE
      LAYER  LAYER-TYPE CODE     INTERBLOCK T
      --------------------------------------------
         1            0          0 -- HARMONIC    

 COLUMN TO ROW ANISOTROPY =  1.000000    

     PRIMARY STORAGE COEF =  5.000000E-02 FOR LAYER   1

     TRANSMIS. ALONG ROWS =   5000.00     FOR LAYER   1

 WEL -- WELL PACKAGE, VERSION 7, 5/2/2005 INPUT READ FROM UNIT   19
 # Well package input file written by MMProc
 No named parameters
 MAXIMUM OF      7 ACTIVE WELLS AT ONE TIME


     0 Well parameters

 RCH -- RECHARGE PACKAGE, VERSION 7, 5/2/2005 INPUT READ FROM UNIT   15
 No named parameters
 OPTION 1 -- RECHARGE TO TOP LAYER


     0 Recharge parameters

 SFR7 -- STREAMFLOW ROUTING PACKAGE, VERSION 1.0.7, 2013-01-15
         INPUT READ FROM UNIT  16
 #  Supply2 test problem for GWM-VI
 #  The eighth entry in the first data line is ISTCB2 -
 #    Setting this to a negative number indicates that
 #    streamflows out of the reach will be saved to a
 #    binary file.  The absolute value of ISTCB2 is the
 #    unit to which unformatted flows will be written.
 #
 No named parameters
 Segment information will not be 
 read by reach
 No named parameters
 No specifed inflow files


 NUMBER OF STREAM REACHES IS   40

 NUMBER OF STREAM SEGMENTS IS    3

 NUMBER OF STREAM PARAMETERS IS    0

 NUMBER OF STREAM SEGMENTS DEFINED USING PARAMETERS IS              0

 MAXIMUM ERROR FOR STREAM LEAKAGE RATES IS  1.00E-04

 CONSTANT FOR MANNINGS EQUATION IS  1.2839E+05





   STREAM NETWORK DESCRIPTION: 

   LAYER    ROW    COL   SEGMENT   REACH     LENGTH
                          NUMBER   NUMBER    IN CELL        
   --------------------------------------------------
      1     13      1       1        1    2.0000E+02
      1     13      2       1        2    2.0000E+02
      1     14      3       1        3    2.0000E+02
      1     15      4       1        4    2.0000E+02
      1     16      5       1        5    2.0000E+02
      1     16      6       1        6    2.0000E+02
      1     16      7       1        7    2.0000E+02
      1     16      8       1        8    2.0000E+02
      1     16      9       1        9    2.0000E+02
      1     16     10       1       10    2.0000E+02
      1     16     11       1       11    2.0000E+02
      1     16     12       1       12    2.0000E+02
      1     15     13       1       13    2.0000E+02
      1     14     14       1       14    2.0000E+02
      1     13     15       1       15    2.0000E+02
      1     12     16       1       16    2.0000E+02
      1     12     17       1       17    2.0000E+02
      1     12     18       1       18    2.0000E+02
      1     12     19       1       19    2.0000E+02
      1     13     20       1       20    2.0000E+02
      1     14     21       1       21    2.0000E+02
      1     14     22       1       22    2.0000E+02
      1      9     30       2        1    2.0000E+02
      1      9     29       2        2    2.0000E+02
      1      9     28       2        3    2.0000E+02
      1      9     27       2        4    2.0000E+02
      1     10     26       2        5    2.0000E+02
      1     11     25       2        6    2.0000E+02
      1     12     24       2        7    2.0000E+02
      1     13     23       2        8    2.0000E+02
      1     14     22       2        9    2.0000E+02
      1     14     22       3        1    2.0000E+02
      1     15     23       3        2    2.0000E+02
      1     15     24       3        3    2.0000E+02
      1     15     25       3        4    2.0000E+02
      1     15     26       3        5    2.0000E+02
      1     16     27       3        6    2.0000E+02
      1     17     28       3        7    2.0000E+02
      1     18     29       3        8    2.0000E+02
      1     18     30       3        9    2.0000E+02




 PCG -- CONJUGATE-GRADIENT SOLUTION PACKAGE, VERSION 7, 5/2/2005
 MAXIMUM OF    500 CALLS OF SOLUTION ROUTINE
 MAXIMUM OF      5 INTERNAL ITERATIONS PER CALL TO SOLUTION ROUTINE
 MATRIX PRECONDITIONING TYPE :    1



                                    SOLUTION BY THE CONJUGATE-GRADIENT METHOD
                                   -------------------------------------------
                    MAXIMUM NUMBER OF CALLS TO PCG ROUTINE =      500
                        MAXIMUM ITERATIONS PER CALL TO PCG =        5
                               MATRIX PRECONDITIONING TYPE =        1
        RELAXATION FACTOR (ONLY USED WITH PRECOND. TYPE 1) =    0.10000E+01
 PARAMETER OF POLYNOMIAL PRECOND. = 2 (2) OR IS CALCULATED :        0
                         HEAD CHANGE CRITERION FOR CLOSURE =    0.10000E-05
                     RESIDUAL CHANGE CRITERION FOR CLOSURE =    0.10000E+01
            PCG HEAD AND RESIDUAL CHANGE PRINTOUT INTERVAL =        1
     PRINTING FROM SOLVER IS LIMITED(1) OR SUPPRESSED (>1) =        1
                            STEADY-STATE DAMPING PARAMETER =    0.10000E+01
                               TRANSIENT DAMPING PARAMETER =    0.10000E+01
1
                            STRESS PERIOD NO.    1, LENGTH =   92.00000    
                            -----------------------------------------------

                              NUMBER OF TIME STEPS =     1

                               MULTIPLIER FOR DELT =     1.500

                            INITIAL TIME STEP SIZE =   92.00000    

 WELL NO.  LAYER   ROW   COL   STRESS RATE         
 --------------------------------------------------
      1      1      8     16     -0.3000E+05
      2      1     21     24     -0.5000E+05

      2 WELLS

                 RECHARGE =  5.000000E-04



 CLASSIFICATION & COUNT OF STREAM SEGMENTS BASED ON SOURCE OF INFLOW:

                HEADWATER     DIVERSION     RECEIVES TRIBUTARY FLOW
                ---------     ---------     -----------------------
                     2              0               1



                    INPUT DATA FOR EACH STREAM SEGMENT
 ---------------------------------------------------------------------------------------------

 SEGMENT    SEG.     INFLOW   OVERLAND   STREAM    STREAM   ICALC  OUTFLOW  DIVERSION PRIORITY
    NO.    LENGTH     RATE     RUNOFF      ET       PPT.    METH.  TO SEG.  FROM SEG.    NO.

      1  4.400E+03 1.000E+05 0.000E+00 0.000E+00 0.000E+00    1        3        0        0
      2  1.800E+03 5.000E+04 0.000E+00 0.000E+00 0.000E+00    1        3        0        0
      3  1.800E+03 0.000E+00 0.000E+00 0.000E+00 0.000E+00    1        0        0        0


         STREAMBED PROPERTIES AND STREAM DIMENSIONS

 SEGMENT     BED HYD. COND.      BED THICKNESS     ELEV.-TOP OF BED     WIDTH OF STREAM     DEPTH OF STREAM    STREAM ROUGHNESS
    No.     UPPER     LOWER     UPPER     LOWER     UPPER     LOWER     UPPER     LOWER     UPPER     LOWER   CHANNEL      BANK

     1  5.000E+00 5.000E+00 1.000E+00 1.000E+00 4.850E+01 3.800E+01 2.000E+01 2.000E+01                     5.000E-02
     2  5.000E+00 5.000E+00 1.000E+00 1.000E+00 4.025E+01 3.800E+01 2.000E+01 2.000E+01                     5.000E-02
     3  5.000E+00 5.000E+00 1.000E+00 1.000E+00 3.800E+01 3.000E+01 2.000E+01 2.000E+01                     5.000E-02



 
 SOLVING FOR HEAD 


     8 CALLS TO PCG ROUTINE FOR TIME STEP   1 IN STRESS PERIOD    1
    32 TOTAL ITERATIONS

 OUTPUT CONTROL FOR STRESS PERIOD    1   TIME STEP    1
    SAVE BUDGET
    SAVE HEAD FOR ALL LAYERS
    PRINT HEAD FOR ALL LAYERS
 UBDSV2 SAVING "STREAMFLOW OUT  " ON UNIT  50 AT TIME STEP  1, STRESS PERIOD   1



 STREAM LISTING     PERIOD      1   STEP        1

 LAYER ROW COL. STREAM  RCH.  FLOW INTO     FLOW TO   FLOW OUT OF   OVRLND.     DIRECT     STREAM       STREAM     STREAM     STREAM   STREAMBED  STREAMBED
                SEG.NO.  NO.  STRM. RCH.    AQUIFER    STRM. RCH.    RUNOFF     PRECIP       ET          HEAD       DEPTH      WIDTH   CONDCTNC.   GRADIENT

   1   13    1     1     1    1.0000E+05 -3.1547E+04   1.3155E+05  0.000E+00  0.000E+00  0.000E+00  4.84193E+01  1.579E-01  2.000E+01  2.000E+04 -1.577E+00
   1   13    2     1     2    1.3155E+05 -4.1954E+04   1.7350E+05  0.000E+00  0.000E+00  0.000E+00  4.79704E+01  1.863E-01  2.000E+01  2.000E+04 -2.098E+00
   1   14    3     1     3    1.7350E+05 -3.7517E+04   2.1102E+05  0.000E+00  0.000E+00  0.000E+00  4.75209E+01  2.141E-01  2.000E+01  2.000E+04 -1.876E+00
   1   15    4     1     4    2.1102E+05 -3.6592E+04   2.4761E+05  0.000E+00  0.000E+00  0.000E+00  4.70675E+01  2.380E-01  2.000E+01  2.000E+04 -1.830E+00
   1   16    5     1     5    2.4761E+05 -3.7579E+04   2.8519E+05  0.000E+00  0.000E+00  0.000E+00  4.66127E+01  2.604E-01  2.000E+01  2.000E+04 -1.879E+00
   1   16    6     1     6    2.8519E+05 -3.2827E+04   3.1802E+05  0.000E+00  0.000E+00  0.000E+00  4.61555E+01  2.805E-01  2.000E+01  2.000E+04 -1.641E+00
   1   16    7     1     7    3.1802E+05 -3.2610E+04   3.5063E+05  0.000E+00  0.000E+00  0.000E+00  4.56961E+01  2.984E-01  2.000E+01  2.000E+04 -1.631E+00
   1   16    8     1     8    3.5063E+05 -3.2790E+04   3.8342E+05  0.000E+00  0.000E+00  0.000E+00  4.52361E+01  3.156E-01  2.000E+01  2.000E+04 -1.639E+00
   1   16    9     1     9    3.8342E+05 -3.2851E+04   4.1627E+05  0.000E+00  0.000E+00  0.000E+00  4.47754E+01  3.322E-01  2.000E+01  2.000E+04 -1.643E+00
   1   16   10     1    10    4.1627E+05 -3.2847E+04   4.4911E+05  0.000E+00  0.000E+00  0.000E+00  4.43143E+01  3.484E-01  2.000E+01  2.000E+04 -1.642E+00
   1   16   11     1    11    4.4911E+05 -3.3460E+04   4.8257E+05  0.000E+00  0.000E+00  0.000E+00  4.38528E+01  3.641E-01  2.000E+01  2.000E+04 -1.673E+00
   1   16   12     1    12    4.8257E+05 -3.9421E+04   5.2199E+05  0.000E+00  0.000E+00  0.000E+00  4.33923E+01  3.810E-01  2.000E+01  2.000E+04 -1.971E+00
   1   15   13     1    13    5.2199E+05 -3.8519E+04   5.6051E+05  0.000E+00  0.000E+00  0.000E+00  4.29325E+01  3.984E-01  2.000E+01  2.000E+04 -1.926E+00
   1   14   14     1    14    5.6051E+05 -3.8984E+04   5.9950E+05  0.000E+00  0.000E+00  0.000E+00  4.24721E+01  4.153E-01  2.000E+01  2.000E+04 -1.949E+00
   1   13   15     1    15    5.9950E+05 -4.0606E+04   6.4010E+05  0.000E+00  0.000E+00  0.000E+00  4.20117E+01  4.322E-01  2.000E+01  2.000E+04 -2.030E+00
   1   12   16     1    16    6.4010E+05 -4.5294E+04   6.8540E+05  0.000E+00  0.000E+00  0.000E+00  4.15522E+01  4.499E-01  2.000E+01  2.000E+04 -2.265E+00
   1   12   17     1    17    6.8540E+05 -3.5644E+04   7.2104E+05  0.000E+00  0.000E+00  0.000E+00  4.10912E+01  4.662E-01  2.000E+01  2.000E+04 -1.782E+00
   1   12   18     1    18    7.2104E+05 -3.4240E+04   7.5528E+05  0.000E+00  0.000E+00  0.000E+00  4.06277E+01  4.800E-01  2.000E+01  2.000E+04 -1.712E+00
   1   12   19     1    19    7.5528E+05 -3.8825E+04   7.9411E+05  0.000E+00  0.000E+00  0.000E+00  4.01645E+01  4.941E-01  2.000E+01  2.000E+04 -1.941E+00
   1   13   20     1    20    7.9411E+05 -2.9575E+04   8.2368E+05  0.000E+00  0.000E+00  0.000E+00  3.97002E+01  5.071E-01  2.000E+01  2.000E+04 -1.479E+00
   1   14   21     1    21    8.2368E+05 -2.1904E+04   8.4559E+05  0.000E+00  0.000E+00  0.000E+00  3.92326E+01  5.167E-01  2.000E+01  2.000E+04 -1.095E+00
   1   14   22     1    22    8.4559E+05 -2.5615E+03   8.4815E+05  0.000E+00  0.000E+00  0.000E+00  3.87598E+01  5.212E-01  2.000E+01  2.000E+04 -1.281E-01
   1    9   30     2     1    5.0000E+04 -2.9551E+04   7.9551E+04  0.000E+00  0.000E+00  0.000E+00  4.02603E+01  1.353E-01  2.000E+01  2.000E+04 -1.478E+00
   1    9   29     2     2    7.9551E+04 -3.1977E+04   1.1153E+05  0.000E+00  0.000E+00  0.000E+00  4.00459E+01  1.709E-01  2.000E+01  2.000E+04 -1.599E+00
   1    9   28     2     3    1.1153E+05 -3.6261E+04   1.4779E+05  0.000E+00  0.000E+00  0.000E+00  3.98302E+01  2.052E-01  2.000E+01  2.000E+04 -1.813E+00
   1    9   27     2     4    1.4779E+05 -5.0763E+04   1.9855E+05  0.000E+00  0.000E+00  0.000E+00  3.96192E+01  2.442E-01  2.000E+01  2.000E+04 -2.538E+00
   1   10   26     2     5    1.9855E+05 -3.7089E+04   2.3564E+05  0.000E+00  0.000E+00  0.000E+00  3.94046E+01  2.796E-01  2.000E+01  2.000E+04 -1.854E+00
   1   11   25     2     6    2.3564E+05 -2.8625E+04   2.6427E+05  0.000E+00  0.000E+00  0.000E+00  3.91793E+01  3.043E-01  2.000E+01  2.000E+04 -1.431E+00
   1   12   24     2     7    2.6427E+05 -2.1626E+04   2.8589E+05  0.000E+00  0.000E+00  0.000E+00  3.89473E+01  3.223E-01  2.000E+01  2.000E+04 -1.081E+00
   1   13   23     2     8    2.8589E+05 -1.5579E+04   3.0147E+05  0.000E+00  0.000E+00  0.000E+00  3.87102E+01  3.352E-01  2.000E+01  2.000E+04 -7.790E-01
   1   14   22     2     9    3.0147E+05 -8.3917E+03   3.0986E+05  0.000E+00  0.000E+00  0.000E+00  3.84683E+01  3.433E-01  2.000E+01  2.000E+04 -4.196E-01
   1   14   22     3     1    1.1580E+06 -1.6167E+04   1.1742E+06  0.000E+00  0.000E+00  0.000E+00  3.80796E+01  5.240E-01  2.000E+01  2.000E+04 -8.084E-01
   1   15   23     3     2    1.1742E+06 -2.4885E+04   1.1991E+06  0.000E+00  0.000E+00  0.000E+00  3.71962E+01  5.295E-01  2.000E+01  2.000E+04 -1.244E+00
   1   15   24     3     3    1.1991E+06 -2.0834E+04   1.2199E+06  0.000E+00  0.000E+00  0.000E+00  3.63134E+01  5.356E-01  2.000E+01  2.000E+04 -1.042E+00
   1   15   25     3     4    1.2199E+06 -2.0751E+04   1.2406E+06  0.000E+00  0.000E+00  0.000E+00  3.54300E+01  5.411E-01  2.000E+01  2.000E+04 -1.038E+00
   1   15   26     3     5    1.2406E+06 -2.4408E+04   1.2651E+06  0.000E+00  0.000E+00  0.000E+00  3.45471E+01  5.471E-01  2.000E+01  2.000E+04 -1.220E+00
   1   16   27     3     6    1.2651E+06 -3.1346E+04   1.2964E+06  0.000E+00  0.000E+00  0.000E+00  3.36654E+01  5.543E-01  2.000E+01  2.000E+04 -1.567E+00
   1   17   28     3     7    1.2964E+06 -3.8023E+04   1.3344E+06  0.000E+00  0.000E+00  0.000E+00  3.27855E+01  5.633E-01  2.000E+01  2.000E+04 -1.901E+00
   1   18   29     3     8    1.3344E+06 -4.8361E+04   1.3828E+06  0.000E+00  0.000E+00  0.000E+00  3.19077E+01  5.743E-01  2.000E+01  2.000E+04 -2.418E+00
   1   18   30     3     9    1.3828E+06 -4.5237E+04   1.4280E+06  0.000E+00  0.000E+00  0.000E+00  3.10306E+01  5.861E-01  2.000E+01  2.000E+04 -2.262E+00



1
              HEAD IN LAYER   1 AT END OF TIME STEP   1 IN STRESS PERIOD    1
  ---------------------------------------------------------------------------

          1      2      3      4      5      6      7      8      9     10
         11     12     13     14     15     16     17     18     19     20
         21     22     23     24     25     26     27     28     29     30
 .........................................................................
   1  ****** ****** ****** ****** ****** ****** ****** ****** ****** ******
      ****** ****** ****** ****** ****** ****** ****** ****** ****** ******
      ****** ****** ****** ****** ****** ****** ****** ****** ****** ******
   2  ****** ****** ****** ****** ****** ****** ****** ****** ****** ******
      ****** ****** ****** ****** ****** ****** ****** ****** ****** ******
      ****** ****** ****** ****** ****** ****** ****** ****** ****** ******
   3  ****** ****** ****** ****** ****** ****** ****** ****** ****** ******
      ****** ****** ****** ****** ****** ****** ****** ****** ****** ******
      ****** ****** ****** ****** ****** ****** ****** ****** ****** ******
   4  ****** ****** ****** ****** ****** ****** ****** ****** ****** ******
      ****** ****** ****** ****** ****** ****** ****** ****** ****** ******
      ****** ****** ****** ****** ****** ****** ****** ****** ****** ******
   5  ****** ****** ****** ****** ****** ****** ****** ****** ****** ******
      ****** ****** ****** ****** ****** ****** ****** ****** ****** ******
      ****** ****** ****** ****** ****** ****** ****** ****** ****** ******
   6  ****** ****** ****** ****** ****** ****** ****** ****** ****** ******
      ****** ****** ****** ****** ****** ****** ****** ****** ****** ******
      ****** ****** ****** ****** ****** ****** ****** ****** ****** ******
   7  ****** ****** ****** ****** ****** ****** ****** ****** ****** ******
      ****** ****** ****** ****** ****** ****** ****** ****** ****** ******
      ****** ****** ****** ****** ****** ****** ****** ****** ****** ******
   8  ****** ****** ****** ****** ****** ****** ****** ****** ****** ******
      ****** ****** ****** ****** ****** ****** ****** ****** ****** ******
      ****** ****** ****** ****** ****** ****** ****** ****** ****** ******
   9  ****** ****** ****** ****** ****** ****** ****** ****** ****** ******
      ****** ****** ****** ****** ****** ****** ****** ****** ****** ******
      ****** ****** ****** ****** ****** ****** ****** ****** ****** ******
  10  ****** ****** ****** ****** ****** ****** ****** ****** ****** ******
      ****** ****** ****** ****** ****** ****** ****** ****** ****** ******
      ****** ****** ****** ****** ****** ****** ****** ****** ****** ******
  11  ****** ****** ****** ****** ****** ****** ****** ****** ****** ******
      ****** ****** ****** ****** ****** ****** ****** ****** ****** ******
      ****** ****** ****** ****** ****** ****** ****** ****** ****** ******
  12  ****** ****** ****** ****** ****** ****** ****** ****** ****** ******
      ****** ****** ****** ****** ****** ****** ****** ****** ****** ******
      ****** ****** ****** ****** ****** ****** ****** ****** ****** ******
  13  ****** ****** ****** ****** ****** ****** ****** ****** ****** ******
      ****** ****** ****** ****** ****** ****** ****** ****** ****** ******
      ****** ****** ****** ****** ****** ****** ****** ****** ****** ******
  14  ****** ****** ****** ****** ****** ****** ****** ****** ****** ******
      ****** ****** ****** ****** ****** ****** ****** ****** ****** ******
      ****** ****** ****** ****** ****** ****** ****** ****** ****** ******
  15  ****** ****** ****** ****** ****** ****** ****** ****** ****** ******
      ****** ****** ****** ****** ****** ****** ****** ****** ****** ******
      ****** ****** ****** ****** ****** ****** ****** ****** ****** ******
  16  ****** ****** ****** ****** ****** ****** ****** ****** ****** ******
      ****** ****** ****** ****** ****** ****** ****** ****** ****** ******
      ****** ****** ****** ****** ****** ****** ****** ****** ****** ******
  17  ****** ****** ****** ****** ****** ****** ****** ****** ****** ******
      ****** ****** ****** ****** ****** ****** ****** ****** ****** ******
      ****** ****** ****** ****** ****** ****** ****** ****** ****** ******
  18  ****** ****** ****** ****** ****** ****** ****** ****** ****** ******
      ****** ****** ****** ****** ****** ****** ****** ****** ****** ******
      ****** ****** ****** ****** ****** ****** ****** ****** ****** ******
  19  ****** ****** ****** ****** ****** ****** ****** ****** ****** ******
      ****** ****** ****** ****** ****** ****** ****** ****** ****** ******
      ****** ****** ****** ****** ****** ****** ****** ****** ****** ******
  20  ****** ****** ****** ****** ****** ****** ****** ****** ****** ******
      ****** ****** ****** ****** ****** ****** ****** ****** ****** ******
      ****** ****** ****** ****** ****** ****** ****** ****** ****** ******
  21  ****** ****** ****** ****** ****** ****** ****** ****** ****** ******
      ****** ****** ****** ****** ****** ****** ****** ****** ****** ******
      ****** ****** ****** ****** ****** ****** ****** ****** ****** ******
  22  ****** ****** ****** ****** ****** ****** ****** ****** ****** ******
      ****** ****** ****** ****** ****** ****** ****** ****** ****** ******
      ****** ****** ****** ****** ****** ****** ****** ****** ****** ******
  23  ****** ****** ****** ****** ****** ****** ****** ****** ****** ******
      ****** ****** ****** ****** ****** ****** ****** ****** ****** ******
      ****** ****** ****** ****** ****** ****** ****** ****** ****** ******
  24  ****** ****** ****** ****** ****** ****** ****** ****** ****** ******
      ****** ****** ****** ****** ****** ****** ****** ****** ****** ******
      ****** ****** ****** ****** ****** ****** ****** ****** ****** ******
  25  ****** ****** ****** ****** ****** ****** ****** ****** ****** ******
      ****** ****** ****** ****** ****** ****** ****** ****** ****** ******
      ****** ****** ****** ****** ****** ****** ****** ****** ****** ******

 HEAD WILL BE SAVED ON UNIT   51 AT END OF TIME STEP    1, STRESS PERIOD    1
1
  VOLUMETRIC BUDGET FOR ENTIRE MODEL AT END OF TIME STEP    1, STRESS PERIOD   1
  ------------------------------------------------------------------------------

     CUMULATIVE VOLUMES      L**3       RATES FOR THIS TIME STEP      L**3/T
     ------------------                 ------------------------

           IN:                                      IN:
           ---                                      ---
             STORAGE =    19292953.7903               STORAGE =      209706.0195
       CONSTANT HEAD =   104375481.9601         CONSTANT HEAD =     1134516.1083
               WELLS =           0.0000                 WELLS =           0.0000
            RECHARGE =     1269600.0000              RECHARGE =       13800.0000
      STREAM LEAKAGE =           0.0000        STREAM LEAKAGE =           0.0000

            TOTAL IN =   124938035.7504              TOTAL IN =     1358022.1277

          OUT:                                     OUT:
          ----                                     ----
             STORAGE =           0.0000               STORAGE =           0.0000
       CONSTANT HEAD =           0.0000         CONSTANT HEAD =           0.0000
               WELLS =     7360000.0000                 WELLS =       80000.0000
            RECHARGE =           0.0000              RECHARGE =           0.0000
      STREAM LEAKAGE =   117578037.4232        STREAM LEAKAGE =     1278022.1459

           TOTAL OUT =   124938037.4232             TOTAL OUT =     1358022.1459

            IN - OUT =          -1.6728              IN - OUT =      -1.8183E-02

 PERCENT DISCREPANCY =          -0.00     PERCENT DISCREPANCY =          -0.00






         TIME SUMMARY AT END OF TIME STEP    1 IN STRESS PERIOD    1
                    SECONDS     MINUTES      HOURS       DAYS        YEARS
                    -----------------------------------------------------------
   TIME STEP LENGTH 7.94880E+06 1.32480E+05  2208.0      92.000     0.25188    
 STRESS PERIOD TIME 7.94880E+06 1.32480E+05  2208.0      92.000     0.25188    
         TOTAL TIME 7.94880E+06 1.32480E+05  2208.0      92.000     0.25188    
1
1
                            STRESS PERIOD NO.    2, LENGTH =   91.00000    
                            -----------------------------------------------

                              NUMBER OF TIME STEPS =     1

                               MULTIPLIER FOR DELT =     1.500

                            INITIAL TIME STEP SIZE =   91.00000    

 WELL NO.  LAYER   ROW   COL   STRESS RATE         
 --------------------------------------------------
      1      1      8     16     -0.3000E+05
      2      1     21     24       0.000    
      3      1     23     11     -0.5000E+05

      3 WELLS

                 RECHARGE =  2.000000E-03

 REUSING STREAM SEGMENT DATA FROM LAST STRESS PERIOD
 
 SOLVING FOR HEAD 


     6 CALLS TO PCG ROUTINE FOR TIME STEP   1 IN STRESS PERIOD    2
    25 TOTAL ITERATIONS

 OUTPUT CONTROL FOR STRESS PERIOD    2   TIME STEP    1
    SAVE BUDGET
    SAVE HEAD FOR ALL LAYERS
    PRINT HEAD FOR ALL LAYERS
 UBDSV2 SAVING "STREAMFLOW OUT  " ON UNIT  50 AT TIME STEP  1, STRESS PERIOD   2



 STREAM LISTING     PERIOD      2   STEP        1

 LAYER ROW COL. STREAM  RCH.  FLOW INTO     FLOW TO   FLOW OUT OF   OVRLND.     DIRECT     STREAM       STREAM     STREAM     STREAM   STREAMBED  STREAMBED
                SEG.NO.  NO.  STRM. RCH.    AQUIFER    STRM. RCH.    RUNOFF     PRECIP       ET          HEAD       DEPTH      WIDTH   CONDCTNC.   GRADIENT

   1   13    1     1     1    1.0000E+05 -2.8304E+04   1.2830E+05  0.000E+00  0.000E+00  0.000E+00  4.84180E+01  1.566E-01  2.000E+01  2.000E+04 -1.415E+00
   1   13    2     1     2    1.2830E+05 -3.8127E+04   1.6643E+05  0.000E+00  0.000E+00  0.000E+00  4.79666E+01  1.825E-01  2.000E+01  2.000E+04 -1.906E+00
   1   14    3     1     3    1.6643E+05 -3.3525E+04   1.9995E+05  0.000E+00  0.000E+00  0.000E+00  4.75148E+01  2.080E-01  2.000E+01  2.000E+04 -1.676E+00
   1   15    4     1     4    1.9995E+05 -3.2646E+04   2.3260E+05  0.000E+00  0.000E+00  0.000E+00  4.70593E+01  2.298E-01  2.000E+01  2.000E+04 -1.632E+00
   1   16    5     1     5    2.3260E+05 -3.3925E+04   2.6652E+05  0.000E+00  0.000E+00  0.000E+00  4.66027E+01  2.504E-01  2.000E+01  2.000E+04 -1.696E+00
   1   16    6     1     6    2.6652E+05 -2.9539E+04   2.9606E+05  0.000E+00  0.000E+00  0.000E+00  4.61440E+01  2.690E-01  2.000E+01  2.000E+04 -1.477E+00
   1   16    7     1     7    2.9606E+05 -2.9243E+04   3.2531E+05  0.000E+00  0.000E+00  0.000E+00  4.56833E+01  2.856E-01  2.000E+01  2.000E+04 -1.462E+00
   1   16    8     1     8    3.2531E+05 -2.9296E+04   3.5460E+05  0.000E+00  0.000E+00  0.000E+00  4.52219E+01  3.014E-01  2.000E+01  2.000E+04 -1.465E+00
   1   16    9     1     9    3.5460E+05 -2.9249E+04   3.8385E+05  0.000E+00  0.000E+00  0.000E+00  4.47599E+01  3.167E-01  2.000E+01  2.000E+04 -1.462E+00
   1   16   10     1    10    3.8385E+05 -2.9173E+04   4.1303E+05  0.000E+00  0.000E+00  0.000E+00  4.42975E+01  3.315E-01  2.000E+01  2.000E+04 -1.459E+00
   1   16   11     1    11    4.1303E+05 -2.9714E+04   4.4274E+05  0.000E+00  0.000E+00  0.000E+00  4.38347E+01  3.460E-01  2.000E+01  2.000E+04 -1.486E+00
   1   16   12     1    12    4.4274E+05 -3.5161E+04   4.7790E+05  0.000E+00  0.000E+00  0.000E+00  4.33729E+01  3.615E-01  2.000E+01  2.000E+04 -1.758E+00
   1   15   13     1    13    4.7790E+05 -3.4230E+04   5.1213E+05  0.000E+00  0.000E+00  0.000E+00  4.29117E+01  3.777E-01  2.000E+01  2.000E+04 -1.711E+00
   1   14   14     1    14    5.1213E+05 -3.4751E+04   5.4688E+05  0.000E+00  0.000E+00  0.000E+00  4.24500E+01  3.932E-01  2.000E+01  2.000E+04 -1.738E+00
   1   13   15     1    15    5.4688E+05 -3.6518E+04   5.8340E+05  0.000E+00  0.000E+00  0.000E+00  4.19884E+01  4.089E-01  2.000E+01  2.000E+04 -1.826E+00
   1   12   16     1    16    5.8340E+05 -4.1486E+04   6.2488E+05  0.000E+00  0.000E+00  0.000E+00  4.15279E+01  4.256E-01  2.000E+01  2.000E+04 -2.074E+00
   1   12   17     1    17    6.2488E+05 -3.2536E+04   6.5742E+05  0.000E+00  0.000E+00  0.000E+00  4.10661E+01  4.411E-01  2.000E+01  2.000E+04 -1.627E+00
   1   12   18     1    18    6.5742E+05 -3.1273E+04   6.8869E+05  0.000E+00  0.000E+00  0.000E+00  4.06018E+01  4.541E-01  2.000E+01  2.000E+04 -1.564E+00
   1   12   19     1    19    6.8869E+05 -3.5582E+04   7.2428E+05  0.000E+00  0.000E+00  0.000E+00  4.01380E+01  4.675E-01  2.000E+01  2.000E+04 -1.779E+00
   1   13   20     1    20    7.2428E+05 -2.6627E+04   7.5090E+05  0.000E+00  0.000E+00  0.000E+00  3.96729E+01  4.797E-01  2.000E+01  2.000E+04 -1.331E+00
   1   14   21     1    21    7.5090E+05 -1.9842E+04   7.7074E+05  0.000E+00  0.000E+00  0.000E+00  3.92047E+01  4.888E-01  2.000E+01  2.000E+04 -9.921E-01
   1   14   22     1    22    7.7074E+05 -1.8417E+03   7.7259E+05  0.000E+00  0.000E+00  0.000E+00  3.87316E+01  4.929E-01  2.000E+01  2.000E+04 -9.208E-02
   1    9   30     2     1    5.0000E+04 -2.6929E+04   7.6929E+04  0.000E+00  0.000E+00  0.000E+00  4.02587E+01  1.337E-01  2.000E+01  2.000E+04 -1.346E+00
   1    9   29     2     2    7.6929E+04 -2.9380E+04   1.0631E+05  0.000E+00  0.000E+00  0.000E+00  4.00416E+01  1.666E-01  2.000E+01  2.000E+04 -1.469E+00
   1    9   28     2     3    1.0631E+05 -3.3641E+04   1.3995E+05  0.000E+00  0.000E+00  0.000E+00  3.98240E+01  1.990E-01  2.000E+01  2.000E+04 -1.682E+00
   1    9   27     2     4    1.3995E+05 -4.7735E+04   1.8768E+05  0.000E+00  0.000E+00  0.000E+00  3.96112E+01  2.362E-01  2.000E+01  2.000E+04 -2.387E+00
   1   10   26     2     5    1.8768E+05 -3.3674E+04   2.2136E+05  0.000E+00  0.000E+00  0.000E+00  3.93948E+01  2.698E-01  2.000E+01  2.000E+04 -1.684E+00
   1   11   25     2     6    2.2136E+05 -2.5257E+04   2.4662E+05  0.000E+00  0.000E+00  0.000E+00  3.91675E+01  2.925E-01  2.000E+01  2.000E+04 -1.263E+00
   1   12   24     2     7    2.4662E+05 -1.8620E+04   2.6523E+05  0.000E+00  0.000E+00  0.000E+00  3.89336E+01  3.086E-01  2.000E+01  2.000E+04 -9.310E-01
   1   13   23     2     8    2.6523E+05 -1.3236E+04   2.7847E+05  0.000E+00  0.000E+00  0.000E+00  3.86950E+01  3.200E-01  2.000E+01  2.000E+04 -6.618E-01
   1   14   22     2     9    2.7847E+05 -7.4277E+03   2.8590E+05  0.000E+00  0.000E+00  0.000E+00  3.84523E+01  3.273E-01  2.000E+01  2.000E+04 -3.714E-01
   1   14   22     3     1    1.0585E+06 -1.5430E+04   1.0739E+06  0.000E+00  0.000E+00  0.000E+00  3.80522E+01  4.966E-01  2.000E+01  2.000E+04 -7.715E-01
   1   15   23     3     2    1.0739E+06 -2.3968E+04   1.0979E+06  0.000E+00  0.000E+00  0.000E+00  3.71687E+01  5.021E-01  2.000E+01  2.000E+04 -1.198E+00
   1   15   24     3     3    1.0979E+06 -1.9987E+04   1.1179E+06  0.000E+00  0.000E+00  0.000E+00  3.62859E+01  5.082E-01  2.000E+01  2.000E+04 -9.994E-01
   1   15   25     3     4    1.1179E+06 -1.9613E+04   1.1375E+06  0.000E+00  0.000E+00  0.000E+00  3.54025E+01  5.136E-01  2.000E+01  2.000E+04 -9.806E-01
   1   15   26     3     5    1.1375E+06 -2.2456E+04   1.1599E+06  0.000E+00  0.000E+00  0.000E+00  3.45193E+01  5.193E-01  2.000E+01  2.000E+04 -1.123E+00
   1   16   27     3     6    1.1599E+06 -2.9696E+04   1.1896E+06  0.000E+00  0.000E+00  0.000E+00  3.36375E+01  5.264E-01  2.000E+01  2.000E+04 -1.485E+00
   1   17   28     3     7    1.1896E+06 -3.6760E+04   1.2264E+06  0.000E+00  0.000E+00  0.000E+00  3.27575E+01  5.352E-01  2.000E+01  2.000E+04 -1.838E+00
   1   18   29     3     8    1.2264E+06 -4.7712E+04   1.2741E+06  0.000E+00  0.000E+00  0.000E+00  3.18797E+01  5.464E-01  2.000E+01  2.000E+04 -2.386E+00
   1   18   30     3     9    1.2741E+06 -4.4090E+04   1.3182E+06  0.000E+00  0.000E+00  0.000E+00  3.10028E+01  5.583E-01  2.000E+01  2.000E+04 -2.205E+00



1
              HEAD IN LAYER   1 AT END OF TIME STEP   1 IN STRESS PERIOD    2
  ---------------------------------------------------------------------------

          1      2      3      4      5      6      7      8      9     10
         11     12     13     14     15     16     17     18     19     20
         21     22     23     24     25     26     27     28     29     30
 .........................................................................
   1  ****** ****** ****** ****** ****** ****** ****** ****** ****** ******
      ****** ****** ****** ****** ****** ****** ****** ****** ****** ******
      ****** ****** ****** ****** ****** ****** ****** ****** ****** ******
   2  ****** ****** ****** ****** ****** ****** ****** ****** ****** ******
      ****** ****** ****** ****** ****** ****** ****** ****** ****** ******
      ****** ****** ****** ****** ****** ****** ****** ****** ****** ******
   3  ****** ****** ****** ****** ****** ****** ****** ****** ****** ******
      ****** ****** ****** ****** ****** ****** ****** ****** ****** ******
      ****** ****** ****** ****** ****** ****** ****** ****** ****** ******
   4  ****** ****** ****** ****** ****** ****** ****** ****** ****** ******
      ****** ****** ****** ****** ****** ****** ****** ****** ****** ******
      ****** ****** ****** ****** ****** ****** ****** ****** ****** ******
   5  ****** ****** ****** ****** ****** ****** ****** ****** ****** ******
      ****** ****** ****** ****** ****** ****** ****** ****** ****** ******
      ****** ****** ****** ****** ****** ****** ****** ****** ****** ******
   6  ****** ****** ****** ****** ****** ****** ****** ****** ****** ******
      ****** ****** ****** ****** ****** ****** ****** ****** ****** ******
      ****** ****** ****** ****** ****** ****** ****** ****** ****** ******
   7  ****** ****** ****** ****** ****** ****** ****** ****** ****** ******
      ****** ****** ****** ****** ****** ****** ****** ****** ****** ******
      ****** ****** ****** ****** ****** ****** ****** ****** ****** ******
   8  ****** ****** ****** ****** ****** ****** ****** ****** ****** ******
      ****** ****** ****** ****** ****** ****** ****** ****** ****** ******
      ****** ****** ****** ****** ****** ****** ****** ****** ****** ******
   9  ****** ****** ****** ****** ****** ****** ****** ****** ****** ******
      ****** ****** ****** ****** ****** ****** ****** ****** ****** ******
      ****** ****** ****** ****** ****** ****** ****** ****** ****** ******
  10  ****** ****** ****** ****** ****** ****** ****** ****** ****** ******
      ****** ****** ****** ****** ****** ****** ****** ****** ****** ******
      ****** ****** ****** ****** ****** ****** ****** ****** ****** ******
  11  ****** ****** ****** ****** ****** ****** ****** ****** ****** ******
      ****** ****** ****** ****** ****** ****** ****** ****** ****** ******
      ****** ****** ****** ****** ****** ****** ****** ****** ****** ******
  12  ****** ****** ****** ****** ****** ****** ****** ****** ****** ******
      ****** ****** ****** ****** ****** ****** ****** ****** ****** ******
      ****** ****** ****** ****** ****** ****** ****** ****** ****** ******
  13  ****** ****** ****** ****** ****** ****** ****** ****** ****** ******
      ****** ****** ****** ****** ****** ****** ****** ****** ****** ******
      ****** ****** ****** ****** ****** ****** ****** ****** ****** ******
  14  ****** ****** ****** ****** ****** ****** ****** ****** ****** ******
      ****** ****** ****** ****** ****** ****** ****** ****** ****** ******
      ****** ****** ****** ****** ****** ****** ****** ****** ****** ******
  15  ****** ****** ****** ****** ****** ****** ****** ****** ****** ******
      ****** ****** ****** ****** ****** ****** ****** ****** ****** ******
      ****** ****** ****** ****** ****** ****** ****** ****** ****** ******
  16  ****** ****** ****** ****** ****** ****** ****** ****** ****** ******
      ****** ****** ****** ****** ****** ****** ****** ****** ****** ******
      ****** ****** ****** ****** ****** ****** ****** ****** ****** ******
  17  ****** ****** ****** ****** ****** ****** ****** ****** ****** ******
      ****** ****** ****** ****** ****** ****** ****** ****** ****** ******
      ****** ****** ****** ****** ****** ****** ****** ****** ****** ******
  18  ****** ****** ****** ****** ****** ****** ****** ****** ****** ******
      ****** ****** ****** ****** ****** ****** ****** ****** ****** ******
      ****** ****** ****** ****** ****** ****** ****** ****** ****** ******
  19  ****** ****** ****** ****** ****** ****** ****** ****** ****** ******
      ****** ****** ****** ****** ****** ****** ****** ****** ****** ******
      ****** ****** ****** ****** ****** ****** ****** ****** ****** ******
  20  ****** ****** ****** ****** ****** ****** ****** ****** ****** ******
      ****** ****** ****** ****** ****** ****** ****** ****** ****** ******
      ****** ****** ****** ****** ****** ****** ****** ****** ****** ******
  21  ****** ****** ****** ****** ****** ****** ****** ****** ****** ******
      ****** ****** ****** ****** ****** ****** ****** ****** ****** ******
      ****** ****** ****** ****** ****** ****** ****** ****** ****** ******
  22  ****** ****** ****** ****** ****** ****** ****** ****** ****** ******
      ****** ****** ****** ****** ****** ****** ****** ****** ****** ******
      ****** ****** ****** ****** ****** ****** ****** ****** ****** ******
  23  ****** ****** ****** ****** ****** ****** ****** ****** ****** ******
      ****** ****** ****** ****** ****** ****** ****** ****** ****** ******
      ****** ****** ****** ****** ****** ****** ****** ****** ****** ******
  24  ****** ****** ****** ****** ****** ****** ****** ****** ****** ******
      ****** ****** ****** ****** ****** ****** ****** ****** ****** ******
      ****** ****** ****** ****** ****** ****** ****** ****** ****** ******
  25  ****** ****** ****** ****** ****** ****** ****** ****** ****** ******
      ****** ****** ****** ****** ****** ****** ****** ****** ****** ******
      ****** ****** ****** ****** ****** ****** ****** ****** ****** ******

 HEAD WILL BE SAVED ON UNIT   51 AT END OF TIME STEP    1, STRESS PERIOD    2
1
  VOLUMETRIC BUDGET FOR ENTIRE MODEL AT END OF TIME STEP    1, STRESS PERIOD   2
  ------------------------------------------------------------------------------

     CUMULATIVE VOLUMES      L**3       RATES FOR THIS TIME STEP      L**3/T
     ------------------                 ------------------------

           IN:                                      IN:
           ---                                      ---
             STORAGE =    20009866.2622               STORAGE =        7878.1590
       CONSTANT HEAD =   212322741.6147         CONSTANT HEAD =     1186233.6226
               WELLS =           0.0000                 WELLS =           0.0000
            RECHARGE =     6292800.0000              RECHARGE =       55200.0000
      STREAM LEAKAGE =           0.0000        STREAM LEAKAGE =           0.0000

            TOTAL IN =   238625407.8769              TOTAL IN =     1249311.7816

          OUT:                                     OUT:
          ----                                     ----
             STORAGE =      101494.4296               STORAGE =        1115.3234
       CONSTANT HEAD =           0.0000         CONSTANT HEAD =           0.0000
               WELLS =    14640000.0000                 WELLS =       80000.0000
            RECHARGE =           0.0000              RECHARGE =           0.0000
      STREAM LEAKAGE =   223883917.0570        STREAM LEAKAGE =     1168196.4795

           TOTAL OUT =   238625411.4867             TOTAL OUT =     1249311.8029

            IN - OUT =          -3.6098              IN - OUT =      -2.1285E-02

 PERCENT DISCREPANCY =          -0.00     PERCENT DISCREPANCY =          -0.00






         TIME SUMMARY AT END OF TIME STEP    1 IN STRESS PERIOD    2
                    SECONDS     MINUTES      HOURS       DAYS        YEARS
                    -----------------------------------------------------------
   TIME STEP LENGTH 7.86240E+06 1.31040E+05  2184.0      91.000     0.24914    
 STRESS PERIOD TIME 7.86240E+06 1.31040E+05  2184.0      91.000     0.24914    
         TOTAL TIME 1.58112E+07 2.63520E+05  4392.0      183.00     0.50103    
1
1
                            STRESS PERIOD NO.    3, LENGTH =   91.00000    
                            -----------------------------------------------

                              NUMBER OF TIME STEPS =     1

                               MULTIPLIER FOR DELT =     1.500

                            INITIAL TIME STEP SIZE =   91.00000    

 WELL NO.  LAYER   ROW   COL   STRESS RATE         
 --------------------------------------------------
      1      1      8     16     -0.3000E+05
      2      1     21     24     -0.5000E+05

      2 WELLS

                 RECHARGE =   0.00000    

 REUSING STREAM SEGMENT DATA FROM LAST STRESS PERIOD
 
 SOLVING FOR HEAD 


     6 CALLS TO PCG ROUTINE FOR TIME STEP   1 IN STRESS PERIOD    3
    23 TOTAL ITERATIONS

 OUTPUT CONTROL FOR STRESS PERIOD    3   TIME STEP    1
    SAVE BUDGET
    SAVE HEAD FOR ALL LAYERS
    PRINT HEAD FOR ALL LAYERS
 UBDSV2 SAVING "STREAMFLOW OUT  " ON UNIT  50 AT TIME STEP  1, STRESS PERIOD   3



 STREAM LISTING     PERIOD      3   STEP        1

 LAYER ROW COL. STREAM  RCH.  FLOW INTO     FLOW TO   FLOW OUT OF   OVRLND.     DIRECT     STREAM       STREAM     STREAM     STREAM   STREAMBED  STREAMBED
                SEG.NO.  NO.  STRM. RCH.    AQUIFER    STRM. RCH.    RUNOFF     PRECIP       ET          HEAD       DEPTH      WIDTH   CONDCTNC.   GRADIENT

   1   13    1     1     1    1.0000E+05 -2.7343E+04   1.2734E+05  0.000E+00  0.000E+00  0.000E+00  4.84176E+01  1.562E-01  2.000E+01  2.000E+04 -1.367E+00
   1   13    2     1     2    1.2734E+05 -3.6958E+04   1.6430E+05  0.000E+00  0.000E+00  0.000E+00  4.79655E+01  1.814E-01  2.000E+01  2.000E+04 -1.848E+00
   1   14    3     1     3    1.6430E+05 -3.2463E+04   1.9676E+05  0.000E+00  0.000E+00  0.000E+00  4.75130E+01  2.062E-01  2.000E+01  2.000E+04 -1.623E+00
   1   15    4     1     4    1.9676E+05 -3.1732E+04   2.2849E+05  0.000E+00  0.000E+00  0.000E+00  4.70570E+01  2.275E-01  2.000E+01  2.000E+04 -1.587E+00
   1   16    5     1     5    2.2849E+05 -3.3329E+04   2.6182E+05  0.000E+00  0.000E+00  0.000E+00  4.66000E+01  2.477E-01  2.000E+01  2.000E+04 -1.666E+00
   1   16    6     1     6    2.6182E+05 -2.9083E+04   2.9091E+05  0.000E+00  0.000E+00  0.000E+00  4.61412E+01  2.662E-01  2.000E+01  2.000E+04 -1.454E+00
   1   16    7     1     7    2.9091E+05 -2.8876E+04   3.1978E+05  0.000E+00  0.000E+00  0.000E+00  4.56803E+01  2.826E-01  2.000E+01  2.000E+04 -1.444E+00
   1   16    8     1     8    3.1978E+05 -2.9024E+04   3.4881E+05  0.000E+00  0.000E+00  0.000E+00  4.52189E+01  2.984E-01  2.000E+01  2.000E+04 -1.451E+00
   1   16    9     1     9    3.4881E+05 -2.9069E+04   3.7788E+05  0.000E+00  0.000E+00  0.000E+00  4.47569E+01  3.137E-01  2.000E+01  2.000E+04 -1.453E+00
   1   16   10     1    10    3.7788E+05 -2.9063E+04   4.0694E+05  0.000E+00  0.000E+00  0.000E+00  4.42944E+01  3.285E-01  2.000E+01  2.000E+04 -1.453E+00
   1   16   11     1    11    4.0694E+05 -2.9623E+04   4.3656E+05  0.000E+00  0.000E+00  0.000E+00  4.38317E+01  3.430E-01  2.000E+01  2.000E+04 -1.481E+00
   1   16   12     1    12    4.3656E+05 -3.4983E+04   4.7154E+05  0.000E+00  0.000E+00  0.000E+00  4.33699E+01  3.586E-01  2.000E+01  2.000E+04 -1.749E+00
   1   15   13     1    13    4.7154E+05 -3.3417E+04   5.0496E+05  0.000E+00  0.000E+00  0.000E+00  4.29086E+01  3.746E-01  2.000E+01  2.000E+04 -1.671E+00
   1   14   14     1    14    5.0496E+05 -3.3636E+04   5.3860E+05  0.000E+00  0.000E+00  0.000E+00  4.24466E+01  3.898E-01  2.000E+01  2.000E+04 -1.682E+00
   1   13   15     1    15    5.3860E+05 -3.5288E+04   5.7389E+05  0.000E+00  0.000E+00  0.000E+00  4.19846E+01  4.050E-01  2.000E+01  2.000E+04 -1.764E+00
   1   12   16     1    16    5.7389E+05 -4.0274E+04   6.1416E+05  0.000E+00  0.000E+00  0.000E+00  4.15236E+01  4.213E-01  2.000E+01  2.000E+04 -2.014E+00
   1   12   17     1    17    6.1416E+05 -3.1520E+04   6.4568E+05  0.000E+00  0.000E+00  0.000E+00  4.10614E+01  4.364E-01  2.000E+01  2.000E+04 -1.576E+00
   1   12   18     1    18    6.4568E+05 -3.0268E+04   6.7595E+05  0.000E+00  0.000E+00  0.000E+00  4.05969E+01  4.491E-01  2.000E+01  2.000E+04 -1.513E+00
   1   12   19     1    19    6.7595E+05 -3.4474E+04   7.1042E+05  0.000E+00  0.000E+00  0.000E+00  4.01327E+01  4.622E-01  2.000E+01  2.000E+04 -1.724E+00
   1   13   20     1    20    7.1042E+05 -2.5384E+04   7.3581E+05  0.000E+00  0.000E+00  0.000E+00  3.96673E+01  4.741E-01  2.000E+01  2.000E+04 -1.269E+00
   1   14   21     1    21    7.3581E+05 -1.8355E+04   7.5416E+05  0.000E+00  0.000E+00  0.000E+00  3.91985E+01  4.826E-01  2.000E+01  2.000E+04 -9.177E-01
   1   14   22     1    22    7.5416E+05 -1.2475E+03   7.5541E+05  0.000E+00  0.000E+00  0.000E+00  3.87251E+01  4.864E-01  2.000E+01  2.000E+04 -6.238E-02
   1    9   30     2     1    5.0000E+04 -2.6219E+04   7.6219E+04  0.000E+00  0.000E+00  0.000E+00  4.02582E+01  1.332E-01  2.000E+01  2.000E+04 -1.311E+00
   1    9   29     2     2    7.6219E+04 -2.8673E+04   1.0489E+05  0.000E+00  0.000E+00  0.000E+00  4.00405E+01  1.655E-01  2.000E+01  2.000E+04 -1.434E+00
   1    9   28     2     3    1.0489E+05 -3.2911E+04   1.3780E+05  0.000E+00  0.000E+00  0.000E+00  3.98222E+01  1.972E-01  2.000E+01  2.000E+04 -1.646E+00
   1    9   27     2     4    1.3780E+05 -4.6847E+04   1.8465E+05  0.000E+00  0.000E+00  0.000E+00  3.96089E+01  2.339E-01  2.000E+01  2.000E+04 -2.342E+00
   1   10   26     2     5    1.8465E+05 -3.2722E+04   2.1737E+05  0.000E+00  0.000E+00  0.000E+00  3.93920E+01  2.670E-01  2.000E+01  2.000E+04 -1.636E+00
   1   11   25     2     6    2.1737E+05 -2.4311E+04   2.4168E+05  0.000E+00  0.000E+00  0.000E+00  3.91641E+01  2.891E-01  2.000E+01  2.000E+04 -1.216E+00
   1   12   24     2     7    2.4168E+05 -1.7727E+04   2.5941E+05  0.000E+00  0.000E+00  0.000E+00  3.89297E+01  3.047E-01  2.000E+01  2.000E+04 -8.863E-01
   1   13   23     2     8    2.5941E+05 -1.2415E+04   2.7182E+05  0.000E+00  0.000E+00  0.000E+00  3.86906E+01  3.156E-01  2.000E+01  2.000E+04 -6.208E-01
   1   14   22     2     9    2.7182E+05 -6.8009E+03   2.7863E+05  0.000E+00  0.000E+00  0.000E+00  3.84474E+01  3.224E-01  2.000E+01  2.000E+04 -3.400E-01
   1   14   22     3     1    1.0340E+06 -1.4845E+04   1.0489E+06  0.000E+00  0.000E+00  0.000E+00  3.80452E+01  4.896E-01  2.000E+01  2.000E+04 -7.422E-01
   1   15   23     3     2    1.0489E+06 -2.1633E+04   1.0705E+06  0.000E+00  0.000E+00  0.000E+00  3.71614E+01  4.948E-01  2.000E+01  2.000E+04 -1.082E+00
   1   15   24     3     3    1.0705E+06 -1.8009E+04   1.0885E+06  0.000E+00  0.000E+00  0.000E+00  3.62781E+01  5.003E-01  2.000E+01  2.000E+04 -9.005E-01
   1   15   25     3     4    1.0885E+06 -1.7800E+04   1.1063E+06  0.000E+00  0.000E+00  0.000E+00  3.53942E+01  5.053E-01  2.000E+01  2.000E+04 -8.900E-01
   1   15   26     3     5    1.1063E+06 -2.0755E+04   1.1271E+06  0.000E+00  0.000E+00  0.000E+00  3.45106E+01  5.106E-01  2.000E+01  2.000E+04 -1.038E+00
   1   16   27     3     6    1.1271E+06 -2.7105E+04   1.1542E+06  0.000E+00  0.000E+00  0.000E+00  3.36282E+01  5.171E-01  2.000E+01  2.000E+04 -1.355E+00
   1   17   28     3     7    1.1542E+06 -3.3830E+04   1.1880E+06  0.000E+00  0.000E+00  0.000E+00  3.27476E+01  5.254E-01  2.000E+01  2.000E+04 -1.692E+00
   1   18   29     3     8    1.1880E+06 -4.4728E+04   1.2327E+06  0.000E+00  0.000E+00  0.000E+00  3.18692E+01  5.359E-01  2.000E+01  2.000E+04 -2.236E+00
   1   18   30     3     9    1.2327E+06 -4.2067E+04   1.2748E+06  0.000E+00  0.000E+00  0.000E+00  3.09918E+01  5.473E-01  2.000E+01  2.000E+04 -2.103E+00



1
              HEAD IN LAYER   1 AT END OF TIME STEP   1 IN STRESS PERIOD    3
  ---------------------------------------------------------------------------

          1      2      3      4      5      6      7      8      9     10
         11     12     13     14     15     16     17     18     19     20
         21     22     23     24     25     26     27     28     29     30
 .........................................................................
   1  ****** ****** ****** ****** ****** ****** ****** ****** ****** ******
      ****** ****** ****** ****** ****** ****** ****** ****** ****** ******
      ****** ****** ****** ****** ****** ****** ****** ****** ****** ******
   2  ****** ****** ****** ****** ****** ****** ****** ****** ****** ******
      ****** ****** ****** ****** ****** ****** ****** ****** ****** ******
      ****** ****** ****** ****** ****** ****** ****** ****** ****** ******
   3  ****** ****** ****** ****** ****** ****** ****** ****** ****** ******
      ****** ****** ****** ****** ****** ****** ****** ****** ****** ******
      ****** ****** ****** ****** ****** ****** ****** ****** ****** ******
   4  ****** ****** ****** ****** ****** ****** ****** ****** ****** ******
      ****** ****** ****** ****** ****** ****** ****** ****** ****** ******
      ****** ****** ****** ****** ****** ****** ****** ****** ****** ******
   5  ****** ****** ****** ****** ****** ****** ****** ****** ****** ******
      ****** ****** ****** ****** ****** ****** ****** ****** ****** ******
      ****** ****** ****** ****** ****** ****** ****** ****** ****** ******
   6  ****** ****** ****** ****** ****** ****** ****** ****** ****** ******
      ****** ****** ****** ****** ****** ****** ****** ****** ****** ******
      ****** ****** ****** ****** ****** ****** ****** ****** ****** ******
   7  ****** ****** ****** ****** ****** ****** ****** ****** ****** ******
      ****** ****** ****** ****** ****** ****** ****** ****** ****** ******
      ****** ****** ****** ****** ****** ****** ****** ****** ****** ******
   8  ****** ****** ****** ****** ****** ****** ****** ****** ****** ******
      ****** ****** ****** ****** ****** ****** ****** ****** ****** ******
      ****** ****** ****** ****** ****** ****** ****** ****** ****** ******
   9  ****** ****** ****** ****** ****** ****** ****** ****** ****** ******
      ****** ****** ****** ****** ****** ****** ****** ****** ****** ******
      ****** ****** ****** ****** ****** ****** ****** ****** ****** ******
  10  ****** ****** ****** ****** ****** ****** ****** ****** ****** ******
      ****** ****** ****** ****** ****** ****** ****** ****** ****** ******
      ****** ****** ****** ****** ****** ****** ****** ****** ****** ******
  11  ****** ****** ****** ****** ****** ****** ****** ****** ****** ******
      ****** ****** ****** ****** ****** ****** ****** ****** ****** ******
      ****** ****** ****** ****** ****** ****** ****** ****** ****** ******
  12  ****** ****** ****** ****** ****** ****** ****** ****** ****** ******
      ****** ****** ****** ****** ****** ****** ****** ****** ****** ******
      ****** ****** ****** ****** ****** ****** ****** ****** ****** ******
  13  ****** ****** ****** ****** ****** ****** ****** ****** ****** ******
      ****** ****** ****** ****** ****** ****** ****** ****** ****** ******
      ****** ****** ****** ****** ****** ****** ****** ****** ****** ******
  14  ****** ****** ****** ****** ****** ****** ****** ****** ****** ******
      ****** ****** ****** ****** ****** ****** ****** ****** ****** ******
      ****** ****** ****** ****** ****** ****** ****** ****** ****** ******
  15  ****** ****** ****** ****** ****** ****** ****** ****** ****** ******
      ****** ****** ****** ****** ****** ****** ****** ****** ****** ******
      ****** ****** ****** ****** ****** ****** ****** ****** ****** ******
  16  ****** ****** ****** ****** ****** ****** ****** ****** ****** ******
      ****** ****** ****** ****** ****** ****** ****** ****** ****** ******
      ****** ****** ****** ****** ****** ****** ****** ****** ****** ******
  17  ****** ****** ****** ****** ****** ****** ****** ****** ****** ******
      ****** ****** ****** ****** ****** ****** ****** ****** ****** ******
      ****** ****** ****** ****** ****** ****** ****** ****** ****** ******
  18  ****** ****** ****** ****** ****** ****** ****** ****** ****** ******
      ****** ****** ****** ****** ****** ****** ****** ****** ****** ******
      ****** ****** ****** ****** ****** ****** ****** ****** ****** ******
  19  ****** ****** ****** ****** ****** ****** ****** ****** ****** ******
      ****** ****** ****** ****** ****** ****** ****** ****** ****** ******
      ****** ****** ****** ****** ****** ****** ****** ****** ****** ******
  20  ****** ****** ****** ****** ****** ****** ****** ****** ****** ******
      ****** ****** ****** ****** ****** ****** ****** ****** ****** ******
      ****** ****** ****** ****** ****** ****** ****** ****** ****** ******
  21  ****** ****** ****** ****** ****** ****** ****** ****** ****** ******
      ****** ****** ****** ****** ****** ****** ****** ****** ****** ******
      ****** ****** ****** ****** ****** ****** ****** ****** ****** ******
  22  ****** ****** ****** ****** ****** ****** ****** ****** ****** ******
      ****** ****** ****** ****** ****** ****** ****** ****** ****** ******
      ****** ****** ****** ****** ****** ****** ****** ****** ****** ******
  23  ****** ****** ****** ****** ****** ****** ****** ****** ****** ******
      ****** ****** ****** ****** ****** ****** ****** ****** ****** ******
      ****** ****** ****** ****** ****** ****** ****** ****** ****** ******
  24  ****** ****** ****** ****** ****** ****** ****** ****** ****** ******
      ****** ****** ****** ****** ****** ****** ****** ****** ****** ******
      ****** ****** ****** ****** ****** ****** ****** ****** ****** ******
  25  ****** ****** ****** ****** ****** ****** ****** ****** ****** ******
      ****** ****** ****** ****** ****** ****** ****** ****** ****** ******
      ****** ****** ****** ****** ****** ****** ****** ****** ****** ******

 HEAD WILL BE SAVED ON UNIT   51 AT END OF TIME STEP    1, STRESS PERIOD    3
1
  VOLUMETRIC BUDGET FOR ENTIRE MODEL AT END OF TIME STEP    1, STRESS PERIOD   3
  ------------------------------------------------------------------------------

     CUMULATIVE VOLUMES      L**3       RATES FOR THIS TIME STEP      L**3/T
     ------------------                 ------------------------

           IN:                                      IN:
           ---                                      ---
             STORAGE =    20436980.3860               STORAGE =        4693.5618
       CONSTANT HEAD =   321612808.4839         CONSTANT HEAD =     1200989.7458
               WELLS =           0.0000                 WELLS =           0.0000
            RECHARGE =     6292800.0000              RECHARGE =           0.0000
      STREAM LEAKAGE =           0.0000        STREAM LEAKAGE =           0.0000

            TOTAL IN =   348342588.8698              TOTAL IN =     1205683.3076

          OUT:                                     OUT:
          ----                                     ----
             STORAGE =      181386.8423               STORAGE =         877.9386
       CONSTANT HEAD =           0.0000         CONSTANT HEAD =           0.0000
               WELLS =    21920000.0000                 WELLS =       80000.0000
            RECHARGE =           0.0000              RECHARGE =           0.0000
      STREAM LEAKAGE =   326241210.2309        STREAM LEAKAGE =     1124805.4195

           TOTAL OUT =   348342597.0732             TOTAL OUT =     1205683.3581

            IN - OUT =          -8.2034              IN - OUT =      -5.0479E-02

 PERCENT DISCREPANCY =          -0.00     PERCENT DISCREPANCY =          -0.00






         TIME SUMMARY AT END OF TIME STEP    1 IN STRESS PERIOD    3
                    SECONDS     MINUTES      HOURS       DAYS        YEARS
                    -----------------------------------------------------------
   TIME STEP LENGTH 7.86240E+06 1.31040E+05  2184.0      91.000     0.24914    
 STRESS PERIOD TIME 7.86240E+06 1.31040E+05  2184.0      91.000     0.24914    
         TOTAL TIME 2.36736E+07 3.94560E+05  6576.0      274.00     0.75017    
1
1
                            STRESS PERIOD NO.    4, LENGTH =   91.00000    
                            -----------------------------------------------

                              NUMBER OF TIME STEPS =     1

                               MULTIPLIER FOR DELT =     1.500

                            INITIAL TIME STEP SIZE =   91.00000    

 WELL NO.  LAYER   ROW   COL   STRESS RATE         
 --------------------------------------------------
      1      1      8     16     -0.3000E+05
      2      1     21     24     -0.3807E+05
      3      1     23     11     -0.1193E+05

      3 WELLS

                 RECHARGE =  1.000000E-03

 REUSING STREAM SEGMENT DATA FROM LAST STRESS PERIOD
 
 SOLVING FOR HEAD 


     6 CALLS TO PCG ROUTINE FOR TIME STEP   1 IN STRESS PERIOD    4
    22 TOTAL ITERATIONS

 OUTPUT CONTROL FOR STRESS PERIOD    4   TIME STEP    1
    SAVE BUDGET
    SAVE HEAD FOR ALL LAYERS
    PRINT HEAD FOR ALL LAYERS
 UBDSV2 SAVING "STREAMFLOW OUT  " ON UNIT  50 AT TIME STEP  1, STRESS PERIOD   4



 STREAM LISTING     PERIOD      4   STEP        1

 LAYER ROW COL. STREAM  RCH.  FLOW INTO     FLOW TO   FLOW OUT OF   OVRLND.     DIRECT     STREAM       STREAM     STREAM     STREAM   STREAMBED  STREAMBED
                SEG.NO.  NO.  STRM. RCH.    AQUIFER    STRM. RCH.    RUNOFF     PRECIP       ET          HEAD       DEPTH      WIDTH   CONDCTNC.   GRADIENT

   1   13    1     1     1    1.0000E+05 -2.7711E+04   1.2771E+05  0.000E+00  0.000E+00  0.000E+00  4.84177E+01  1.564E-01  2.000E+01  2.000E+04 -1.386E+00
   1   13    2     1     2    1.2771E+05 -3.7397E+04   1.6511E+05  0.000E+00  0.000E+00  0.000E+00  4.79659E+01  1.818E-01  2.000E+01  2.000E+04 -1.870E+00
   1   14    3     1     3    1.6511E+05 -3.2888E+04   1.9800E+05  0.000E+00  0.000E+00  0.000E+00  4.75137E+01  2.069E-01  2.000E+01  2.000E+04 -1.644E+00
   1   15    4     1     4    1.9800E+05 -3.2127E+04   2.3012E+05  0.000E+00  0.000E+00  0.000E+00  4.70579E+01  2.284E-01  2.000E+01  2.000E+04 -1.606E+00
   1   16    5     1     5    2.3012E+05 -3.3649E+04   2.6377E+05  0.000E+00  0.000E+00  0.000E+00  4.66011E+01  2.488E-01  2.000E+01  2.000E+04 -1.682E+00
   1   16    6     1     6    2.6377E+05 -2.9345E+04   2.9312E+05  0.000E+00  0.000E+00  0.000E+00  4.61424E+01  2.674E-01  2.000E+01  2.000E+04 -1.467E+00
   1   16    7     1     7    2.9312E+05 -2.9116E+04   3.2223E+05  0.000E+00  0.000E+00  0.000E+00  4.56816E+01  2.839E-01  2.000E+01  2.000E+04 -1.456E+00
   1   16    8     1     8    3.2223E+05 -2.9243E+04   3.5148E+05  0.000E+00  0.000E+00  0.000E+00  4.52202E+01  2.998E-01  2.000E+01  2.000E+04 -1.462E+00
   1   16    9     1     9    3.5148E+05 -2.9267E+04   3.8074E+05  0.000E+00  0.000E+00  0.000E+00  4.47583E+01  3.151E-01  2.000E+01  2.000E+04 -1.463E+00
   1   16   10     1    10    3.8074E+05 -2.9245E+04   4.0999E+05  0.000E+00  0.000E+00  0.000E+00  4.42959E+01  3.300E-01  2.000E+01  2.000E+04 -1.462E+00
   1   16   11     1    11    4.0999E+05 -2.9803E+04   4.3979E+05  0.000E+00  0.000E+00  0.000E+00  4.38332E+01  3.446E-01  2.000E+01  2.000E+04 -1.490E+00
   1   16   12     1    12    4.3979E+05 -3.5207E+04   4.7500E+05  0.000E+00  0.000E+00  0.000E+00  4.33715E+01  3.602E-01  2.000E+01  2.000E+04 -1.760E+00
   1   15   13     1    13    4.7500E+05 -3.3785E+04   5.0878E+05  0.000E+00  0.000E+00  0.000E+00  4.29103E+01  3.762E-01  2.000E+01  2.000E+04 -1.689E+00
   1   14   14     1    14    5.0878E+05 -3.4068E+04   5.4285E+05  0.000E+00  0.000E+00  0.000E+00  4.24484E+01  3.916E-01  2.000E+01  2.000E+04 -1.703E+00
   1   13   15     1    15    5.4285E+05 -3.5740E+04   5.7859E+05  0.000E+00  0.000E+00  0.000E+00  4.19865E+01  4.070E-01  2.000E+01  2.000E+04 -1.787E+00
   1   12   16     1    16    5.7859E+05 -4.0712E+04   6.1930E+05  0.000E+00  0.000E+00  0.000E+00  4.15257E+01  4.234E-01  2.000E+01  2.000E+04 -2.036E+00
   1   12   17     1    17    6.1930E+05 -3.1886E+04   6.5119E+05  0.000E+00  0.000E+00  0.000E+00  4.10636E+01  4.386E-01  2.000E+01  2.000E+04 -1.594E+00
   1   12   18     1    18    6.5119E+05 -3.0627E+04   6.8182E+05  0.000E+00  0.000E+00  0.000E+00  4.05992E+01  4.514E-01  2.000E+01  2.000E+04 -1.531E+00
   1   12   19     1    19    6.8182E+05 -3.4871E+04   7.1669E+05  0.000E+00  0.000E+00  0.000E+00  4.01351E+01  4.646E-01  2.000E+01  2.000E+04 -1.744E+00
   1   13   20     1    20    7.1669E+05 -2.5800E+04   7.4249E+05  0.000E+00  0.000E+00  0.000E+00  3.96698E+01  4.766E-01  2.000E+01  2.000E+04 -1.290E+00
   1   14   21     1    21    7.4249E+05 -1.8796E+04   7.6128E+05  0.000E+00  0.000E+00  0.000E+00  3.92012E+01  4.853E-01  2.000E+01  2.000E+04 -9.398E-01
   1   14   22     1    22    7.6128E+05 -1.4208E+03   7.6270E+05  0.000E+00  0.000E+00  0.000E+00  3.87278E+01  4.892E-01  2.000E+01  2.000E+04 -7.104E-02
   1    9   30     2     1    5.0000E+04 -2.6505E+04   7.6505E+04  0.000E+00  0.000E+00  0.000E+00  4.02584E+01  1.334E-01  2.000E+01  2.000E+04 -1.325E+00
   1    9   29     2     2    7.6505E+04 -2.8957E+04   1.0546E+05  0.000E+00  0.000E+00  0.000E+00  4.00409E+01  1.659E-01  2.000E+01  2.000E+04 -1.448E+00
   1    9   28     2     3    1.0546E+05 -3.3204E+04   1.3867E+05  0.000E+00  0.000E+00  0.000E+00  3.98229E+01  1.979E-01  2.000E+01  2.000E+04 -1.660E+00
   1    9   27     2     4    1.3867E+05 -4.7200E+04   1.8587E+05  0.000E+00  0.000E+00  0.000E+00  3.96098E+01  2.348E-01  2.000E+01  2.000E+04 -2.360E+00
   1   10   26     2     5    1.8587E+05 -3.3094E+04   2.1896E+05  0.000E+00  0.000E+00  0.000E+00  3.93931E+01  2.681E-01  2.000E+01  2.000E+04 -1.655E+00
   1   11   25     2     6    2.1896E+05 -2.4675E+04   2.4363E+05  0.000E+00  0.000E+00  0.000E+00  3.91655E+01  2.905E-01  2.000E+01  2.000E+04 -1.234E+00
   1   12   24     2     7    2.4363E+05 -1.8063E+04   2.6170E+05  0.000E+00  0.000E+00  0.000E+00  3.89313E+01  3.063E-01  2.000E+01  2.000E+04 -9.031E-01
   1   13   23     2     8    2.6170E+05 -1.2708E+04   2.7441E+05  0.000E+00  0.000E+00  0.000E+00  3.86923E+01  3.173E-01  2.000E+01  2.000E+04 -6.354E-01
   1   14   22     2     9    2.7441E+05 -6.9923E+03   2.8140E+05  0.000E+00  0.000E+00  0.000E+00  3.84493E+01  3.243E-01  2.000E+01  2.000E+04 -3.496E-01
   1   14   22     3     1    1.0441E+06 -1.5016E+04   1.0591E+06  0.000E+00  0.000E+00  0.000E+00  3.80481E+01  4.925E-01  2.000E+01  2.000E+04 -7.508E-01
   1   15   23     3     2    1.0591E+06 -2.2243E+04   1.0814E+06  0.000E+00  0.000E+00  0.000E+00  3.71644E+01  4.977E-01  2.000E+01  2.000E+04 -1.112E+00
   1   15   24     3     3    1.0814E+06 -1.8529E+04   1.0999E+06  0.000E+00  0.000E+00  0.000E+00  3.62812E+01  5.034E-01  2.000E+01  2.000E+04 -9.265E-01
   1   15   25     3     4    1.0999E+06 -1.8288E+04   1.1182E+06  0.000E+00  0.000E+00  0.000E+00  3.53974E+01  5.085E-01  2.000E+01  2.000E+04 -9.144E-01
   1   15   26     3     5    1.1182E+06 -2.1239E+04   1.1394E+06  0.000E+00  0.000E+00  0.000E+00  3.45139E+01  5.139E-01  2.000E+01  2.000E+04 -1.062E+00
   1   16   27     3     6    1.1394E+06 -2.7798E+04   1.1672E+06  0.000E+00  0.000E+00  0.000E+00  3.36317E+01  5.206E-01  2.000E+01  2.000E+04 -1.390E+00
   1   17   28     3     7    1.1672E+06 -3.4596E+04   1.2018E+06  0.000E+00  0.000E+00  0.000E+00  3.27512E+01  5.290E-01  2.000E+01  2.000E+04 -1.730E+00
   1   18   29     3     8    1.2018E+06 -4.5491E+04   1.2473E+06  0.000E+00  0.000E+00  0.000E+00  3.18730E+01  5.396E-01  2.000E+01  2.000E+04 -2.275E+00
   1   18   30     3     9    1.2473E+06 -4.2607E+04   1.2899E+06  0.000E+00  0.000E+00  0.000E+00  3.09956E+01  5.512E-01  2.000E+01  2.000E+04 -2.130E+00



1
              HEAD IN LAYER   1 AT END OF TIME STEP   1 IN STRESS PERIOD    4
  ---------------------------------------------------------------------------

          1      2      3      4      5      6      7      8      9     10
         11     12     13     14     15     16     17     18     19     20
         21     22     23     24     25     26     27     28     29     30
 .........................................................................
   1  ****** ****** ****** ****** ****** ****** ****** ****** ****** ******
      ****** ****** ****** ****** ****** ****** ****** ****** ****** ******
      ****** ****** ****** ****** ****** ****** ****** ****** ****** ******
   2  ****** ****** ****** ****** ****** ****** ****** ****** ****** ******
      ****** ****** ****** ****** ****** ****** ****** ****** ****** ******
      ****** ****** ****** ****** ****** ****** ****** ****** ****** ******
   3  ****** ****** ****** ****** ****** ****** ****** ****** ****** ******
      ****** ****** ****** ****** ****** ****** ****** ****** ****** ******
      ****** ****** ****** ****** ****** ****** ****** ****** ****** ******
   4  ****** ****** ****** ****** ****** ****** ****** ****** ****** ******
      ****** ****** ****** ****** ****** ****** ****** ****** ****** ******
      ****** ****** ****** ****** ****** ****** ****** ****** ****** ******
   5  ****** ****** ****** ****** ****** ****** ****** ****** ****** ******
      ****** ****** ****** ****** ****** ****** ****** ****** ****** ******
      ****** ****** ****** ****** ****** ****** ****** ****** ****** ******
   6  ****** ****** ****** ****** ****** ****** ****** ****** ****** ******
      ****** ****** ****** ****** ****** ****** ****** ****** ****** ******
      ****** ****** ****** ****** ****** ****** ****** ****** ****** ******
   7  ****** ****** ****** ****** ****** ****** ****** ****** ****** ******
      ****** ****** ****** ****** ****** ****** ****** ****** ****** ******
      ****** ****** ****** ****** ****** ****** ****** ****** ****** ******
   8  ****** ****** ****** ****** ****** ****** ****** ****** ****** ******
      ****** ****** ****** ****** ****** ****** ****** ****** ****** ******
      ****** ****** ****** ****** ****** ****** ****** ****** ****** ******
   9  ****** ****** ****** ****** ****** ****** ****** ****** ****** ******
      ****** ****** ****** ****** ****** ****** ****** ****** ****** ******
      ****** ****** ****** ****** ****** ****** ****** ****** ****** ******
  10  ****** ****** ****** ****** ****** ****** ****** ****** ****** ******
      ****** ****** ****** ****** ****** ****** ****** ****** ****** ******
      ****** ****** ****** ****** ****** ****** ****** ****** ****** ******
  11  ****** ****** ****** ****** ****** ****** ****** ****** ****** ******
      ****** ****** ****** ****** ****** ****** ****** ****** ****** ******
      ****** ****** ****** ****** ****** ****** ****** ****** ****** ******
  12  ****** ****** ****** ****** ****** ****** ****** ****** ****** ******
      ****** ****** ****** ****** ****** ****** ****** ****** ****** ******
      ****** ****** ****** ****** ****** ****** ****** ****** ****** ******
  13  ****** ****** ****** ****** ****** ****** ****** ****** ****** ******
      ****** ****** ****** ****** ****** ****** ****** ****** ****** ******
      ****** ****** ****** ****** ****** ****** ****** ****** ****** ******
  14  ****** ****** ****** ****** ****** ****** ****** ****** ****** ******
      ****** ****** ****** ****** ****** ****** ****** ****** ****** ******
      ****** ****** ****** ****** ****** ****** ****** ****** ****** ******
  15  ****** ****** ****** ****** ****** ****** ****** ****** ****** ******
      ****** ****** ****** ****** ****** ****** ****** ****** ****** ******
      ****** ****** ****** ****** ****** ****** ****** ****** ****** ******
  16  ****** ****** ****** ****** ****** ****** ****** ****** ****** ******
      ****** ****** ****** ****** ****** ****** ****** ****** ****** ******
      ****** ****** ****** ****** ****** ****** ****** ****** ****** ******
  17  ****** ****** ****** ****** ****** ****** ****** ****** ****** ******
      ****** ****** ****** ****** ****** ****** ****** ****** ****** ******
      ****** ****** ****** ****** ****** ****** ****** ****** ****** ******
  18  ****** ****** ****** ****** ****** ****** ****** ****** ****** ******
      ****** ****** ****** ****** ****** ****** ****** ****** ****** ******
      ****** ****** ****** ****** ****** ****** ****** ****** ****** ******
  19  ****** ****** ****** ****** ****** ****** ****** ****** ****** ******
      ****** ****** ****** ****** ****** ****** ****** ****** ****** ******
      ****** ****** ****** ****** ****** ****** ****** ****** ****** ******
  20  ****** ****** ****** ****** ****** ****** ****** ****** ****** ******
      ****** ****** ****** ****** ****** ****** ****** ****** ****** ******
      ****** ****** ****** ****** ****** ****** ****** ****** ****** ******
  21  ****** ****** ****** ****** ****** ****** ****** ****** ****** ******
      ****** ****** ****** ****** ****** ****** ****** ****** ****** ******
      ****** ****** ****** ****** ****** ****** ****** ****** ****** ******
  22  ****** ****** ****** ****** ****** ****** ****** ****** ****** ******
      ****** ****** ****** ****** ****** ****** ****** ****** ****** ******
      ****** ****** ****** ****** ****** ****** ****** ****** ****** ******
  23  ****** ****** ****** ****** ****** ****** ****** ****** ****** ******
      ****** ****** ****** ****** ****** ****** ****** ****** ****** ******
      ****** ****** ****** ****** ****** ****** ****** ****** ****** ******
  24  ****** ****** ****** ****** ****** ****** ****** ****** ****** ******
      ****** ****** ****** ****** ****** ****** ****** ****** ****** ******
      ****** ****** ****** ****** ****** ****** ****** ****** ****** ******
  25  ****** ****** ****** ****** ****** ****** ****** ****** ****** ******
      ****** ****** ****** ****** ****** ****** ****** ****** ****** ******
      ****** ****** ****** ****** ****** ****** ****** ****** ****** ******

 HEAD WILL BE SAVED ON UNIT   51 AT END OF TIME STEP    1, STRESS PERIOD    4
1
  VOLUMETRIC BUDGET FOR ENTIRE MODEL AT END OF TIME STEP    1, STRESS PERIOD   4
  ------------------------------------------------------------------------------

     CUMULATIVE VOLUMES      L**3       RATES FOR THIS TIME STEP      L**3/T
     ------------------                 ------------------------

           IN:                                      IN:
           ---                                      ---
             STORAGE =    20450594.2385               STORAGE =         149.6028
       CONSTANT HEAD =   430230167.5182         CONSTANT HEAD =     1193597.3520
               WELLS =           0.0000                 WELLS =           0.0000
            RECHARGE =     8804400.0000              RECHARGE =       27600.0000
      STREAM LEAKAGE =           0.0000        STREAM LEAKAGE =           0.0000

            TOTAL IN =   459485161.7567              TOTAL IN =     1221346.9548

          OUT:                                     OUT:
          ----                                     ----
             STORAGE =      312350.4404               STORAGE =        1439.1604
       CONSTANT HEAD =           0.0000         CONSTANT HEAD =           0.0000
               WELLS =    29200000.0000                 WELLS =       80000.0000
            RECHARGE =           0.0000              RECHARGE =           0.0000
      STREAM LEAKAGE =   429972817.4886        STREAM LEAKAGE =     1139907.7721

           TOTAL OUT =   459485167.9290             TOTAL OUT =     1221346.9325

            IN - OUT =          -6.1723              IN - OUT =       2.2319E-02

 PERCENT DISCREPANCY =          -0.00     PERCENT DISCREPANCY =           0.00






         TIME SUMMARY AT END OF TIME STEP    1 IN STRESS PERIOD    4
                    SECONDS     MINUTES      HOURS       DAYS        YEARS
                    -----------------------------------------------------------
   TIME STEP LENGTH 7.86240E+06 1.31040E+05  2184.0      91.000     0.24914    
 STRESS PERIOD TIME 7.86240E+06 1.31040E+05  2184.0      91.000     0.24914    
         TOTAL TIME 3.15360E+07 5.25600E+05  8760.0      365.00     0.99932    
1
1
                            STRESS PERIOD NO.    5, LENGTH =   92.00000    
                            -----------------------------------------------

                              NUMBER OF TIME STEPS =     1

                               MULTIPLIER FOR DELT =     1.500

                            INITIAL TIME STEP SIZE =   92.00000    

 WELL NO.  LAYER   ROW   COL   STRESS RATE         
 --------------------------------------------------
      1      1      8     16     -0.3000E+05
      2      1     21     24     -0.5000E+05

      2 WELLS

                 RECHARGE =  5.000000E-04

 REUSING STREAM SEGMENT DATA FROM LAST STRESS PERIOD
 
 SOLVING FOR HEAD 


     5 CALLS TO PCG ROUTINE FOR TIME STEP   1 IN STRESS PERIOD    5
    20 TOTAL ITERATIONS

 OUTPUT CONTROL FOR STRESS PERIOD    5   TIME STEP    1
    SAVE BUDGET
    SAVE HEAD FOR ALL LAYERS
    PRINT HEAD FOR ALL LAYERS
 UBDSV2 SAVING "STREAMFLOW OUT  " ON UNIT  50 AT TIME STEP  1, STRESS PERIOD   5



 STREAM LISTING     PERIOD      5   STEP        1

 LAYER ROW COL. STREAM  RCH.  FLOW INTO     FLOW TO   FLOW OUT OF   OVRLND.     DIRECT     STREAM       STREAM     STREAM     STREAM   STREAMBED  STREAMBED
                SEG.NO.  NO.  STRM. RCH.    AQUIFER    STRM. RCH.    RUNOFF     PRECIP       ET          HEAD       DEPTH      WIDTH   CONDCTNC.   GRADIENT

   1   13    1     1     1    1.0000E+05 -2.7530E+04   1.2753E+05  0.000E+00  0.000E+00  0.000E+00  4.84177E+01  1.563E-01  2.000E+01  2.000E+04 -1.376E+00
   1   13    2     1     2    1.2753E+05 -3.7178E+04   1.6471E+05  0.000E+00  0.000E+00  0.000E+00  4.79657E+01  1.816E-01  2.000E+01  2.000E+04 -1.859E+00
   1   14    3     1     3    1.6471E+05 -3.2689E+04   1.9740E+05  0.000E+00  0.000E+00  0.000E+00  4.75134E+01  2.065E-01  2.000E+01  2.000E+04 -1.634E+00
   1   15    4     1     4    1.9740E+05 -3.1958E+04   2.2935E+05  0.000E+00  0.000E+00  0.000E+00  4.70575E+01  2.279E-01  2.000E+01  2.000E+04 -1.598E+00
   1   16    5     1     5    2.2935E+05 -3.3547E+04   2.6290E+05  0.000E+00  0.000E+00  0.000E+00  4.66006E+01  2.483E-01  2.000E+01  2.000E+04 -1.677E+00
   1   16    6     1     6    2.6290E+05 -2.9272E+04   2.9217E+05  0.000E+00  0.000E+00  0.000E+00  4.61419E+01  2.669E-01  2.000E+01  2.000E+04 -1.464E+00
   1   16    7     1     7    2.9217E+05 -2.9064E+04   3.2124E+05  0.000E+00  0.000E+00  0.000E+00  4.56811E+01  2.834E-01  2.000E+01  2.000E+04 -1.453E+00
   1   16    8     1     8    3.2124E+05 -2.9214E+04   3.5045E+05  0.000E+00  0.000E+00  0.000E+00  4.52197E+01  2.992E-01  2.000E+01  2.000E+04 -1.461E+00
   1   16    9     1     9    3.5045E+05 -2.9262E+04   3.7971E+05  0.000E+00  0.000E+00  0.000E+00  4.47578E+01  3.146E-01  2.000E+01  2.000E+04 -1.463E+00
   1   16   10     1    10    3.7971E+05 -2.9256E+04   4.0897E+05  0.000E+00  0.000E+00  0.000E+00  4.42954E+01  3.295E-01  2.000E+01  2.000E+04 -1.463E+00
   1   16   11     1    11    4.0897E+05 -2.9818E+04   4.3879E+05  0.000E+00  0.000E+00  0.000E+00  4.38327E+01  3.441E-01  2.000E+01  2.000E+04 -1.491E+00
   1   16   12     1    12    4.3879E+05 -3.5206E+04   4.7399E+05  0.000E+00  0.000E+00  0.000E+00  4.33711E+01  3.597E-01  2.000E+01  2.000E+04 -1.760E+00
   1   15   13     1    13    4.7399E+05 -3.3640E+04   5.0763E+05  0.000E+00  0.000E+00  0.000E+00  4.29098E+01  3.757E-01  2.000E+01  2.000E+04 -1.682E+00
   1   14   14     1    14    5.0763E+05 -3.3854E+04   5.4149E+05  0.000E+00  0.000E+00  0.000E+00  4.24478E+01  3.910E-01  2.000E+01  2.000E+04 -1.693E+00
   1   13   15     1    15    5.4149E+05 -3.5500E+04   5.7699E+05  0.000E+00  0.000E+00  0.000E+00  4.19859E+01  4.063E-01  2.000E+01  2.000E+04 -1.775E+00
   1   12   16     1    16    5.7699E+05 -4.0476E+04   6.1747E+05  0.000E+00  0.000E+00  0.000E+00  4.15249E+01  4.227E-01  2.000E+01  2.000E+04 -2.024E+00
   1   12   17     1    17    6.1747E+05 -3.1682E+04   6.4915E+05  0.000E+00  0.000E+00  0.000E+00  4.10628E+01  4.378E-01  2.000E+01  2.000E+04 -1.584E+00
   1   12   18     1    18    6.4915E+05 -3.0423E+04   6.7957E+05  0.000E+00  0.000E+00  0.000E+00  4.05983E+01  4.506E-01  2.000E+01  2.000E+04 -1.521E+00
   1   12   19     1    19    6.7957E+05 -3.4644E+04   7.1421E+05  0.000E+00  0.000E+00  0.000E+00  4.01341E+01  4.637E-01  2.000E+01  2.000E+04 -1.732E+00
   1   13   20     1    20    7.1421E+05 -2.5534E+04   7.3975E+05  0.000E+00  0.000E+00  0.000E+00  3.96688E+01  4.756E-01  2.000E+01  2.000E+04 -1.277E+00
   1   14   21     1    21    7.3975E+05 -1.8466E+04   7.5821E+05  0.000E+00  0.000E+00  0.000E+00  3.92001E+01  4.842E-01  2.000E+01  2.000E+04 -9.233E-01
   1   14   22     1    22    7.5821E+05 -1.2858E+03   7.5950E+05  0.000E+00  0.000E+00  0.000E+00  3.87266E+01  4.880E-01  2.000E+01  2.000E+04 -6.429E-02
   1    9   30     2     1    5.0000E+04 -2.6353E+04   7.6353E+04  0.000E+00  0.000E+00  0.000E+00  4.02583E+01  1.333E-01  2.000E+01  2.000E+04 -1.318E+00
   1    9   29     2     2    7.6353E+04 -2.8806E+04   1.0516E+05  0.000E+00  0.000E+00  0.000E+00  4.00407E+01  1.657E-01  2.000E+01  2.000E+04 -1.440E+00
   1    9   28     2     3    1.0516E+05 -3.3049E+04   1.3821E+05  0.000E+00  0.000E+00  0.000E+00  3.98226E+01  1.976E-01  2.000E+01  2.000E+04 -1.652E+00
   1    9   27     2     4    1.3821E+05 -4.7015E+04   1.8522E+05  0.000E+00  0.000E+00  0.000E+00  3.96093E+01  2.343E-01  2.000E+01  2.000E+04 -2.351E+00
   1   10   26     2     5    1.8522E+05 -3.2895E+04   2.1812E+05  0.000E+00  0.000E+00  0.000E+00  3.93925E+01  2.675E-01  2.000E+01  2.000E+04 -1.645E+00
   1   11   25     2     6    2.1812E+05 -2.4476E+04   2.4259E+05  0.000E+00  0.000E+00  0.000E+00  3.91647E+01  2.897E-01  2.000E+01  2.000E+04 -1.224E+00
   1   12   24     2     7    2.4259E+05 -1.7873E+04   2.6047E+05  0.000E+00  0.000E+00  0.000E+00  3.89304E+01  3.054E-01  2.000E+01  2.000E+04 -8.936E-01
   1   13   23     2     8    2.6047E+05 -1.2530E+04   2.7300E+05  0.000E+00  0.000E+00  0.000E+00  3.86914E+01  3.164E-01  2.000E+01  2.000E+04 -6.265E-01
   1   14   22     2     9    2.7300E+05 -6.8538E+03   2.7985E+05  0.000E+00  0.000E+00  0.000E+00  3.84482E+01  3.232E-01  2.000E+01  2.000E+04 -3.427E-01
   1   14   22     3     1    1.0394E+06 -1.4884E+04   1.0542E+06  0.000E+00  0.000E+00  0.000E+00  3.80467E+01  4.912E-01  2.000E+01  2.000E+04 -7.442E-01
   1   15   23     3     2    1.0542E+06 -2.1706E+04   1.0759E+06  0.000E+00  0.000E+00  0.000E+00  3.71630E+01  4.963E-01  2.000E+01  2.000E+04 -1.085E+00
   1   15   24     3     3    1.0759E+06 -1.8072E+04   1.0940E+06  0.000E+00  0.000E+00  0.000E+00  3.62796E+01  5.018E-01  2.000E+01  2.000E+04 -9.036E-01
   1   15   25     3     4    1.0940E+06 -1.7869E+04   1.1119E+06  0.000E+00  0.000E+00  0.000E+00  3.53957E+01  5.068E-01  2.000E+01  2.000E+04 -8.935E-01
   1   15   26     3     5    1.1119E+06 -2.0850E+04   1.1327E+06  0.000E+00  0.000E+00  0.000E+00  3.45121E+01  5.121E-01  2.000E+01  2.000E+04 -1.043E+00
   1   16   27     3     6    1.1327E+06 -2.7200E+04   1.1599E+06  0.000E+00  0.000E+00  0.000E+00  3.36298E+01  5.187E-01  2.000E+01  2.000E+04 -1.360E+00
   1   17   28     3     7    1.1599E+06 -3.3917E+04   1.1939E+06  0.000E+00  0.000E+00  0.000E+00  3.27491E+01  5.269E-01  2.000E+01  2.000E+04 -1.696E+00
   1   18   29     3     8    1.1939E+06 -4.4796E+04   1.2386E+06  0.000E+00  0.000E+00  0.000E+00  3.18708E+01  5.374E-01  2.000E+01  2.000E+04 -2.240E+00
   1   18   30     3     9    1.2386E+06 -4.2139E+04   1.2808E+06  0.000E+00  0.000E+00  0.000E+00  3.09933E+01  5.489E-01  2.000E+01  2.000E+04 -2.107E+00



1
              HEAD IN LAYER   1 AT END OF TIME STEP   1 IN STRESS PERIOD    5
  ---------------------------------------------------------------------------

          1      2      3      4      5      6      7      8      9     10
         11     12     13     14     15     16     17     18     19     20
         21     22     23     24     25     26     27     28     29     30
 .........................................................................
   1  ****** ****** ****** ****** ****** ****** ****** ****** ****** ******
      ****** ****** ****** ****** ****** ****** ****** ****** ****** ******
      ****** ****** ****** ****** ****** ****** ****** ****** ****** ******
   2  ****** ****** ****** ****** ****** ****** ****** ****** ****** ******
      ****** ****** ****** ****** ****** ****** ****** ****** ****** ******
      ****** ****** ****** ****** ****** ****** ****** ****** ****** ******
   3  ****** ****** ****** ****** ****** ****** ****** ****** ****** ******
      ****** ****** ****** ****** ****** ****** ****** ****** ****** ******
      ****** ****** ****** ****** ****** ****** ****** ****** ****** ******
   4  ****** ****** ****** ****** ****** ****** ****** ****** ****** ******
      ****** ****** ****** ****** ****** ****** ****** ****** ****** ******
      ****** ****** ****** ****** ****** ****** ****** ****** ****** ******
   5  ****** ****** ****** ****** ****** ****** ****** ****** ****** ******
      ****** ****** ****** ****** ****** ****** ****** ****** ****** ******
      ****** ****** ****** ****** ****** ****** ****** ****** ****** ******
   6  ****** ****** ****** ****** ****** ****** ****** ****** ****** ******
      ****** ****** ****** ****** ****** ****** ****** ****** ****** ******
      ****** ****** ****** ****** ****** ****** ****** ****** ****** ******
   7  ****** ****** ****** ****** ****** ****** ****** ****** ****** ******
      ****** ****** ****** ****** ****** ****** ****** ****** ****** ******
      ****** ****** ****** ****** ****** ****** ****** ****** ****** ******
   8  ****** ****** ****** ****** ****** ****** ****** ****** ****** ******
      ****** ****** ****** ****** ****** ****** ****** ****** ****** ******
      ****** ****** ****** ****** ****** ****** ****** ****** ****** ******
   9  ****** ****** ****** ****** ****** ****** ****** ****** ****** ******
      ****** ****** ****** ****** ****** ****** ****** ****** ****** ******
      ****** ****** ****** ****** ****** ****** ****** ****** ****** ******
  10  ****** ****** ****** ****** ****** ****** ****** ****** ****** ******
      ****** ****** ****** ****** ****** ****** ****** ****** ****** ******
      ****** ****** ****** ****** ****** ****** ****** ****** ****** ******
  11  ****** ****** ****** ****** ****** ****** ****** ****** ****** ******
      ****** ****** ****** ****** ****** ****** ****** ****** ****** ******
      ****** ****** ****** ****** ****** ****** ****** ****** ****** ******
  12  ****** ****** ****** ****** ****** ****** ****** ****** ****** ******
      ****** ****** ****** ****** ****** ****** ****** ****** ****** ******
      ****** ****** ****** ****** ****** ****** ****** ****** ****** ******
  13  ****** ****** ****** ****** ****** ****** ****** ****** ****** ******
      ****** ****** ****** ****** ****** ****** ****** ****** ****** ******
      ****** ****** ****** ****** ****** ****** ****** ****** ****** ******
  14  ****** ****** ****** ****** ****** ****** ****** ****** ****** ******
      ****** ****** ****** ****** ****** ****** ****** ****** ****** ******
      ****** ****** ****** ****** ****** ****** ****** ****** ****** ******
  15  ****** ****** ****** ****** ****** ****** ****** ****** ****** ******
      ****** ****** ****** ****** ****** ****** ****** ****** ****** ******
      ****** ****** ****** ****** ****** ****** ****** ****** ****** ******
  16  ****** ****** ****** ****** ****** ****** ****** ****** ****** ******
      ****** ****** ****** ****** ****** ****** ****** ****** ****** ******
      ****** ****** ****** ****** ****** ****** ****** ****** ****** ******
  17  ****** ****** ****** ****** ****** ****** ****** ****** ****** ******
      ****** ****** ****** ****** ****** ****** ****** ****** ****** ******
      ****** ****** ****** ****** ****** ****** ****** ****** ****** ******
  18  ****** ****** ****** ****** ****** ****** ****** ****** ****** ******
      ****** ****** ****** ****** ****** ****** ****** ****** ****** ******
      ****** ****** ****** ****** ****** ****** ****** ****** ****** ******
  19  ****** ****** ****** ****** ****** ****** ****** ****** ****** ******
      ****** ****** ****** ****** ****** ****** ****** ****** ****** ******
      ****** ****** ****** ****** ****** ****** ****** ****** ****** ******
  20  ****** ****** ****** ****** ****** ****** ****** ****** ****** ******
      ****** ****** ****** ****** ****** ****** ****** ****** ****** ******
      ****** ****** ****** ****** ****** ****** ****** ****** ****** ******
  21  ****** ****** ****** ****** ****** ****** ****** ****** ****** ******
      ****** ****** ****** ****** ****** ****** ****** ****** ****** ******
      ****** ****** ****** ****** ****** ****** ****** ****** ****** ******
  22  ****** ****** ****** ****** ****** ****** ****** ****** ****** ******
      ****** ****** ****** ****** ****** ****** ****** ****** ****** ******
      ****** ****** ****** ****** ****** ****** ****** ****** ****** ******
  23  ****** ****** ****** ****** ****** ****** ****** ****** ****** ******
      ****** ****** ****** ****** ****** ****** ****** ****** ****** ******
      ****** ****** ****** ****** ****** ****** ****** ****** ****** ******
  24  ****** ****** ****** ****** ****** ****** ****** ****** ****** ******
      ****** ****** ****** ****** ****** ****** ****** ****** ****** ******
      ****** ****** ****** ****** ****** ****** ****** ****** ****** ******
  25  ****** ****** ****** ****** ****** ****** ****** ****** ****** ******
      ****** ****** ****** ****** ****** ****** ****** ****** ****** ******
      ****** ****** ****** ****** ****** ****** ****** ****** ****** ******

 HEAD WILL BE SAVED ON UNIT   51 AT END OF TIME STEP    1, STRESS PERIOD    5
1
  VOLUMETRIC BUDGET FOR ENTIRE MODEL AT END OF TIME STEP    1, STRESS PERIOD   5
  ------------------------------------------------------------------------------

     CUMULATIVE VOLUMES      L**3       RATES FOR THIS TIME STEP      L**3/T
     ------------------                 ------------------------

           IN:                                      IN:
           ---                                      ---
             STORAGE =    20541243.5111               STORAGE =         985.3182
       CONSTANT HEAD =   540282465.9411         CONSTANT HEAD =     1196220.6350
               WELLS =           0.0000                 WELLS =           0.0000
            RECHARGE =    10074000.0000              RECHARGE =       13800.0000
      STREAM LEAKAGE =           0.0000        STREAM LEAKAGE =           0.0000

            TOTAL IN =   570897709.4522              TOTAL IN =     1211005.9532

          OUT:                                     OUT:
          ----                                     ----
             STORAGE =      332508.1949               STORAGE =         219.1060
       CONSTANT HEAD =           0.0000         CONSTANT HEAD =           0.0000
               WELLS =    36560000.0000                 WELLS =       80000.0000
            RECHARGE =           0.0000              RECHARGE =           0.0000
      STREAM LEAKAGE =   534005208.9586        STREAM LEAKAGE =     1130786.8638

           TOTAL OUT =   570897717.1535             TOTAL OUT =     1211005.9698

            IN - OUT =          -7.7013              IN - OUT =      -1.6619E-02

 PERCENT DISCREPANCY =          -0.00     PERCENT DISCREPANCY =          -0.00






         TIME SUMMARY AT END OF TIME STEP    1 IN STRESS PERIOD    5
                    SECONDS     MINUTES      HOURS       DAYS        YEARS
                    -----------------------------------------------------------
   TIME STEP LENGTH 7.94880E+06 1.32480E+05  2208.0      92.000     0.25188    
 STRESS PERIOD TIME 7.94880E+06 1.32480E+05  2208.0      92.000     0.25188    
         TOTAL TIME 3.94848E+07 6.58080E+05  10968.      457.00      1.2512    
1
1
                            STRESS PERIOD NO.    6, LENGTH =   91.00000    
                            -----------------------------------------------

                              NUMBER OF TIME STEPS =     1

                               MULTIPLIER FOR DELT =     1.500

                            INITIAL TIME STEP SIZE =   91.00000    

 WELL NO.  LAYER   ROW   COL   STRESS RATE         
 --------------------------------------------------
      1      1      8     16     -0.3000E+05
      2      1     21     24       0.000    
      3      1     23     11     -0.5000E+05

      3 WELLS

                 RECHARGE =  2.000000E-03

 REUSING STREAM SEGMENT DATA FROM LAST STRESS PERIOD
 
 SOLVING FOR HEAD 


     6 CALLS TO PCG ROUTINE FOR TIME STEP   1 IN STRESS PERIOD    6
    23 TOTAL ITERATIONS

 OUTPUT CONTROL FOR STRESS PERIOD    6   TIME STEP    1
    SAVE BUDGET
    SAVE HEAD FOR ALL LAYERS
    PRINT HEAD FOR ALL LAYERS
 UBDSV2 SAVING "STREAMFLOW OUT  " ON UNIT  50 AT TIME STEP  1, STRESS PERIOD   6



 STREAM LISTING     PERIOD      6   STEP        1

 LAYER ROW COL. STREAM  RCH.  FLOW INTO     FLOW TO   FLOW OUT OF   OVRLND.     DIRECT     STREAM       STREAM     STREAM     STREAM   STREAMBED  STREAMBED
                SEG.NO.  NO.  STRM. RCH.    AQUIFER    STRM. RCH.    RUNOFF     PRECIP       ET          HEAD       DEPTH      WIDTH   CONDCTNC.   GRADIENT

   1   13    1     1     1    1.0000E+05 -2.8102E+04   1.2810E+05  0.000E+00  0.000E+00  0.000E+00  4.84179E+01  1.565E-01  2.000E+01  2.000E+04 -1.405E+00
   1   13    2     1     2    1.2810E+05 -3.7875E+04   1.6598E+05  0.000E+00  0.000E+00  0.000E+00  4.79664E+01  1.823E-01  2.000E+01  2.000E+04 -1.894E+00
   1   14    3     1     3    1.6598E+05 -3.3299E+04   1.9928E+05  0.000E+00  0.000E+00  0.000E+00  4.75144E+01  2.076E-01  2.000E+01  2.000E+04 -1.665E+00
   1   15    4     1     4    1.9928E+05 -3.2442E+04   2.3172E+05  0.000E+00  0.000E+00  0.000E+00  4.70588E+01  2.293E-01  2.000E+01  2.000E+04 -1.622E+00
   1   16    5     1     5    2.3172E+05 -3.3757E+04   2.6548E+05  0.000E+00  0.000E+00  0.000E+00  4.66021E+01  2.498E-01  2.000E+01  2.000E+04 -1.688E+00
   1   16    6     1     6    2.6548E+05 -2.9388E+04   2.9486E+05  0.000E+00  0.000E+00  0.000E+00  4.61434E+01  2.684E-01  2.000E+01  2.000E+04 -1.469E+00
   1   16    7     1     7    2.9486E+05 -2.9091E+04   3.2395E+05  0.000E+00  0.000E+00  0.000E+00  4.56826E+01  2.849E-01  2.000E+01  2.000E+04 -1.455E+00
   1   16    8     1     8    3.2395E+05 -2.9142E+04   3.5310E+05  0.000E+00  0.000E+00  0.000E+00  4.52211E+01  3.007E-01  2.000E+01  2.000E+04 -1.457E+00
   1   16    9     1     9    3.5310E+05 -2.9094E+04   3.8219E+05  0.000E+00  0.000E+00  0.000E+00  4.47591E+01  3.159E-01  2.000E+01  2.000E+04 -1.455E+00
   1   16   10     1    10    3.8219E+05 -2.9019E+04   4.1121E+05  0.000E+00  0.000E+00  0.000E+00  4.42966E+01  3.307E-01  2.000E+01  2.000E+04 -1.451E+00
   1   16   11     1    11    4.1121E+05 -2.9560E+04   4.4077E+05  0.000E+00  0.000E+00  0.000E+00  4.38338E+01  3.451E-01  2.000E+01  2.000E+04 -1.478E+00
   1   16   12     1    12    4.4077E+05 -3.4983E+04   4.7575E+05  0.000E+00  0.000E+00  0.000E+00  4.33719E+01  3.606E-01  2.000E+01  2.000E+04 -1.749E+00
   1   15   13     1    13    4.7575E+05 -3.4018E+04   5.0977E+05  0.000E+00  0.000E+00  0.000E+00  4.29107E+01  3.766E-01  2.000E+01  2.000E+04 -1.701E+00
   1   14   14     1    14    5.0977E+05 -3.4523E+04   5.4429E+05  0.000E+00  0.000E+00  0.000E+00  4.24489E+01  3.921E-01  2.000E+01  2.000E+04 -1.726E+00
   1   13   15     1    15    5.4429E+05 -3.6288E+04   5.8058E+05  0.000E+00  0.000E+00  0.000E+00  4.19873E+01  4.077E-01  2.000E+01  2.000E+04 -1.814E+00
   1   12   16     1    16    5.8058E+05 -4.1258E+04   6.2184E+05  0.000E+00  0.000E+00  0.000E+00  4.15266E+01  4.244E-01  2.000E+01  2.000E+04 -2.063E+00
   1   12   17     1    17    6.2184E+05 -3.2365E+04   6.5420E+05  0.000E+00  0.000E+00  0.000E+00  4.10648E+01  4.398E-01  2.000E+01  2.000E+04 -1.618E+00
   1   12   18     1    18    6.5420E+05 -3.1116E+04   6.8532E+05  0.000E+00  0.000E+00  0.000E+00  4.06005E+01  4.528E-01  2.000E+01  2.000E+04 -1.556E+00
   1   12   19     1    19    6.8532E+05 -3.5416E+04   7.2074E+05  0.000E+00  0.000E+00  0.000E+00  4.01366E+01  4.661E-01  2.000E+01  2.000E+04 -1.771E+00
   1   13   20     1    20    7.2074E+05 -2.6484E+04   7.4722E+05  0.000E+00  0.000E+00  0.000E+00  3.96715E+01  4.783E-01  2.000E+01  2.000E+04 -1.324E+00
   1   14   21     1    21    7.4722E+05 -1.9722E+04   7.6694E+05  0.000E+00  0.000E+00  0.000E+00  3.92032E+01  4.873E-01  2.000E+01  2.000E+04 -9.861E-01
   1   14   22     1    22    7.6694E+05 -1.8066E+03   7.6875E+05  0.000E+00  0.000E+00  0.000E+00  3.87301E+01  4.915E-01  2.000E+01  2.000E+04 -9.033E-02
   1    9   30     2     1    5.0000E+04 -2.6843E+04   7.6843E+04  0.000E+00  0.000E+00  0.000E+00  4.02586E+01  1.336E-01  2.000E+01  2.000E+04 -1.342E+00
   1    9   29     2     2    7.6843E+04 -2.9293E+04   1.0614E+05  0.000E+00  0.000E+00  0.000E+00  4.00415E+01  1.665E-01  2.000E+01  2.000E+04 -1.465E+00
   1    9   28     2     3    1.0614E+05 -3.3549E+04   1.3968E+05  0.000E+00  0.000E+00  0.000E+00  3.98238E+01  1.988E-01  2.000E+01  2.000E+04 -1.677E+00
   1    9   27     2     4    1.3968E+05 -4.7614E+04   1.8730E+05  0.000E+00  0.000E+00  0.000E+00  3.96109E+01  2.359E-01  2.000E+01  2.000E+04 -2.381E+00
   1   10   26     2     5    1.8730E+05 -3.3545E+04   2.2084E+05  0.000E+00  0.000E+00  0.000E+00  3.93944E+01  2.694E-01  2.000E+01  2.000E+04 -1.677E+00
   1   11   25     2     6    2.2084E+05 -2.5131E+04   2.4597E+05  0.000E+00  0.000E+00  0.000E+00  3.91670E+01  2.920E-01  2.000E+01  2.000E+04 -1.257E+00
   1   12   24     2     7    2.4597E+05 -1.8509E+04   2.6448E+05  0.000E+00  0.000E+00  0.000E+00  3.89331E+01  3.081E-01  2.000E+01  2.000E+04 -9.255E-01
   1   13   23     2     8    2.6448E+05 -1.3149E+04   2.7763E+05  0.000E+00  0.000E+00  0.000E+00  3.86945E+01  3.195E-01  2.000E+01  2.000E+04 -6.575E-01
   1   14   22     2     9    2.7763E+05 -7.3754E+03   2.8501E+05  0.000E+00  0.000E+00  0.000E+00  3.84517E+01  3.267E-01  2.000E+01  2.000E+04 -3.688E-01
   1   14   22     3     1    1.0538E+06 -1.5392E+04   1.0691E+06  0.000E+00  0.000E+00  0.000E+00  3.80508E+01  4.953E-01  2.000E+01  2.000E+04 -7.696E-01
   1   15   23     3     2    1.0691E+06 -2.3863E+04   1.0930E+06  0.000E+00  0.000E+00  0.000E+00  3.71674E+01  5.007E-01  2.000E+01  2.000E+04 -1.193E+00
   1   15   24     3     3    1.0930E+06 -1.9908E+04   1.1129E+06  0.000E+00  0.000E+00  0.000E+00  3.62846E+01  5.068E-01  2.000E+01  2.000E+04 -9.954E-01
   1   15   25     3     4    1.1129E+06 -1.9537E+04   1.1325E+06  0.000E+00  0.000E+00  0.000E+00  3.54011E+01  5.122E-01  2.000E+01  2.000E+04 -9.768E-01
   1   15   26     3     5    1.1325E+06 -2.2366E+04   1.1548E+06  0.000E+00  0.000E+00  0.000E+00  3.45179E+01  5.179E-01  2.000E+01  2.000E+04 -1.118E+00
   1   16   27     3     6    1.1548E+06 -2.9584E+04   1.1844E+06  0.000E+00  0.000E+00  0.000E+00  3.36361E+01  5.250E-01  2.000E+01  2.000E+04 -1.479E+00
   1   17   28     3     7    1.1844E+06 -3.6647E+04   1.2211E+06  0.000E+00  0.000E+00  0.000E+00  3.27560E+01  5.338E-01  2.000E+01  2.000E+04 -1.832E+00
   1   18   29     3     8    1.2211E+06 -4.7611E+04   1.2687E+06  0.000E+00  0.000E+00  0.000E+00  3.18783E+01  5.450E-01  2.000E+01  2.000E+04 -2.381E+00
   1   18   30     3     9    1.2687E+06 -4.4008E+04   1.3127E+06  0.000E+00  0.000E+00  0.000E+00  3.10014E+01  5.569E-01  2.000E+01  2.000E+04 -2.200E+00



1
              HEAD IN LAYER   1 AT END OF TIME STEP   1 IN STRESS PERIOD    6
  ---------------------------------------------------------------------------

          1      2      3      4      5      6      7      8      9     10
         11     12     13     14     15     16     17     18     19     20
         21     22     23     24     25     26     27     28     29     30
 .........................................................................
   1  ****** ****** ****** ****** ****** ****** ****** ****** ****** ******
      ****** ****** ****** ****** ****** ****** ****** ****** ****** ******
      ****** ****** ****** ****** ****** ****** ****** ****** ****** ******
   2  ****** ****** ****** ****** ****** ****** ****** ****** ****** ******
      ****** ****** ****** ****** ****** ****** ****** ****** ****** ******
      ****** ****** ****** ****** ****** ****** ****** ****** ****** ******
   3  ****** ****** ****** ****** ****** ****** ****** ****** ****** ******
      ****** ****** ****** ****** ****** ****** ****** ****** ****** ******
      ****** ****** ****** ****** ****** ****** ****** ****** ****** ******
   4  ****** ****** ****** ****** ****** ****** ****** ****** ****** ******
      ****** ****** ****** ****** ****** ****** ****** ****** ****** ******
      ****** ****** ****** ****** ****** ****** ****** ****** ****** ******
   5  ****** ****** ****** ****** ****** ****** ****** ****** ****** ******
      ****** ****** ****** ****** ****** ****** ****** ****** ****** ******
      ****** ****** ****** ****** ****** ****** ****** ****** ****** ******
   6  ****** ****** ****** ****** ****** ****** ****** ****** ****** ******
      ****** ****** ****** ****** ****** ****** ****** ****** ****** ******
      ****** ****** ****** ****** ****** ****** ****** ****** ****** ******
   7  ****** ****** ****** ****** ****** ****** ****** ****** ****** ******
      ****** ****** ****** ****** ****** ****** ****** ****** ****** ******
      ****** ****** ****** ****** ****** ****** ****** ****** ****** ******
   8  ****** ****** ****** ****** ****** ****** ****** ****** ****** ******
      ****** ****** ****** ****** ****** ****** ****** ****** ****** ******
      ****** ****** ****** ****** ****** ****** ****** ****** ****** ******
   9  ****** ****** ****** ****** ****** ****** ****** ****** ****** ******
      ****** ****** ****** ****** ****** ****** ****** ****** ****** ******
      ****** ****** ****** ****** ****** ****** ****** ****** ****** ******
  10  ****** ****** ****** ****** ****** ****** ****** ****** ****** ******
      ****** ****** ****** ****** ****** ****** ****** ****** ****** ******
      ****** ****** ****** ****** ****** ****** ****** ****** ****** ******
  11  ****** ****** ****** ****** ****** ****** ****** ****** ****** ******
      ****** ****** ****** ****** ****** ****** ****** ****** ****** ******
      ****** ****** ****** ****** ****** ****** ****** ****** ****** ******
  12  ****** ****** ****** ****** ****** ****** ****** ****** ****** ******
      ****** ****** ****** ****** ****** ****** ****** ****** ****** ******
      ****** ****** ****** ****** ****** ****** ****** ****** ****** ******
  13  ****** ****** ****** ****** ****** ****** ****** ****** ****** ******
      ****** ****** ****** ****** ****** ****** ****** ****** ****** ******
      ****** ****** ****** ****** ****** ****** ****** ****** ****** ******
  14  ****** ****** ****** ****** ****** ****** ****** ****** ****** ******
      ****** ****** ****** ****** ****** ****** ****** ****** ****** ******
      ****** ****** ****** ****** ****** ****** ****** ****** ****** ******
  15  ****** ****** ****** ****** ****** ****** ****** ****** ****** ******
      ****** ****** ****** ****** ****** ****** ****** ****** ****** ******
      ****** ****** ****** ****** ****** ****** ****** ****** ****** ******
  16  ****** ****** ****** ****** ****** ****** ****** ****** ****** ******
      ****** ****** ****** ****** ****** ****** ****** ****** ****** ******
      ****** ****** ****** ****** ****** ****** ****** ****** ****** ******
  17  ****** ****** ****** ****** ****** ****** ****** ****** ****** ******
      ****** ****** ****** ****** ****** ****** ****** ****** ****** ******
      ****** ****** ****** ****** ****** ****** ****** ****** ****** ******
  18  ****** ****** ****** ****** ****** ****** ****** ****** ****** ******
      ****** ****** ****** ****** ****** ****** ****** ****** ****** ******
      ****** ****** ****** ****** ****** ****** ****** ****** ****** ******
  19  ****** ****** ****** ****** ****** ****** ****** ****** ****** ******
      ****** ****** ****** ****** ****** ****** ****** ****** ****** ******
      ****** ****** ****** ****** ****** ****** ****** ****** ****** ******
  20  ****** ****** ****** ****** ****** ****** ****** ****** ****** ******
      ****** ****** ****** ****** ****** ****** ****** ****** ****** ******
      ****** ****** ****** ****** ****** ****** ****** ****** ****** ******
  21  ****** ****** ****** ****** ****** ****** ****** ****** ****** ******
      ****** ****** ****** ****** ****** ****** ****** ****** ****** ******
      ****** ****** ****** ****** ****** ****** ****** ****** ****** ******
  22  ****** ****** ****** ****** ****** ****** ****** ****** ****** ******
      ****** ****** ****** ****** ****** ****** ****** ****** ****** ******
      ****** ****** ****** ****** ****** ****** ****** ****** ****** ******
  23  ****** ****** ****** ****** ****** ****** ****** ****** ****** ******
      ****** ****** ****** ****** ****** ****** ****** ****** ****** ******
      ****** ****** ****** ****** ****** ****** ****** ****** ****** ******
  24  ****** ****** ****** ****** ****** ****** ****** ****** ****** ******
      ****** ****** ****** ****** ****** ****** ****** ****** ****** ******
      ****** ****** ****** ****** ****** ****** ****** ****** ****** ******
  25  ****** ****** ****** ****** ****** ****** ****** ****** ****** ******
      ****** ****** ****** ****** ****** ****** ****** ****** ****** ******
      ****** ****** ****** ****** ****** ****** ****** ****** ****** ******

 HEAD WILL BE SAVED ON UNIT   51 AT END OF TIME STEP    1, STRESS PERIOD    6
1
  VOLUMETRIC BUDGET FOR ENTIRE MODEL AT END OF TIME STEP    1, STRESS PERIOD   6
  ------------------------------------------------------------------------------

     CUMULATIVE VOLUMES      L**3       RATES FOR THIS TIME STEP      L**3/T
     ------------------                 ------------------------

           IN:                                      IN:
           ---                                      ---
             STORAGE =    20634182.3627               STORAGE =        1021.3061
       CONSTANT HEAD =   648590307.2288         CONSTANT HEAD =     1190196.0581
               WELLS =           0.0000                 WELLS =           0.0000
            RECHARGE =    15097200.0000              RECHARGE =       55200.0000
      STREAM LEAKAGE =           0.0000        STREAM LEAKAGE =           0.0000

            TOTAL IN =   684321689.5915              TOTAL IN =     1246417.3642

          OUT:                                     OUT:
          ----                                     ----
             STORAGE =      673324.0134               STORAGE =        3745.2288
       CONSTANT HEAD =           0.0000         CONSTANT HEAD =           0.0000
               WELLS =    43840000.0000                 WELLS =       80000.0000
            RECHARGE =           0.0000              RECHARGE =           0.0000
      STREAM LEAKAGE =   639808370.7280        STREAM LEAKAGE =     1162672.1074

           TOTAL OUT =   684321694.7414             TOTAL OUT =     1246417.3361

            IN - OUT =          -5.1498              IN - OUT =       2.8038E-02

 PERCENT DISCREPANCY =          -0.00     PERCENT DISCREPANCY =           0.00






         TIME SUMMARY AT END OF TIME STEP    1 IN STRESS PERIOD    6
                    SECONDS     MINUTES      HOURS       DAYS        YEARS
                    -----------------------------------------------------------
   TIME STEP LENGTH 7.86240E+06 1.31040E+05  2184.0      91.000     0.24914    
 STRESS PERIOD TIME 7.86240E+06 1.31040E+05  2184.0      91.000     0.24914    
         TOTAL TIME 4.73472E+07 7.89120E+05  13152.      548.00      1.5003    
1
1
                            STRESS PERIOD NO.    7, LENGTH =   91.00000    
                            -----------------------------------------------

                              NUMBER OF TIME STEPS =     1

                               MULTIPLIER FOR DELT =     1.500

                            INITIAL TIME STEP SIZE =   91.00000    

 WELL NO.  LAYER   ROW   COL   STRESS RATE         
 --------------------------------------------------
      1      1      8     16     -0.3000E+05
      2      1     21     24     -0.5000E+05

      2 WELLS

                 RECHARGE =   0.00000    

 REUSING STREAM SEGMENT DATA FROM LAST STRESS PERIOD
 
 SOLVING FOR HEAD 


     6 CALLS TO PCG ROUTINE FOR TIME STEP   1 IN STRESS PERIOD    7
    23 TOTAL ITERATIONS

 OUTPUT CONTROL FOR STRESS PERIOD    7   TIME STEP    1
    SAVE BUDGET
    SAVE HEAD FOR ALL LAYERS
    PRINT HEAD FOR ALL LAYERS
 UBDSV2 SAVING "STREAMFLOW OUT  " ON UNIT  50 AT TIME STEP  1, STRESS PERIOD   7



 STREAM LISTING     PERIOD      7   STEP        1

 LAYER ROW COL. STREAM  RCH.  FLOW INTO     FLOW TO   FLOW OUT OF   OVRLND.     DIRECT     STREAM       STREAM     STREAM     STREAM   STREAMBED  STREAMBED
                SEG.NO.  NO.  STRM. RCH.    AQUIFER    STRM. RCH.    RUNOFF     PRECIP       ET          HEAD       DEPTH      WIDTH   CONDCTNC.   GRADIENT

   1   13    1     1     1    1.0000E+05 -2.7329E+04   1.2733E+05  0.000E+00  0.000E+00  0.000E+00  4.84176E+01  1.562E-01  2.000E+01  2.000E+04 -1.366E+00
   1   13    2     1     2    1.2733E+05 -3.6940E+04   1.6427E+05  0.000E+00  0.000E+00  0.000E+00  4.79655E+01  1.814E-01  2.000E+01  2.000E+04 -1.847E+00
   1   14    3     1     3    1.6427E+05 -3.2448E+04   1.9672E+05  0.000E+00  0.000E+00  0.000E+00  4.75130E+01  2.062E-01  2.000E+01  2.000E+04 -1.622E+00
   1   15    4     1     4    1.9672E+05 -3.1719E+04   2.2844E+05  0.000E+00  0.000E+00  0.000E+00  4.70570E+01  2.274E-01  2.000E+01  2.000E+04 -1.586E+00
   1   16    5     1     5    2.2844E+05 -3.3320E+04   2.6176E+05  0.000E+00  0.000E+00  0.000E+00  4.66000E+01  2.477E-01  2.000E+01  2.000E+04 -1.666E+00
   1   16    6     1     6    2.6176E+05 -2.9074E+04   2.9083E+05  0.000E+00  0.000E+00  0.000E+00  4.61412E+01  2.662E-01  2.000E+01  2.000E+04 -1.454E+00
   1   16    7     1     7    2.9083E+05 -2.8867E+04   3.1970E+05  0.000E+00  0.000E+00  0.000E+00  4.56803E+01  2.826E-01  2.000E+01  2.000E+04 -1.443E+00
   1   16    8     1     8    3.1970E+05 -2.9015E+04   3.4871E+05  0.000E+00  0.000E+00  0.000E+00  4.52188E+01  2.984E-01  2.000E+01  2.000E+04 -1.451E+00
   1   16    9     1     9    3.4871E+05 -2.9060E+04   3.7777E+05  0.000E+00  0.000E+00  0.000E+00  4.47568E+01  3.136E-01  2.000E+01  2.000E+04 -1.453E+00
   1   16   10     1    10    3.7777E+05 -2.9054E+04   4.0683E+05  0.000E+00  0.000E+00  0.000E+00  4.42944E+01  3.285E-01  2.000E+01  2.000E+04 -1.453E+00
   1   16   11     1    11    4.0683E+05 -2.9614E+04   4.3644E+05  0.000E+00  0.000E+00  0.000E+00  4.38316E+01  3.430E-01  2.000E+01  2.000E+04 -1.481E+00
   1   16   12     1    12    4.3644E+05 -3.4973E+04   4.7141E+05  0.000E+00  0.000E+00  0.000E+00  4.33699E+01  3.585E-01  2.000E+01  2.000E+04 -1.749E+00
   1   15   13     1    13    4.7141E+05 -3.3405E+04   5.0482E+05  0.000E+00  0.000E+00  0.000E+00  4.29086E+01  3.745E-01  2.000E+01  2.000E+04 -1.670E+00
   1   14   14     1    14    5.0482E+05 -3.3623E+04   5.3844E+05  0.000E+00  0.000E+00  0.000E+00  4.24465E+01  3.897E-01  2.000E+01  2.000E+04 -1.681E+00
   1   13   15     1    15    5.3844E+05 -3.5275E+04   5.7372E+05  0.000E+00  0.000E+00  0.000E+00  4.19845E+01  4.050E-01  2.000E+01  2.000E+04 -1.764E+00
   1   12   16     1    16    5.7372E+05 -4.0260E+04   6.1398E+05  0.000E+00  0.000E+00  0.000E+00  4.15235E+01  4.212E-01  2.000E+01  2.000E+04 -2.013E+00
   1   12   17     1    17    6.1398E+05 -3.1510E+04   6.4549E+05  0.000E+00  0.000E+00  0.000E+00  4.10613E+01  4.363E-01  2.000E+01  2.000E+04 -1.575E+00
   1   12   18     1    18    6.4549E+05 -3.0259E+04   6.7575E+05  0.000E+00  0.000E+00  0.000E+00  4.05968E+01  4.490E-01  2.000E+01  2.000E+04 -1.513E+00
   1   12   19     1    19    6.7575E+05 -3.4465E+04   7.1021E+05  0.000E+00  0.000E+00  0.000E+00  4.01326E+01  4.621E-01  2.000E+01  2.000E+04 -1.723E+00
   1   13   20     1    20    7.1021E+05 -2.5376E+04   7.3559E+05  0.000E+00  0.000E+00  0.000E+00  3.96672E+01  4.740E-01  2.000E+01  2.000E+04 -1.269E+00
   1   14   21     1    21    7.3559E+05 -1.8349E+04   7.5394E+05  0.000E+00  0.000E+00  0.000E+00  3.91985E+01  4.825E-01  2.000E+01  2.000E+04 -9.175E-01
   1   14   22     1    22    7.5394E+05 -1.2461E+03   7.5518E+05  0.000E+00  0.000E+00  0.000E+00  3.87250E+01  4.863E-01  2.000E+01  2.000E+04 -6.230E-02
   1    9   30     2     1    5.0000E+04 -2.6216E+04   7.6216E+04  0.000E+00  0.000E+00  0.000E+00  4.02582E+01  1.332E-01  2.000E+01  2.000E+04 -1.311E+00
   1    9   29     2     2    7.6216E+04 -2.8669E+04   1.0489E+05  0.000E+00  0.000E+00  0.000E+00  4.00405E+01  1.655E-01  2.000E+01  2.000E+04 -1.433E+00
   1    9   28     2     3    1.0489E+05 -3.2908E+04   1.3779E+05  0.000E+00  0.000E+00  0.000E+00  3.98222E+01  1.972E-01  2.000E+01  2.000E+04 -1.645E+00
   1    9   27     2     4    1.3779E+05 -4.6841E+04   1.8463E+05  0.000E+00  0.000E+00  0.000E+00  3.96089E+01  2.339E-01  2.000E+01  2.000E+04 -2.342E+00
   1   10   26     2     5    1.8463E+05 -3.2717E+04   2.1735E+05  0.000E+00  0.000E+00  0.000E+00  3.93920E+01  2.670E-01  2.000E+01  2.000E+04 -1.636E+00
   1   11   25     2     6    2.1735E+05 -2.4305E+04   2.4166E+05  0.000E+00  0.000E+00  0.000E+00  3.91641E+01  2.891E-01  2.000E+01  2.000E+04 -1.215E+00
   1   12   24     2     7    2.4166E+05 -1.7722E+04   2.5938E+05  0.000E+00  0.000E+00  0.000E+00  3.89297E+01  3.047E-01  2.000E+01  2.000E+04 -8.861E-01
   1   13   23     2     8    2.5938E+05 -1.2411E+04   2.7179E+05  0.000E+00  0.000E+00  0.000E+00  3.86906E+01  3.156E-01  2.000E+01  2.000E+04 -6.206E-01
   1   14   22     2     9    2.7179E+05 -6.7983E+03   2.7859E+05  0.000E+00  0.000E+00  0.000E+00  3.84474E+01  3.224E-01  2.000E+01  2.000E+04 -3.399E-01
   1   14   22     3     1    1.0338E+06 -1.4843E+04   1.0486E+06  0.000E+00  0.000E+00  0.000E+00  3.80451E+01  4.896E-01  2.000E+01  2.000E+04 -7.422E-01
   1   15   23     3     2    1.0486E+06 -2.1628E+04   1.0702E+06  0.000E+00  0.000E+00  0.000E+00  3.71614E+01  4.947E-01  2.000E+01  2.000E+04 -1.081E+00
   1   15   24     3     3    1.0702E+06 -1.8006E+04   1.0882E+06  0.000E+00  0.000E+00  0.000E+00  3.62780E+01  5.002E-01  2.000E+01  2.000E+04 -9.003E-01
   1   15   25     3     4    1.0882E+06 -1.7797E+04   1.1060E+06  0.000E+00  0.000E+00  0.000E+00  3.53941E+01  5.052E-01  2.000E+01  2.000E+04 -8.898E-01
   1   15   26     3     5    1.1060E+06 -2.0752E+04   1.1268E+06  0.000E+00  0.000E+00  0.000E+00  3.45105E+01  5.105E-01  2.000E+01  2.000E+04 -1.038E+00
   1   16   27     3     6    1.1268E+06 -2.7101E+04   1.1539E+06  0.000E+00  0.000E+00  0.000E+00  3.36281E+01  5.170E-01  2.000E+01  2.000E+04 -1.355E+00
   1   17   28     3     7    1.1539E+06 -3.3826E+04   1.1877E+06  0.000E+00  0.000E+00  0.000E+00  3.27475E+01  5.253E-01  2.000E+01  2.000E+04 -1.691E+00
   1   18   29     3     8    1.1877E+06 -4.4724E+04   1.2324E+06  0.000E+00  0.000E+00  0.000E+00  3.18691E+01  5.358E-01  2.000E+01  2.000E+04 -2.236E+00
   1   18   30     3     9    1.2324E+06 -4.2065E+04   1.2745E+06  0.000E+00  0.000E+00  0.000E+00  3.09917E+01  5.472E-01  2.000E+01  2.000E+04 -2.103E+00



1
              HEAD IN LAYER   1 AT END OF TIME STEP   1 IN STRESS PERIOD    7
  ---------------------------------------------------------------------------

          1      2      3      4      5      6      7      8      9     10
         11     12     13     14     15     16     17     18     19     20
         21     22     23     24     25     26     27     28     29     30
 .........................................................................
   1  ****** ****** ****** ****** ****** ****** ****** ****** ****** ******
      ****** ****** ****** ****** ****** ****** ****** ****** ****** ******
      ****** ****** ****** ****** ****** ****** ****** ****** ****** ******
   2  ****** ****** ****** ****** ****** ****** ****** ****** ****** ******
      ****** ****** ****** ****** ****** ****** ****** ****** ****** ******
      ****** ****** ****** ****** ****** ****** ****** ****** ****** ******
   3  ****** ****** ****** ****** ****** ****** ****** ****** ****** ******
      ****** ****** ****** ****** ****** ****** ****** ****** ****** ******
      ****** ****** ****** ****** ****** ****** ****** ****** ****** ******
   4  ****** ****** ****** ****** ****** ****** ****** ****** ****** ******
      ****** ****** ****** ****** ****** ****** ****** ****** ****** ******
      ****** ****** ****** ****** ****** ****** ****** ****** ****** ******
   5  ****** ****** ****** ****** ****** ****** ****** ****** ****** ******
      ****** ****** ****** ****** ****** ****** ****** ****** ****** ******
      ****** ****** ****** ****** ****** ****** ****** ****** ****** ******
   6  ****** ****** ****** ****** ****** ****** ****** ****** ****** ******
      ****** ****** ****** ****** ****** ****** ****** ****** ****** ******
      ****** ****** ****** ****** ****** ****** ****** ****** ****** ******
   7  ****** ****** ****** ****** ****** ****** ****** ****** ****** ******
      ****** ****** ****** ****** ****** ****** ****** ****** ****** ******
      ****** ****** ****** ****** ****** ****** ****** ****** ****** ******
   8  ****** ****** ****** ****** ****** ****** ****** ****** ****** ******
      ****** ****** ****** ****** ****** ****** ****** ****** ****** ******
      ****** ****** ****** ****** ****** ****** ****** ****** ****** ******
   9  ****** ****** ****** ****** ****** ****** ****** ****** ****** ******
      ****** ****** ****** ****** ****** ****** ****** ****** ****** ******
      ****** ****** ****** ****** ****** ****** ****** ****** ****** ******
  10  ****** ****** ****** ****** ****** ****** ****** ****** ****** ******
      ****** ****** ****** ****** ****** ****** ****** ****** ****** ******
      ****** ****** ****** ****** ****** ****** ****** ****** ****** ******
  11  ****** ****** ****** ****** ****** ****** ****** ****** ****** ******
      ****** ****** ****** ****** ****** ****** ****** ****** ****** ******
      ****** ****** ****** ****** ****** ****** ****** ****** ****** ******
  12  ****** ****** ****** ****** ****** ****** ****** ****** ****** ******
      ****** ****** ****** ****** ****** ****** ****** ****** ****** ******
      ****** ****** ****** ****** ****** ****** ****** ****** ****** ******
  13  ****** ****** ****** ****** ****** ****** ****** ****** ****** ******
      ****** ****** ****** ****** ****** ****** ****** ****** ****** ******
      ****** ****** ****** ****** ****** ****** ****** ****** ****** ******
  14  ****** ****** ****** ****** ****** ****** ****** ****** ****** ******
      ****** ****** ****** ****** ****** ****** ****** ****** ****** ******
      ****** ****** ****** ****** ****** ****** ****** ****** ****** ******
  15  ****** ****** ****** ****** ****** ****** ****** ****** ****** ******
      ****** ****** ****** ****** ****** ****** ****** ****** ****** ******
      ****** ****** ****** ****** ****** ****** ****** ****** ****** ******
  16  ****** ****** ****** ****** ****** ****** ****** ****** ****** ******
      ****** ****** ****** ****** ****** ****** ****** ****** ****** ******
      ****** ****** ****** ****** ****** ****** ****** ****** ****** ******
  17  ****** ****** ****** ****** ****** ****** ****** ****** ****** ******
      ****** ****** ****** ****** ****** ****** ****** ****** ****** ******
      ****** ****** ****** ****** ****** ****** ****** ****** ****** ******
  18  ****** ****** ****** ****** ****** ****** ****** ****** ****** ******
      ****** ****** ****** ****** ****** ****** ****** ****** ****** ******
      ****** ****** ****** ****** ****** ****** ****** ****** ****** ******
  19  ****** ****** ****** ****** ****** ****** ****** ****** ****** ******
      ****** ****** ****** ****** ****** ****** ****** ****** ****** ******
      ****** ****** ****** ****** ****** ****** ****** ****** ****** ******
  20  ****** ****** ****** ****** ****** ****** ****** ****** ****** ******
      ****** ****** ****** ****** ****** ****** ****** ****** ****** ******
      ****** ****** ****** ****** ****** ****** ****** ****** ****** ******
  21  ****** ****** ****** ****** ****** ****** ****** ****** ****** ******
      ****** ****** ****** ****** ****** ****** ****** ****** ****** ******
      ****** ****** ****** ****** ****** ****** ****** ****** ****** ******
  22  ****** ****** ****** ****** ****** ****** ****** ****** ****** ******
      ****** ****** ****** ****** ****** ****** ****** ****** ****** ******
      ****** ****** ****** ****** ****** ****** ****** ****** ****** ******
  23  ****** ****** ****** ****** ****** ****** ****** ****** ****** ******
      ****** ****** ****** ****** ****** ****** ****** ****** ****** ******
      ****** ****** ****** ****** ****** ****** ****** ****** ****** ******
  24  ****** ****** ****** ****** ****** ****** ****** ****** ****** ******
      ****** ****** ****** ****** ****** ****** ****** ****** ****** ******
      ****** ****** ****** ****** ****** ****** ****** ****** ****** ******
  25  ****** ****** ****** ****** ****** ****** ****** ****** ****** ******
      ****** ****** ****** ****** ****** ****** ****** ****** ****** ******
      ****** ****** ****** ****** ****** ****** ****** ****** ****** ******

 HEAD WILL BE SAVED ON UNIT   51 AT END OF TIME STEP    1, STRESS PERIOD    7
1
  VOLUMETRIC BUDGET FOR ENTIRE MODEL AT END OF TIME STEP    1, STRESS PERIOD   7
  ------------------------------------------------------------------------------

     CUMULATIVE VOLUMES      L**3       RATES FOR THIS TIME STEP      L**3/T
     ------------------                 ------------------------

           IN:                                      IN:
           ---                                      ---
             STORAGE =    21016223.0783               STORAGE =        4198.2496
       CONSTANT HEAD =   757902825.4841         CONSTANT HEAD =     1201236.4643
               WELLS =           0.0000                 WELLS =           0.0000
            RECHARGE =    15097200.0000              RECHARGE =           0.0000
      STREAM LEAKAGE =           0.0000        STREAM LEAKAGE =           0.0000

            TOTAL IN =   794016248.5624              TOTAL IN =     1205434.7140

          OUT:                                     OUT:
          ----                                     ----
             STORAGE =      757377.1920               STORAGE =         923.6613
       CONSTANT HEAD =           0.0000         CONSTANT HEAD =           0.0000
               WELLS =    51120000.0000                 WELLS =       80000.0000
            RECHARGE =           0.0000              RECHARGE =           0.0000
      STREAM LEAKAGE =   742138880.1956        STREAM LEAKAGE =     1124511.0931

           TOTAL OUT =   794016257.3877             TOTAL OUT =     1205434.7544

            IN - OUT =          -8.8253              IN - OUT =      -4.0390E-02

 PERCENT DISCREPANCY =          -0.00     PERCENT DISCREPANCY =          -0.00






         TIME SUMMARY AT END OF TIME STEP    1 IN STRESS PERIOD    7
                    SECONDS     MINUTES      HOURS       DAYS        YEARS
                    -----------------------------------------------------------
   TIME STEP LENGTH 7.86240E+06 1.31040E+05  2184.0      91.000     0.24914    
 STRESS PERIOD TIME 7.86240E+06 1.31040E+05  2184.0      91.000     0.24914    
         TOTAL TIME 5.52096E+07 9.20160E+05  15336.      639.00      1.7495    
1
1
                            STRESS PERIOD NO.    8, LENGTH =   91.00000    
                            -----------------------------------------------

                              NUMBER OF TIME STEPS =     1

                               MULTIPLIER FOR DELT =     1.500

                            INITIAL TIME STEP SIZE =   91.00000    

 WELL NO.  LAYER   ROW   COL   STRESS RATE         
 --------------------------------------------------
      1      1      8     16     -0.3000E+05
      2      1     21     24     -0.3807E+05
      3      1     23     11     -0.1193E+05

      3 WELLS

                 RECHARGE =  1.000000E-03

 REUSING STREAM SEGMENT DATA FROM LAST STRESS PERIOD
 
 SOLVING FOR HEAD 


     6 CALLS TO PCG ROUTINE FOR TIME STEP   1 IN STRESS PERIOD    8
    22 TOTAL ITERATIONS

 OUTPUT CONTROL FOR STRESS PERIOD    8   TIME STEP    1
    SAVE BUDGET
    SAVE HEAD FOR ALL LAYERS
    PRINT HEAD FOR ALL LAYERS
 UBDSV2 SAVING "STREAMFLOW OUT  " ON UNIT  50 AT TIME STEP  1, STRESS PERIOD   8



 STREAM LISTING     PERIOD      8   STEP        1

 LAYER ROW COL. STREAM  RCH.  FLOW INTO     FLOW TO   FLOW OUT OF   OVRLND.     DIRECT     STREAM       STREAM     STREAM     STREAM   STREAMBED  STREAMBED
                SEG.NO.  NO.  STRM. RCH.    AQUIFER    STRM. RCH.    RUNOFF     PRECIP       ET          HEAD       DEPTH      WIDTH   CONDCTNC.   GRADIENT

   1   13    1     1     1    1.0000E+05 -2.7710E+04   1.2771E+05  0.000E+00  0.000E+00  0.000E+00  4.84177E+01  1.564E-01  2.000E+01  2.000E+04 -1.386E+00
   1   13    2     1     2    1.2771E+05 -3.7396E+04   1.6511E+05  0.000E+00  0.000E+00  0.000E+00  4.79659E+01  1.818E-01  2.000E+01  2.000E+04 -1.870E+00
   1   14    3     1     3    1.6511E+05 -3.2887E+04   1.9799E+05  0.000E+00  0.000E+00  0.000E+00  4.75137E+01  2.069E-01  2.000E+01  2.000E+04 -1.644E+00
   1   15    4     1     4    1.9799E+05 -3.2126E+04   2.3012E+05  0.000E+00  0.000E+00  0.000E+00  4.70579E+01  2.284E-01  2.000E+01  2.000E+04 -1.606E+00
   1   16    5     1     5    2.3012E+05 -3.3648E+04   2.6377E+05  0.000E+00  0.000E+00  0.000E+00  4.66011E+01  2.488E-01  2.000E+01  2.000E+04 -1.682E+00
   1   16    6     1     6    2.6377E+05 -2.9344E+04   2.9311E+05  0.000E+00  0.000E+00  0.000E+00  4.61424E+01  2.674E-01  2.000E+01  2.000E+04 -1.467E+00
   1   16    7     1     7    2.9311E+05 -2.9115E+04   3.2223E+05  0.000E+00  0.000E+00  0.000E+00  4.56816E+01  2.839E-01  2.000E+01  2.000E+04 -1.456E+00
   1   16    8     1     8    3.2223E+05 -2.9242E+04   3.5147E+05  0.000E+00  0.000E+00  0.000E+00  4.52202E+01  2.998E-01  2.000E+01  2.000E+04 -1.462E+00
   1   16    9     1     9    3.5147E+05 -2.9267E+04   3.8074E+05  0.000E+00  0.000E+00  0.000E+00  4.47583E+01  3.151E-01  2.000E+01  2.000E+04 -1.463E+00
   1   16   10     1    10    3.8074E+05 -2.9245E+04   4.0998E+05  0.000E+00  0.000E+00  0.000E+00  4.42959E+01  3.300E-01  2.000E+01  2.000E+04 -1.462E+00
   1   16   11     1    11    4.0998E+05 -2.9803E+04   4.3978E+05  0.000E+00  0.000E+00  0.000E+00  4.38332E+01  3.446E-01  2.000E+01  2.000E+04 -1.490E+00
   1   16   12     1    12    4.3978E+05 -3.5206E+04   4.7499E+05  0.000E+00  0.000E+00  0.000E+00  4.33715E+01  3.602E-01  2.000E+01  2.000E+04 -1.760E+00
   1   15   13     1    13    4.7499E+05 -3.3784E+04   5.0877E+05  0.000E+00  0.000E+00  0.000E+00  4.29103E+01  3.762E-01  2.000E+01  2.000E+04 -1.689E+00
   1   14   14     1    14    5.0877E+05 -3.4067E+04   5.4284E+05  0.000E+00  0.000E+00  0.000E+00  4.24484E+01  3.916E-01  2.000E+01  2.000E+04 -1.703E+00
   1   13   15     1    15    5.4284E+05 -3.5739E+04   5.7858E+05  0.000E+00  0.000E+00  0.000E+00  4.19865E+01  4.070E-01  2.000E+01  2.000E+04 -1.787E+00
   1   12   16     1    16    5.7858E+05 -4.0711E+04   6.1929E+05  0.000E+00  0.000E+00  0.000E+00  4.15257E+01  4.234E-01  2.000E+01  2.000E+04 -2.036E+00
   1   12   17     1    17    6.1929E+05 -3.1885E+04   6.5118E+05  0.000E+00  0.000E+00  0.000E+00  4.10636E+01  4.386E-01  2.000E+01  2.000E+04 -1.594E+00
   1   12   18     1    18    6.5118E+05 -3.0627E+04   6.8180E+05  0.000E+00  0.000E+00  0.000E+00  4.05992E+01  4.514E-01  2.000E+01  2.000E+04 -1.531E+00
   1   12   19     1    19    6.8180E+05 -3.4870E+04   7.1667E+05  0.000E+00  0.000E+00  0.000E+00  4.01351E+01  4.646E-01  2.000E+01  2.000E+04 -1.744E+00
   1   13   20     1    20    7.1667E+05 -2.5799E+04   7.4247E+05  0.000E+00  0.000E+00  0.000E+00  3.96698E+01  4.766E-01  2.000E+01  2.000E+04 -1.290E+00
   1   14   21     1    21    7.4247E+05 -1.8796E+04   7.6127E+05  0.000E+00  0.000E+00  0.000E+00  3.92012E+01  4.853E-01  2.000E+01  2.000E+04 -9.398E-01
   1   14   22     1    22    7.6127E+05 -1.4208E+03   7.6269E+05  0.000E+00  0.000E+00  0.000E+00  3.87278E+01  4.892E-01  2.000E+01  2.000E+04 -7.104E-02
   1    9   30     2     1    5.0000E+04 -2.6505E+04   7.6505E+04  0.000E+00  0.000E+00  0.000E+00  4.02584E+01  1.334E-01  2.000E+01  2.000E+04 -1.325E+00
   1    9   29     2     2    7.6505E+04 -2.8957E+04   1.0546E+05  0.000E+00  0.000E+00  0.000E+00  4.00409E+01  1.659E-01  2.000E+01  2.000E+04 -1.448E+00
   1    9   28     2     3    1.0546E+05 -3.3204E+04   1.3867E+05  0.000E+00  0.000E+00  0.000E+00  3.98229E+01  1.979E-01  2.000E+01  2.000E+04 -1.660E+00
   1    9   27     2     4    1.3867E+05 -4.7200E+04   1.8586E+05  0.000E+00  0.000E+00  0.000E+00  3.96098E+01  2.348E-01  2.000E+01  2.000E+04 -2.360E+00
   1   10   26     2     5    1.8586E+05 -3.3094E+04   2.1896E+05  0.000E+00  0.000E+00  0.000E+00  3.93931E+01  2.681E-01  2.000E+01  2.000E+04 -1.655E+00
   1   11   25     2     6    2.1896E+05 -2.4674E+04   2.4363E+05  0.000E+00  0.000E+00  0.000E+00  3.91655E+01  2.905E-01  2.000E+01  2.000E+04 -1.234E+00
   1   12   24     2     7    2.4363E+05 -1.8062E+04   2.6170E+05  0.000E+00  0.000E+00  0.000E+00  3.89313E+01  3.063E-01  2.000E+01  2.000E+04 -9.031E-01
   1   13   23     2     8    2.6170E+05 -1.2708E+04   2.7440E+05  0.000E+00  0.000E+00  0.000E+00  3.86923E+01  3.173E-01  2.000E+01  2.000E+04 -6.354E-01
   1   14   22     2     9    2.7440E+05 -6.9922E+03   2.8140E+05  0.000E+00  0.000E+00  0.000E+00  3.84493E+01  3.243E-01  2.000E+01  2.000E+04 -3.496E-01
   1   14   22     3     1    1.0441E+06 -1.5016E+04   1.0591E+06  0.000E+00  0.000E+00  0.000E+00  3.80481E+01  4.925E-01  2.000E+01  2.000E+04 -7.508E-01
   1   15   23     3     2    1.0591E+06 -2.2243E+04   1.0813E+06  0.000E+00  0.000E+00  0.000E+00  3.71644E+01  4.977E-01  2.000E+01  2.000E+04 -1.112E+00
   1   15   24     3     3    1.0813E+06 -1.8529E+04   1.0999E+06  0.000E+00  0.000E+00  0.000E+00  3.62812E+01  5.034E-01  2.000E+01  2.000E+04 -9.265E-01
   1   15   25     3     4    1.0999E+06 -1.8288E+04   1.1182E+06  0.000E+00  0.000E+00  0.000E+00  3.53974E+01  5.085E-01  2.000E+01  2.000E+04 -9.144E-01
   1   15   26     3     5    1.1182E+06 -2.1239E+04   1.1394E+06  0.000E+00  0.000E+00  0.000E+00  3.45139E+01  5.139E-01  2.000E+01  2.000E+04 -1.062E+00
   1   16   27     3     6    1.1394E+06 -2.7797E+04   1.1672E+06  0.000E+00  0.000E+00  0.000E+00  3.36317E+01  5.206E-01  2.000E+01  2.000E+04 -1.390E+00
   1   17   28     3     7    1.1672E+06 -3.4595E+04   1.2018E+06  0.000E+00  0.000E+00  0.000E+00  3.27512E+01  5.290E-01  2.000E+01  2.000E+04 -1.730E+00
   1   18   29     3     8    1.2018E+06 -4.5491E+04   1.2473E+06  0.000E+00  0.000E+00  0.000E+00  3.18729E+01  5.396E-01  2.000E+01  2.000E+04 -2.275E+00
   1   18   30     3     9    1.2473E+06 -4.2607E+04   1.2899E+06  0.000E+00  0.000E+00  0.000E+00  3.09956E+01  5.512E-01  2.000E+01  2.000E+04 -2.130E+00



1
              HEAD IN LAYER   1 AT END OF TIME STEP   1 IN STRESS PERIOD    8
  ---------------------------------------------------------------------------

          1      2      3      4      5      6      7      8      9     10
         11     12     13     14     15     16     17     18     19     20
         21     22     23     24     25     26     27     28     29     30
 .........................................................................
   1  ****** ****** ****** ****** ****** ****** ****** ****** ****** ******
      ****** ****** ****** ****** ****** ****** ****** ****** ****** ******
      ****** ****** ****** ****** ****** ****** ****** ****** ****** ******
   2  ****** ****** ****** ****** ****** ****** ****** ****** ****** ******
      ****** ****** ****** ****** ****** ****** ****** ****** ****** ******
      ****** ****** ****** ****** ****** ****** ****** ****** ****** ******
   3  ****** ****** ****** ****** ****** ****** ****** ****** ****** ******
      ****** ****** ****** ****** ****** ****** ****** ****** ****** ******
      ****** ****** ****** ****** ****** ****** ****** ****** ****** ******
   4  ****** ****** ****** ****** ****** ****** ****** ****** ****** ******
      ****** ****** ****** ****** ****** ****** ****** ****** ****** ******
      ****** ****** ****** ****** ****** ****** ****** ****** ****** ******
   5  ****** ****** ****** ****** ****** ****** ****** ****** ****** ******
      ****** ****** ****** ****** ****** ****** ****** ****** ****** ******
      ****** ****** ****** ****** ****** ****** ****** ****** ****** ******
   6  ****** ****** ****** ****** ****** ****** ****** ****** ****** ******
      ****** ****** ****** ****** ****** ****** ****** ****** ****** ******
      ****** ****** ****** ****** ****** ****** ****** ****** ****** ******
   7  ****** ****** ****** ****** ****** ****** ****** ****** ****** ******
      ****** ****** ****** ****** ****** ****** ****** ****** ****** ******
      ****** ****** ****** ****** ****** ****** ****** ****** ****** ******
   8  ****** ****** ****** ****** ****** ****** ****** ****** ****** ******
      ****** ****** ****** ****** ****** ****** ****** ****** ****** ******
      ****** ****** ****** ****** ****** ****** ****** ****** ****** ******
   9  ****** ****** ****** ****** ****** ****** ****** ****** ****** ******
      ****** ****** ****** ****** ****** ****** ****** ****** ****** ******
      ****** ****** ****** ****** ****** ****** ****** ****** ****** ******
  10  ****** ****** ****** ****** ****** ****** ****** ****** ****** ******
      ****** ****** ****** ****** ****** ****** ****** ****** ****** ******
      ****** ****** ****** ****** ****** ****** ****** ****** ****** ******
  11  ****** ****** ****** ****** ****** ****** ****** ****** ****** ******
      ****** ****** ****** ****** ****** ****** ****** ****** ****** ******
      ****** ****** ****** ****** ****** ****** ****** ****** ****** ******
  12  ****** ****** ****** ****** ****** ****** ****** ****** ****** ******
      ****** ****** ****** ****** ****** ****** ****** ****** ****** ******
      ****** ****** ****** ****** ****** ****** ****** ****** ****** ******
  13  ****** ****** ****** ****** ****** ****** ****** ****** ****** ******
      ****** ****** ****** ****** ****** ****** ****** ****** ****** ******
      ****** ****** ****** ****** ****** ****** ****** ****** ****** ******
  14  ****** ****** ****** ****** ****** ****** ****** ****** ****** ******
      ****** ****** ****** ****** ****** ****** ****** ****** ****** ******
      ****** ****** ****** ****** ****** ****** ****** ****** ****** ******
  15  ****** ****** ****** ****** ****** ****** ****** ****** ****** ******
      ****** ****** ****** ****** ****** ****** ****** ****** ****** ******
      ****** ****** ****** ****** ****** ****** ****** ****** ****** ******
  16  ****** ****** ****** ****** ****** ****** ****** ****** ****** ******
      ****** ****** ****** ****** ****** ****** ****** ****** ****** ******
      ****** ****** ****** ****** ****** ****** ****** ****** ****** ******
  17  ****** ****** ****** ****** ****** ****** ****** ****** ****** ******
      ****** ****** ****** ****** ****** ****** ****** ****** ****** ******
      ****** ****** ****** ****** ****** ****** ****** ****** ****** ******
  18  ****** ****** ****** ****** ****** ****** ****** ****** ****** ******
      ****** ****** ****** ****** ****** ****** ****** ****** ****** ******
      ****** ****** ****** ****** ****** ****** ****** ****** ****** ******
  19  ****** ****** ****** ****** ****** ****** ****** ****** ****** ******
      ****** ****** ****** ****** ****** ****** ****** ****** ****** ******
      ****** ****** ****** ****** ****** ****** ****** ****** ****** ******
  20  ****** ****** ****** ****** ****** ****** ****** ****** ****** ******
      ****** ****** ****** ****** ****** ****** ****** ****** ****** ******
      ****** ****** ****** ****** ****** ****** ****** ****** ****** ******
  21  ****** ****** ****** ****** ****** ****** ****** ****** ****** ******
      ****** ****** ****** ****** ****** ****** ****** ****** ****** ******
      ****** ****** ****** ****** ****** ****** ****** ****** ****** ******
  22  ****** ****** ****** ****** ****** ****** ****** ****** ****** ******
      ****** ****** ****** ****** ****** ****** ****** ****** ****** ******
      ****** ****** ****** ****** ****** ****** ****** ****** ****** ******
  23  ****** ****** ****** ****** ****** ****** ****** ****** ****** ******
      ****** ****** ****** ****** ****** ****** ****** ****** ****** ******
      ****** ****** ****** ****** ****** ****** ****** ****** ****** ******
  24  ****** ****** ****** ****** ****** ****** ****** ****** ****** ******
      ****** ****** ****** ****** ****** ****** ****** ****** ****** ******
      ****** ****** ****** ****** ****** ****** ****** ****** ****** ******
  25  ****** ****** ****** ****** ****** ****** ****** ****** ****** ******
      ****** ****** ****** ****** ****** ****** ****** ****** ****** ******
      ****** ****** ****** ****** ****** ****** ****** ****** ****** ******

 HEAD WILL BE SAVED ON UNIT   51 AT END OF TIME STEP    1, STRESS PERIOD    8
1
  VOLUMETRIC BUDGET FOR ENTIRE MODEL AT END OF TIME STEP    1, STRESS PERIOD   8
  ------------------------------------------------------------------------------

     CUMULATIVE VOLUMES      L**3       RATES FOR THIS TIME STEP      L**3/T
     ------------------                 ------------------------

           IN:                                      IN:
           ---                                      ---
             STORAGE =    21029702.1811               STORAGE =         148.1220
       CONSTANT HEAD =   866521611.6567         CONSTANT HEAD =     1193613.0349
               WELLS =           0.0000                 WELLS =           0.0000
            RECHARGE =    17608800.0000              RECHARGE =       27600.0000
      STREAM LEAKAGE =           0.0000        STREAM LEAKAGE =           0.0000

            TOTAL IN =   905160113.8378              TOTAL IN =     1221361.1569

          OUT:                                     OUT:
          ----                                     ----
             STORAGE =      891247.3122               STORAGE =        1471.1002
       CONSTANT HEAD =           0.0000         CONSTANT HEAD =           0.0000
               WELLS =    58400000.0000                 WELLS =       80000.0000
            RECHARGE =           0.0000              RECHARGE =           0.0000
      STREAM LEAKAGE =   845868873.2625        STREAM LEAKAGE =     1139890.0337

           TOTAL OUT =   905160120.5747             TOTAL OUT =     1221361.1339

            IN - OUT =          -6.7369              IN - OUT =       2.2950E-02

 PERCENT DISCREPANCY =          -0.00     PERCENT DISCREPANCY =           0.00






         TIME SUMMARY AT END OF TIME STEP    1 IN STRESS PERIOD    8
                    SECONDS     MINUTES      HOURS       DAYS        YEARS
                    -----------------------------------------------------------
   TIME STEP LENGTH 7.86240E+06 1.31040E+05  2184.0      91.000     0.24914    
 STRESS PERIOD TIME 7.86240E+06 1.31040E+05  2184.0      91.000     0.24914    
         TOTAL TIME 6.30720E+07 1.05120E+06  17520.      730.00      1.9986    
1
1
                            STRESS PERIOD NO.    9, LENGTH =   92.00000    
                            -----------------------------------------------

                              NUMBER OF TIME STEPS =     1

                               MULTIPLIER FOR DELT =     1.500

                            INITIAL TIME STEP SIZE =   92.00000    

 WELL NO.  LAYER   ROW   COL   STRESS RATE         
 --------------------------------------------------
      1      1      8     16     -0.3000E+05
      2      1     21     24     -0.5000E+05

      2 WELLS

                 RECHARGE =  5.000000E-04

 REUSING STREAM SEGMENT DATA FROM LAST STRESS PERIOD
 
 SOLVING FOR HEAD 


     5 CALLS TO PCG ROUTINE FOR TIME STEP   1 IN STRESS PERIOD    9
    20 TOTAL ITERATIONS

 OUTPUT CONTROL FOR STRESS PERIOD    9   TIME STEP    1
    SAVE BUDGET
    SAVE HEAD FOR ALL LAYERS
    PRINT HEAD FOR ALL LAYERS
 UBDSV2 SAVING "STREAMFLOW OUT  " ON UNIT  50 AT TIME STEP  1, STRESS PERIOD   9



 STREAM LISTING     PERIOD      9   STEP        1

 LAYER ROW COL. STREAM  RCH.  FLOW INTO     FLOW TO   FLOW OUT OF   OVRLND.     DIRECT     STREAM       STREAM     STREAM     STREAM   STREAMBED  STREAMBED
                SEG.NO.  NO.  STRM. RCH.    AQUIFER    STRM. RCH.    RUNOFF     PRECIP       ET          HEAD       DEPTH      WIDTH   CONDCTNC.   GRADIENT

   1   13    1     1     1    1.0000E+05 -2.7530E+04   1.2753E+05  0.000E+00  0.000E+00  0.000E+00  4.84177E+01  1.563E-01  2.000E+01  2.000E+04 -1.376E+00
   1   13    2     1     2    1.2753E+05 -3.7178E+04   1.6471E+05  0.000E+00  0.000E+00  0.000E+00  4.79657E+01  1.816E-01  2.000E+01  2.000E+04 -1.859E+00
   1   14    3     1     3    1.6471E+05 -3.2689E+04   1.9740E+05  0.000E+00  0.000E+00  0.000E+00  4.75134E+01  2.065E-01  2.000E+01  2.000E+04 -1.634E+00
   1   15    4     1     4    1.9740E+05 -3.1957E+04   2.2935E+05  0.000E+00  0.000E+00  0.000E+00  4.70575E+01  2.279E-01  2.000E+01  2.000E+04 -1.598E+00
   1   16    5     1     5    2.2935E+05 -3.3547E+04   2.6290E+05  0.000E+00  0.000E+00  0.000E+00  4.66006E+01  2.483E-01  2.000E+01  2.000E+04 -1.677E+00
   1   16    6     1     6    2.6290E+05 -2.9272E+04   2.9217E+05  0.000E+00  0.000E+00  0.000E+00  4.61419E+01  2.669E-01  2.000E+01  2.000E+04 -1.464E+00
   1   16    7     1     7    2.9217E+05 -2.9064E+04   3.2124E+05  0.000E+00  0.000E+00  0.000E+00  4.56811E+01  2.834E-01  2.000E+01  2.000E+04 -1.453E+00
   1   16    8     1     8    3.2124E+05 -2.9214E+04   3.5045E+05  0.000E+00  0.000E+00  0.000E+00  4.52197E+01  2.992E-01  2.000E+01  2.000E+04 -1.461E+00
   1   16    9     1     9    3.5045E+05 -2.9262E+04   3.7971E+05  0.000E+00  0.000E+00  0.000E+00  4.47578E+01  3.146E-01  2.000E+01  2.000E+04 -1.463E+00
   1   16   10     1    10    3.7971E+05 -2.9256E+04   4.0897E+05  0.000E+00  0.000E+00  0.000E+00  4.42954E+01  3.295E-01  2.000E+01  2.000E+04 -1.463E+00
   1   16   11     1    11    4.0897E+05 -2.9818E+04   4.3879E+05  0.000E+00  0.000E+00  0.000E+00  4.38327E+01  3.441E-01  2.000E+01  2.000E+04 -1.491E+00
   1   16   12     1    12    4.3879E+05 -3.5206E+04   4.7399E+05  0.000E+00  0.000E+00  0.000E+00  4.33711E+01  3.597E-01  2.000E+01  2.000E+04 -1.760E+00
   1   15   13     1    13    4.7399E+05 -3.3640E+04   5.0763E+05  0.000E+00  0.000E+00  0.000E+00  4.29098E+01  3.757E-01  2.000E+01  2.000E+04 -1.682E+00
   1   14   14     1    14    5.0763E+05 -3.3854E+04   5.4149E+05  0.000E+00  0.000E+00  0.000E+00  4.24478E+01  3.910E-01  2.000E+01  2.000E+04 -1.693E+00
   1   13   15     1    15    5.4149E+05 -3.5500E+04   5.7699E+05  0.000E+00  0.000E+00  0.000E+00  4.19859E+01  4.063E-01  2.000E+01  2.000E+04 -1.775E+00
   1   12   16     1    16    5.7699E+05 -4.0476E+04   6.1746E+05  0.000E+00  0.000E+00  0.000E+00  4.15249E+01  4.227E-01  2.000E+01  2.000E+04 -2.024E+00
   1   12   17     1    17    6.1746E+05 -3.1682E+04   6.4915E+05  0.000E+00  0.000E+00  0.000E+00  4.10628E+01  4.378E-01  2.000E+01  2.000E+04 -1.584E+00
   1   12   18     1    18    6.4915E+05 -3.0423E+04   6.7957E+05  0.000E+00  0.000E+00  0.000E+00  4.05983E+01  4.506E-01  2.000E+01  2.000E+04 -1.521E+00
   1   12   19     1    19    6.7957E+05 -3.4644E+04   7.1421E+05  0.000E+00  0.000E+00  0.000E+00  4.01341E+01  4.637E-01  2.000E+01  2.000E+04 -1.732E+00
   1   13   20     1    20    7.1421E+05 -2.5534E+04   7.3975E+05  0.000E+00  0.000E+00  0.000E+00  3.96688E+01  4.756E-01  2.000E+01  2.000E+04 -1.277E+00
   1   14   21     1    21    7.3975E+05 -1.8466E+04   7.5821E+05  0.000E+00  0.000E+00  0.000E+00  3.92001E+01  4.842E-01  2.000E+01  2.000E+04 -9.233E-01
   1   14   22     1    22    7.5821E+05 -1.2858E+03   7.5950E+05  0.000E+00  0.000E+00  0.000E+00  3.87266E+01  4.880E-01  2.000E+01  2.000E+04 -6.429E-02
   1    9   30     2     1    5.0000E+04 -2.6353E+04   7.6353E+04  0.000E+00  0.000E+00  0.000E+00  4.02583E+01  1.333E-01  2.000E+01  2.000E+04 -1.318E+00
   1    9   29     2     2    7.6353E+04 -2.8806E+04   1.0516E+05  0.000E+00  0.000E+00  0.000E+00  4.00407E+01  1.657E-01  2.000E+01  2.000E+04 -1.440E+00
   1    9   28     2     3    1.0516E+05 -3.3049E+04   1.3821E+05  0.000E+00  0.000E+00  0.000E+00  3.98226E+01  1.976E-01  2.000E+01  2.000E+04 -1.652E+00
   1    9   27     2     4    1.3821E+05 -4.7015E+04   1.8522E+05  0.000E+00  0.000E+00  0.000E+00  3.96093E+01  2.343E-01  2.000E+01  2.000E+04 -2.351E+00
   1   10   26     2     5    1.8522E+05 -3.2895E+04   2.1812E+05  0.000E+00  0.000E+00  0.000E+00  3.93925E+01  2.675E-01  2.000E+01  2.000E+04 -1.645E+00
   1   11   25     2     6    2.1812E+05 -2.4476E+04   2.4259E+05  0.000E+00  0.000E+00  0.000E+00  3.91647E+01  2.897E-01  2.000E+01  2.000E+04 -1.224E+00
   1   12   24     2     7    2.4259E+05 -1.7873E+04   2.6047E+05  0.000E+00  0.000E+00  0.000E+00  3.89304E+01  3.054E-01  2.000E+01  2.000E+04 -8.936E-01
   1   13   23     2     8    2.6047E+05 -1.2530E+04   2.7300E+05  0.000E+00  0.000E+00  0.000E+00  3.86914E+01  3.164E-01  2.000E+01  2.000E+04 -6.265E-01
   1   14   22     2     9    2.7300E+05 -6.8538E+03   2.7985E+05  0.000E+00  0.000E+00  0.000E+00  3.84482E+01  3.232E-01  2.000E+01  2.000E+04 -3.427E-01
   1   14   22     3     1    1.0394E+06 -1.4884E+04   1.0542E+06  0.000E+00  0.000E+00  0.000E+00  3.80467E+01  4.912E-01  2.000E+01  2.000E+04 -7.442E-01
   1   15   23     3     2    1.0542E+06 -2.1706E+04   1.0759E+06  0.000E+00  0.000E+00  0.000E+00  3.71630E+01  4.963E-01  2.000E+01  2.000E+04 -1.085E+00
   1   15   24     3     3    1.0759E+06 -1.8072E+04   1.0940E+06  0.000E+00  0.000E+00  0.000E+00  3.62796E+01  5.018E-01  2.000E+01  2.000E+04 -9.036E-01
   1   15   25     3     4    1.0940E+06 -1.7869E+04   1.1119E+06  0.000E+00  0.000E+00  0.000E+00  3.53957E+01  5.068E-01  2.000E+01  2.000E+04 -8.935E-01
   1   15   26     3     5    1.1119E+06 -2.0850E+04   1.1327E+06  0.000E+00  0.000E+00  0.000E+00  3.45121E+01  5.121E-01  2.000E+01  2.000E+04 -1.043E+00
   1   16   27     3     6    1.1327E+06 -2.7200E+04   1.1599E+06  0.000E+00  0.000E+00  0.000E+00  3.36298E+01  5.187E-01  2.000E+01  2.000E+04 -1.360E+00
   1   17   28     3     7    1.1599E+06 -3.3917E+04   1.1939E+06  0.000E+00  0.000E+00  0.000E+00  3.27491E+01  5.269E-01  2.000E+01  2.000E+04 -1.696E+00
   1   18   29     3     8    1.1939E+06 -4.4796E+04   1.2386E+06  0.000E+00  0.000E+00  0.000E+00  3.18708E+01  5.374E-01  2.000E+01  2.000E+04 -2.240E+00
   1   18   30     3     9    1.2386E+06 -4.2139E+04   1.2808E+06  0.000E+00  0.000E+00  0.000E+00  3.09933E+01  5.489E-01  2.000E+01  2.000E+04 -2.107E+00



1
              HEAD IN LAYER   1 AT END OF TIME STEP   1 IN STRESS PERIOD    9
  ---------------------------------------------------------------------------

          1      2      3      4      5      6      7      8      9     10
         11     12     13     14     15     16     17     18     19     20
         21     22     23     24     25     26     27     28     29     30
 .........................................................................
   1  ****** ****** ****** ****** ****** ****** ****** ****** ****** ******
      ****** ****** ****** ****** ****** ****** ****** ****** ****** ******
      ****** ****** ****** ****** ****** ****** ****** ****** ****** ******
   2  ****** ****** ****** ****** ****** ****** ****** ****** ****** ******
      ****** ****** ****** ****** ****** ****** ****** ****** ****** ******
      ****** ****** ****** ****** ****** ****** ****** ****** ****** ******
   3  ****** ****** ****** ****** ****** ****** ****** ****** ****** ******
      ****** ****** ****** ****** ****** ****** ****** ****** ****** ******
      ****** ****** ****** ****** ****** ****** ****** ****** ****** ******
   4  ****** ****** ****** ****** ****** ****** ****** ****** ****** ******
      ****** ****** ****** ****** ****** ****** ****** ****** ****** ******
      ****** ****** ****** ****** ****** ****** ****** ****** ****** ******
   5  ****** ****** ****** ****** ****** ****** ****** ****** ****** ******
      ****** ****** ****** ****** ****** ****** ****** ****** ****** ******
      ****** ****** ****** ****** ****** ****** ****** ****** ****** ******
   6  ****** ****** ****** ****** ****** ****** ****** ****** ****** ******
      ****** ****** ****** ****** ****** ****** ****** ****** ****** ******
      ****** ****** ****** ****** ****** ****** ****** ****** ****** ******
   7  ****** ****** ****** ****** ****** ****** ****** ****** ****** ******
      ****** ****** ****** ****** ****** ****** ****** ****** ****** ******
      ****** ****** ****** ****** ****** ****** ****** ****** ****** ******
   8  ****** ****** ****** ****** ****** ****** ****** ****** ****** ******
      ****** ****** ****** ****** ****** ****** ****** ****** ****** ******
      ****** ****** ****** ****** ****** ****** ****** ****** ****** ******
   9  ****** ****** ****** ****** ****** ****** ****** ****** ****** ******
      ****** ****** ****** ****** ****** ****** ****** ****** ****** ******
      ****** ****** ****** ****** ****** ****** ****** ****** ****** ******
  10  ****** ****** ****** ****** ****** ****** ****** ****** ****** ******
      ****** ****** ****** ****** ****** ****** ****** ****** ****** ******
      ****** ****** ****** ****** ****** ****** ****** ****** ****** ******
  11  ****** ****** ****** ****** ****** ****** ****** ****** ****** ******
      ****** ****** ****** ****** ****** ****** ****** ****** ****** ******
      ****** ****** ****** ****** ****** ****** ****** ****** ****** ******
  12  ****** ****** ****** ****** ****** ****** ****** ****** ****** ******
      ****** ****** ****** ****** ****** ****** ****** ****** ****** ******
      ****** ****** ****** ****** ****** ****** ****** ****** ****** ******
  13  ****** ****** ****** ****** ****** ****** ****** ****** ****** ******
      ****** ****** ****** ****** ****** ****** ****** ****** ****** ******
      ****** ****** ****** ****** ****** ****** ****** ****** ****** ******
  14  ****** ****** ****** ****** ****** ****** ****** ****** ****** ******
      ****** ****** ****** ****** ****** ****** ****** ****** ****** ******
      ****** ****** ****** ****** ****** ****** ****** ****** ****** ******
  15  ****** ****** ****** ****** ****** ****** ****** ****** ****** ******
      ****** ****** ****** ****** ****** ****** ****** ****** ****** ******
      ****** ****** ****** ****** ****** ****** ****** ****** ****** ******
  16  ****** ****** ****** ****** ****** ****** ****** ****** ****** ******
      ****** ****** ****** ****** ****** ****** ****** ****** ****** ******
      ****** ****** ****** ****** ****** ****** ****** ****** ****** ******
  17  ****** ****** ****** ****** ****** ****** ****** ****** ****** ******
      ****** ****** ****** ****** ****** ****** ****** ****** ****** ******
      ****** ****** ****** ****** ****** ****** ****** ****** ****** ******
  18  ****** ****** ****** ****** ****** ****** ****** ****** ****** ******
      ****** ****** ****** ****** ****** ****** ****** ****** ****** ******
      ****** ****** ****** ****** ****** ****** ****** ****** ****** ******
  19  ****** ****** ****** ****** ****** ****** ****** ****** ****** ******
      ****** ****** ****** ****** ****** ****** ****** ****** ****** ******
      ****** ****** ****** ****** ****** ****** ****** ****** ****** ******
  20  ****** ****** ****** ****** ****** ****** ****** ****** ****** ******
      ****** ****** ****** ****** ****** ****** ****** ****** ****** ******
      ****** ****** ****** ****** ****** ****** ****** ****** ****** ******
  21  ****** ****** ****** ****** ****** ****** ****** ****** ****** ******
      ****** ****** ****** ****** ****** ****** ****** ****** ****** ******
      ****** ****** ****** ****** ****** ****** ****** ****** ****** ******
  22  ****** ****** ****** ****** ****** ****** ****** ****** ****** ******
      ****** ****** ****** ****** ****** ****** ****** ****** ****** ******
      ****** ****** ****** ****** ****** ****** ****** ****** ****** ******
  23  ****** ****** ****** ****** ****** ****** ****** ****** ****** ******
      ****** ****** ****** ****** ****** ****** ****** ****** ****** ******
      ****** ****** ****** ****** ****** ****** ****** ****** ****** ******
  24  ****** ****** ****** ****** ****** ****** ****** ****** ****** ******
      ****** ****** ****** ****** ****** ****** ****** ****** ****** ******
      ****** ****** ****** ****** ****** ****** ****** ****** ****** ******
  25  ****** ****** ****** ****** ****** ****** ****** ****** ****** ******
      ****** ****** ****** ****** ****** ****** ****** ****** ****** ******
      ****** ****** ****** ****** ****** ****** ****** ****** ****** ******

 HEAD WILL BE SAVED ON UNIT   51 AT END OF TIME STEP    1, STRESS PERIOD    9
1
  VOLUMETRIC BUDGET FOR ENTIRE MODEL AT END OF TIME STEP    1, STRESS PERIOD   9
  ------------------------------------------------------------------------------

     CUMULATIVE VOLUMES      L**3       RATES FOR THIS TIME STEP      L**3/T
     ------------------                 ------------------------

           IN:                                      IN:
           ---                                      ---
             STORAGE =    21120166.4644               STORAGE =         983.3074
       CONSTANT HEAD =   976574003.5662         CONSTANT HEAD =     1196221.6512
               WELLS =           0.0000                 WELLS =           0.0000
            RECHARGE =    18878400.0000              RECHARGE =       13800.0000
      STREAM LEAKAGE =           0.0000        STREAM LEAKAGE =           0.0000

            TOTAL IN =  1016572570.0305              TOTAL IN =     1211004.9586

          OUT:                                     OUT:
          ----                                     ----
             STORAGE =      911417.1651               STORAGE =         219.2375
       CONSTANT HEAD =           0.0000         CONSTANT HEAD =           0.0000
               WELLS =    65760000.0000                 WELLS =       80000.0000
            RECHARGE =           0.0000              RECHARGE =           0.0000
      STREAM LEAKAGE =   949901161.1246        STREAM LEAKAGE =     1130785.7376

           TOTAL OUT =  1016572578.2897             TOTAL OUT =     1211004.9752

            IN - OUT =          -8.2591              IN - OUT =      -1.6546E-02

 PERCENT DISCREPANCY =          -0.00     PERCENT DISCREPANCY =          -0.00






         TIME SUMMARY AT END OF TIME STEP    1 IN STRESS PERIOD    9
                    SECONDS     MINUTES      HOURS       DAYS        YEARS
                    -----------------------------------------------------------
   TIME STEP LENGTH 7.94880E+06 1.32480E+05  2208.0      92.000     0.25188    
 STRESS PERIOD TIME 7.94880E+06 1.32480E+05  2208.0      92.000     0.25188    
         TOTAL TIME 7.10208E+07 1.18368E+06  19728.      822.00      2.2505    
1
1
                            STRESS PERIOD NO.   10, LENGTH =   91.00000    
                            -----------------------------------------------

                              NUMBER OF TIME STEPS =     1

                               MULTIPLIER FOR DELT =     1.500

                            INITIAL TIME STEP SIZE =   91.00000    

 WELL NO.  LAYER   ROW   COL   STRESS RATE         
 --------------------------------------------------
      1      1      8     16     -0.3000E+05
      2      1     21     24       0.000    
      3      1     23     11     -0.5000E+05

      3 WELLS

                 RECHARGE =  2.000000E-03

 REUSING STREAM SEGMENT DATA FROM LAST STRESS PERIOD
 
 SOLVING FOR HEAD 


     6 CALLS TO PCG ROUTINE FOR TIME STEP   1 IN STRESS PERIOD   10
    23 TOTAL ITERATIONS

 OUTPUT CONTROL FOR STRESS PERIOD   10   TIME STEP    1
    SAVE BUDGET
    SAVE HEAD FOR ALL LAYERS
    PRINT HEAD FOR ALL LAYERS
 UBDSV2 SAVING "STREAMFLOW OUT  " ON UNIT  50 AT TIME STEP  1, STRESS PERIOD  10



 STREAM LISTING     PERIOD     10   STEP        1

 LAYER ROW COL. STREAM  RCH.  FLOW INTO     FLOW TO   FLOW OUT OF   OVRLND.     DIRECT     STREAM       STREAM     STREAM     STREAM   STREAMBED  STREAMBED
                SEG.NO.  NO.  STRM. RCH.    AQUIFER    STRM. RCH.    RUNOFF     PRECIP       ET          HEAD       DEPTH      WIDTH   CONDCTNC.   GRADIENT

   1   13    1     1     1    1.0000E+05 -2.8102E+04   1.2810E+05  0.000E+00  0.000E+00  0.000E+00  4.84179E+01  1.565E-01  2.000E+01  2.000E+04 -1.405E+00
   1   13    2     1     2    1.2810E+05 -3.7875E+04   1.6598E+05  0.000E+00  0.000E+00  0.000E+00  4.79664E+01  1.823E-01  2.000E+01  2.000E+04 -1.894E+00
   1   14    3     1     3    1.6598E+05 -3.3299E+04   1.9928E+05  0.000E+00  0.000E+00  0.000E+00  4.75144E+01  2.076E-01  2.000E+01  2.000E+04 -1.665E+00
   1   15    4     1     4    1.9928E+05 -3.2442E+04   2.3172E+05  0.000E+00  0.000E+00  0.000E+00  4.70588E+01  2.293E-01  2.000E+01  2.000E+04 -1.622E+00
   1   16    5     1     5    2.3172E+05 -3.3757E+04   2.6548E+05  0.000E+00  0.000E+00  0.000E+00  4.66021E+01  2.498E-01  2.000E+01  2.000E+04 -1.688E+00
   1   16    6     1     6    2.6548E+05 -2.9388E+04   2.9486E+05  0.000E+00  0.000E+00  0.000E+00  4.61434E+01  2.684E-01  2.000E+01  2.000E+04 -1.469E+00
   1   16    7     1     7    2.9486E+05 -2.9091E+04   3.2395E+05  0.000E+00  0.000E+00  0.000E+00  4.56826E+01  2.849E-01  2.000E+01  2.000E+04 -1.455E+00
   1   16    8     1     8    3.2395E+05 -2.9142E+04   3.5310E+05  0.000E+00  0.000E+00  0.000E+00  4.52211E+01  3.007E-01  2.000E+01  2.000E+04 -1.457E+00
   1   16    9     1     9    3.5310E+05 -2.9094E+04   3.8219E+05  0.000E+00  0.000E+00  0.000E+00  4.47591E+01  3.159E-01  2.000E+01  2.000E+04 -1.455E+00
   1   16   10     1    10    3.8219E+05 -2.9019E+04   4.1121E+05  0.000E+00  0.000E+00  0.000E+00  4.42966E+01  3.307E-01  2.000E+01  2.000E+04 -1.451E+00
   1   16   11     1    11    4.1121E+05 -2.9560E+04   4.4077E+05  0.000E+00  0.000E+00  0.000E+00  4.38338E+01  3.451E-01  2.000E+01  2.000E+04 -1.478E+00
   1   16   12     1    12    4.4077E+05 -3.4983E+04   4.7575E+05  0.000E+00  0.000E+00  0.000E+00  4.33719E+01  3.606E-01  2.000E+01  2.000E+04 -1.749E+00
   1   15   13     1    13    4.7575E+05 -3.4018E+04   5.0977E+05  0.000E+00  0.000E+00  0.000E+00  4.29107E+01  3.766E-01  2.000E+01  2.000E+04 -1.701E+00
   1   14   14     1    14    5.0977E+05 -3.4523E+04   5.4429E+05  0.000E+00  0.000E+00  0.000E+00  4.24489E+01  3.921E-01  2.000E+01  2.000E+04 -1.726E+00
   1   13   15     1    15    5.4429E+05 -3.6288E+04   5.8058E+05  0.000E+00  0.000E+00  0.000E+00  4.19873E+01  4.077E-01  2.000E+01  2.000E+04 -1.814E+00
   1   12   16     1    16    5.8058E+05 -4.1258E+04   6.2184E+05  0.000E+00  0.000E+00  0.000E+00  4.15266E+01  4.244E-01  2.000E+01  2.000E+04 -2.063E+00
   1   12   17     1    17    6.2184E+05 -3.2365E+04   6.5420E+05  0.000E+00  0.000E+00  0.000E+00  4.10648E+01  4.398E-01  2.000E+01  2.000E+04 -1.618E+00
   1   12   18     1    18    6.5420E+05 -3.1116E+04   6.8532E+05  0.000E+00  0.000E+00  0.000E+00  4.06005E+01  4.528E-01  2.000E+01  2.000E+04 -1.556E+00
   1   12   19     1    19    6.8532E+05 -3.5416E+04   7.2074E+05  0.000E+00  0.000E+00  0.000E+00  4.01366E+01  4.661E-01  2.000E+01  2.000E+04 -1.771E+00
   1   13   20     1    20    7.2074E+05 -2.6484E+04   7.4722E+05  0.000E+00  0.000E+00  0.000E+00  3.96715E+01  4.783E-01  2.000E+01  2.000E+04 -1.324E+00
   1   14   21     1    21    7.4722E+05 -1.9722E+04   7.6694E+05  0.000E+00  0.000E+00  0.000E+00  3.92032E+01  4.873E-01  2.000E+01  2.000E+04 -9.861E-01
   1   14   22     1    22    7.6694E+05 -1.8066E+03   7.6875E+05  0.000E+00  0.000E+00  0.000E+00  3.87301E+01  4.915E-01  2.000E+01  2.000E+04 -9.033E-02
   1    9   30     2     1    5.0000E+04 -2.6843E+04   7.6843E+04  0.000E+00  0.000E+00  0.000E+00  4.02586E+01  1.336E-01  2.000E+01  2.000E+04 -1.342E+00
   1    9   29     2     2    7.6843E+04 -2.9293E+04   1.0614E+05  0.000E+00  0.000E+00  0.000E+00  4.00415E+01  1.665E-01  2.000E+01  2.000E+04 -1.465E+00
   1    9   28     2     3    1.0614E+05 -3.3549E+04   1.3968E+05  0.000E+00  0.000E+00  0.000E+00  3.98238E+01  1.988E-01  2.000E+01  2.000E+04 -1.677E+00
   1    9   27     2     4    1.3968E+05 -4.7614E+04   1.8730E+05  0.000E+00  0.000E+00  0.000E+00  3.96109E+01  2.359E-01  2.000E+01  2.000E+04 -2.381E+00
   1   10   26     2     5    1.8730E+05 -3.3545E+04   2.2084E+05  0.000E+00  0.000E+00  0.000E+00  3.93944E+01  2.694E-01  2.000E+01  2.000E+04 -1.677E+00
   1   11   25     2     6    2.2084E+05 -2.5131E+04   2.4597E+05  0.000E+00  0.000E+00  0.000E+00  3.91670E+01  2.920E-01  2.000E+01  2.000E+04 -1.257E+00
   1   12   24     2     7    2.4597E+05 -1.8509E+04   2.6448E+05  0.000E+00  0.000E+00  0.000E+00  3.89331E+01  3.081E-01  2.000E+01  2.000E+04 -9.255E-01
   1   13   23     2     8    2.6448E+05 -1.3149E+04   2.7763E+05  0.000E+00  0.000E+00  0.000E+00  3.86945E+01  3.195E-01  2.000E+01  2.000E+04 -6.575E-01
   1   14   22     2     9    2.7763E+05 -7.3754E+03   2.8501E+05  0.000E+00  0.000E+00  0.000E+00  3.84517E+01  3.267E-01  2.000E+01  2.000E+04 -3.688E-01
   1   14   22     3     1    1.0538E+06 -1.5392E+04   1.0691E+06  0.000E+00  0.000E+00  0.000E+00  3.80508E+01  4.953E-01  2.000E+01  2.000E+04 -7.696E-01
   1   15   23     3     2    1.0691E+06 -2.3863E+04   1.0930E+06  0.000E+00  0.000E+00  0.000E+00  3.71674E+01  5.007E-01  2.000E+01  2.000E+04 -1.193E+00
   1   15   24     3     3    1.0930E+06 -1.9908E+04   1.1129E+06  0.000E+00  0.000E+00  0.000E+00  3.62846E+01  5.068E-01  2.000E+01  2.000E+04 -9.954E-01
   1   15   25     3     4    1.1129E+06 -1.9537E+04   1.1325E+06  0.000E+00  0.000E+00  0.000E+00  3.54011E+01  5.122E-01  2.000E+01  2.000E+04 -9.768E-01
   1   15   26     3     5    1.1325E+06 -2.2366E+04   1.1548E+06  0.000E+00  0.000E+00  0.000E+00  3.45179E+01  5.179E-01  2.000E+01  2.000E+04 -1.118E+00
   1   16   27     3     6    1.1548E+06 -2.9584E+04   1.1844E+06  0.000E+00  0.000E+00  0.000E+00  3.36361E+01  5.250E-01  2.000E+01  2.000E+04 -1.479E+00
   1   17   28     3     7    1.1844E+06 -3.6647E+04   1.2211E+06  0.000E+00  0.000E+00  0.000E+00  3.27560E+01  5.338E-01  2.000E+01  2.000E+04 -1.832E+00
   1   18   29     3     8    1.2211E+06 -4.7611E+04   1.2687E+06  0.000E+00  0.000E+00  0.000E+00  3.18783E+01  5.450E-01  2.000E+01  2.000E+04 -2.381E+00
   1   18   30     3     9    1.2687E+06 -4.4008E+04   1.3127E+06  0.000E+00  0.000E+00  0.000E+00  3.10014E+01  5.569E-01  2.000E+01  2.000E+04 -2.200E+00



1
              HEAD IN LAYER   1 AT END OF TIME STEP   1 IN STRESS PERIOD   10
  ---------------------------------------------------------------------------

          1      2      3      4      5      6      7      8      9     10
         11     12     13     14     15     16     17     18     19     20
         21     22     23     24     25     26     27     28     29     30
 .........................................................................
   1  ****** ****** ****** ****** ****** ****** ****** ****** ****** ******
      ****** ****** ****** ****** ****** ****** ****** ****** ****** ******
      ****** ****** ****** ****** ****** ****** ****** ****** ****** ******
   2  ****** ****** ****** ****** ****** ****** ****** ****** ****** ******
      ****** ****** ****** ****** ****** ****** ****** ****** ****** ******
      ****** ****** ****** ****** ****** ****** ****** ****** ****** ******
   3  ****** ****** ****** ****** ****** ****** ****** ****** ****** ******
      ****** ****** ****** ****** ****** ****** ****** ****** ****** ******
      ****** ****** ****** ****** ****** ****** ****** ****** ****** ******
   4  ****** ****** ****** ****** ****** ****** ****** ****** ****** ******
      ****** ****** ****** ****** ****** ****** ****** ****** ****** ******
      ****** ****** ****** ****** ****** ****** ****** ****** ****** ******
   5  ****** ****** ****** ****** ****** ****** ****** ****** ****** ******
      ****** ****** ****** ****** ****** ****** ****** ****** ****** ******
      ****** ****** ****** ****** ****** ****** ****** ****** ****** ******
   6  ****** ****** ****** ****** ****** ****** ****** ****** ****** ******
      ****** ****** ****** ****** ****** ****** ****** ****** ****** ******
      ****** ****** ****** ****** ****** ****** ****** ****** ****** ******
   7  ****** ****** ****** ****** ****** ****** ****** ****** ****** ******
      ****** ****** ****** ****** ****** ****** ****** ****** ****** ******
      ****** ****** ****** ****** ****** ****** ****** ****** ****** ******
   8  ****** ****** ****** ****** ****** ****** ****** ****** ****** ******
      ****** ****** ****** ****** ****** ****** ****** ****** ****** ******
      ****** ****** ****** ****** ****** ****** ****** ****** ****** ******
   9  ****** ****** ****** ****** ****** ****** ****** ****** ****** ******
      ****** ****** ****** ****** ****** ****** ****** ****** ****** ******
      ****** ****** ****** ****** ****** ****** ****** ****** ****** ******
  10  ****** ****** ****** ****** ****** ****** ****** ****** ****** ******
      ****** ****** ****** ****** ****** ****** ****** ****** ****** ******
      ****** ****** ****** ****** ****** ****** ****** ****** ****** ******
  11  ****** ****** ****** ****** ****** ****** ****** ****** ****** ******
      ****** ****** ****** ****** ****** ****** ****** ****** ****** ******
      ****** ****** ****** ****** ****** ****** ****** ****** ****** ******
  12  ****** ****** ****** ****** ****** ****** ****** ****** ****** ******
      ****** ****** ****** ****** ****** ****** ****** ****** ****** ******
      ****** ****** ****** ****** ****** ****** ****** ****** ****** ******
  13  ****** ****** ****** ****** ****** ****** ****** ****** ****** ******
      ****** ****** ****** ****** ****** ****** ****** ****** ****** ******
      ****** ****** ****** ****** ****** ****** ****** ****** ****** ******
  14  ****** ****** ****** ****** ****** ****** ****** ****** ****** ******
      ****** ****** ****** ****** ****** ****** ****** ****** ****** ******
      ****** ****** ****** ****** ****** ****** ****** ****** ****** ******
  15  ****** ****** ****** ****** ****** ****** ****** ****** ****** ******
      ****** ****** ****** ****** ****** ****** ****** ****** ****** ******
      ****** ****** ****** ****** ****** ****** ****** ****** ****** ******
  16  ****** ****** ****** ****** ****** ****** ****** ****** ****** ******
      ****** ****** ****** ****** ****** ****** ****** ****** ****** ******
      ****** ****** ****** ****** ****** ****** ****** ****** ****** ******
  17  ****** ****** ****** ****** ****** ****** ****** ****** ****** ******
      ****** ****** ****** ****** ****** ****** ****** ****** ****** ******
      ****** ****** ****** ****** ****** ****** ****** ****** ****** ******
  18  ****** ****** ****** ****** ****** ****** ****** ****** ****** ******
      ****** ****** ****** ****** ****** ****** ****** ****** ****** ******
      ****** ****** ****** ****** ****** ****** ****** ****** ****** ******
  19  ****** ****** ****** ****** ****** ****** ****** ****** ****** ******
      ****** ****** ****** ****** ****** ****** ****** ****** ****** ******
      ****** ****** ****** ****** ****** ****** ****** ****** ****** ******
  20  ****** ****** ****** ****** ****** ****** ****** ****** ****** ******
      ****** ****** ****** ****** ****** ****** ****** ****** ****** ******
      ****** ****** ****** ****** ****** ****** ****** ****** ****** ******
  21  ****** ****** ****** ****** ****** ****** ****** ****** ****** ******
      ****** ****** ****** ****** ****** ****** ****** ****** ****** ******
      ****** ****** ****** ****** ****** ****** ****** ****** ****** ******
  22  ****** ****** ****** ****** ****** ****** ****** ****** ****** ******
      ****** ****** ****** ****** ****** ****** ****** ****** ****** ******
      ****** ****** ****** ****** ****** ****** ****** ****** ****** ******
  23  ****** ****** ****** ****** ****** ****** ****** ****** ****** ******
      ****** ****** ****** ****** ****** ****** ****** ****** ****** ******
      ****** ****** ****** ****** ****** ****** ****** ****** ****** ******
  24  ****** ****** ****** ****** ****** ****** ****** ****** ****** ******
      ****** ****** ****** ****** ****** ****** ****** ****** ****** ******
      ****** ****** ****** ****** ****** ****** ****** ****** ****** ******
  25  ****** ****** ****** ****** ****** ****** ****** ****** ****** ******
      ****** ****** ****** ****** ****** ****** ****** ****** ****** ******
      ****** ****** ****** ****** ****** ****** ****** ****** ****** ******

 HEAD WILL BE SAVED ON UNIT   51 AT END OF TIME STEP    1, STRESS PERIOD   10
1
  VOLUMETRIC BUDGET FOR ENTIRE MODEL AT END OF TIME STEP    1, STRESS PERIOD  10
  ------------------------------------------------------------------------------

     CUMULATIVE VOLUMES      L**3       RATES FOR THIS TIME STEP      L**3/T
     ------------------                 ------------------------

           IN:                                      IN:
           ---                                      ---
             STORAGE =    21213104.5325               STORAGE =        1021.2975
       CONSTANT HEAD =  1084881851.0616         CONSTANT HEAD =     1190196.1263
               WELLS =           0.0000                 WELLS =           0.0000
            RECHARGE =    23901600.0000              RECHARGE =       55200.0000
      STREAM LEAKAGE =           0.0000        STREAM LEAKAGE =           0.0000

            TOTAL IN =  1129996555.5941              TOTAL IN =     1246417.4238

          OUT:                                     OUT:
          ----                                     ----
             STORAGE =     1252245.2278               STORAGE =        3745.3633
       CONSTANT HEAD =           0.0000         CONSTANT HEAD =           0.0000
               WELLS =    73040000.0000                 WELLS =       80000.0000
            RECHARGE =           0.0000              RECHARGE =           0.0000
      STREAM LEAKAGE =  1055704316.0738        STREAM LEAKAGE =     1162672.0324

           TOTAL OUT =  1129996561.3015             TOTAL OUT =     1246417.3957

            IN - OUT =          -5.7074              IN - OUT =       2.8041E-02

 PERCENT DISCREPANCY =          -0.00     PERCENT DISCREPANCY =           0.00






         TIME SUMMARY AT END OF TIME STEP    1 IN STRESS PERIOD   10
                    SECONDS     MINUTES      HOURS       DAYS        YEARS
                    -----------------------------------------------------------
   TIME STEP LENGTH 7.86240E+06 1.31040E+05  2184.0      91.000     0.24914    
 STRESS PERIOD TIME 7.86240E+06 1.31040E+05  2184.0      91.000     0.24914    
         TOTAL TIME 7.88832E+07 1.31472E+06  21912.      913.00      2.4997    
1
1
                            STRESS PERIOD NO.   11, LENGTH =   91.00000    
                            -----------------------------------------------

                              NUMBER OF TIME STEPS =     1

                               MULTIPLIER FOR DELT =     1.500

                            INITIAL TIME STEP SIZE =   91.00000    

 WELL NO.  LAYER   ROW   COL   STRESS RATE         
 --------------------------------------------------
      1      1      8     16     -0.3000E+05
      2      1     21     24     -0.5000E+05

      2 WELLS

                 RECHARGE =   0.00000    

 REUSING STREAM SEGMENT DATA FROM LAST STRESS PERIOD
 
 SOLVING FOR HEAD 


     6 CALLS TO PCG ROUTINE FOR TIME STEP   1 IN STRESS PERIOD   11
    23 TOTAL ITERATIONS

 OUTPUT CONTROL FOR STRESS PERIOD   11   TIME STEP    1
    SAVE BUDGET
    SAVE HEAD FOR ALL LAYERS
    PRINT HEAD FOR ALL LAYERS
 UBDSV2 SAVING "STREAMFLOW OUT  " ON UNIT  50 AT TIME STEP  1, STRESS PERIOD  11



 STREAM LISTING     PERIOD     11   STEP        1

 LAYER ROW COL. STREAM  RCH.  FLOW INTO     FLOW TO   FLOW OUT OF   OVRLND.     DIRECT     STREAM       STREAM     STREAM     STREAM   STREAMBED  STREAMBED
                SEG.NO.  NO.  STRM. RCH.    AQUIFER    STRM. RCH.    RUNOFF     PRECIP       ET          HEAD       DEPTH      WIDTH   CONDCTNC.   GRADIENT

   1   13    1     1     1    1.0000E+05 -2.7329E+04   1.2733E+05  0.000E+00  0.000E+00  0.000E+00  4.84176E+01  1.562E-01  2.000E+01  2.000E+04 -1.366E+00
   1   13    2     1     2    1.2733E+05 -3.6940E+04   1.6427E+05  0.000E+00  0.000E+00  0.000E+00  4.79655E+01  1.814E-01  2.000E+01  2.000E+04 -1.847E+00
   1   14    3     1     3    1.6427E+05 -3.2448E+04   1.9672E+05  0.000E+00  0.000E+00  0.000E+00  4.75130E+01  2.062E-01  2.000E+01  2.000E+04 -1.622E+00
   1   15    4     1     4    1.9672E+05 -3.1719E+04   2.2844E+05  0.000E+00  0.000E+00  0.000E+00  4.70570E+01  2.274E-01  2.000E+01  2.000E+04 -1.586E+00
   1   16    5     1     5    2.2844E+05 -3.3320E+04   2.6176E+05  0.000E+00  0.000E+00  0.000E+00  4.66000E+01  2.477E-01  2.000E+01  2.000E+04 -1.666E+00
   1   16    6     1     6    2.6176E+05 -2.9074E+04   2.9083E+05  0.000E+00  0.000E+00  0.000E+00  4.61412E+01  2.662E-01  2.000E+01  2.000E+04 -1.454E+00
   1   16    7     1     7    2.9083E+05 -2.8867E+04   3.1970E+05  0.000E+00  0.000E+00  0.000E+00  4.56803E+01  2.826E-01  2.000E+01  2.000E+04 -1.443E+00
   1   16    8     1     8    3.1970E+05 -2.9015E+04   3.4871E+05  0.000E+00  0.000E+00  0.000E+00  4.52188E+01  2.984E-01  2.000E+01  2.000E+04 -1.451E+00
   1   16    9     1     9    3.4871E+05 -2.9060E+04   3.7777E+05  0.000E+00  0.000E+00  0.000E+00  4.47568E+01  3.136E-01  2.000E+01  2.000E+04 -1.453E+00
   1   16   10     1    10    3.7777E+05 -2.9054E+04   4.0683E+05  0.000E+00  0.000E+00  0.000E+00  4.42944E+01  3.285E-01  2.000E+01  2.000E+04 -1.453E+00
   1   16   11     1    11    4.0683E+05 -2.9614E+04   4.3644E+05  0.000E+00  0.000E+00  0.000E+00  4.38316E+01  3.430E-01  2.000E+01  2.000E+04 -1.481E+00
   1   16   12     1    12    4.3644E+05 -3.4973E+04   4.7141E+05  0.000E+00  0.000E+00  0.000E+00  4.33699E+01  3.585E-01  2.000E+01  2.000E+04 -1.749E+00
   1   15   13     1    13    4.7141E+05 -3.3405E+04   5.0482E+05  0.000E+00  0.000E+00  0.000E+00  4.29086E+01  3.745E-01  2.000E+01  2.000E+04 -1.670E+00
   1   14   14     1    14    5.0482E+05 -3.3623E+04   5.3844E+05  0.000E+00  0.000E+00  0.000E+00  4.24465E+01  3.897E-01  2.000E+01  2.000E+04 -1.681E+00
   1   13   15     1    15    5.3844E+05 -3.5275E+04   5.7372E+05  0.000E+00  0.000E+00  0.000E+00  4.19845E+01  4.050E-01  2.000E+01  2.000E+04 -1.764E+00
   1   12   16     1    16    5.7372E+05 -4.0260E+04   6.1398E+05  0.000E+00  0.000E+00  0.000E+00  4.15235E+01  4.212E-01  2.000E+01  2.000E+04 -2.013E+00
   1   12   17     1    17    6.1398E+05 -3.1510E+04   6.4549E+05  0.000E+00  0.000E+00  0.000E+00  4.10613E+01  4.363E-01  2.000E+01  2.000E+04 -1.575E+00
   1   12   18     1    18    6.4549E+05 -3.0259E+04   6.7575E+05  0.000E+00  0.000E+00  0.000E+00  4.05968E+01  4.490E-01  2.000E+01  2.000E+04 -1.513E+00
   1   12   19     1    19    6.7575E+05 -3.4465E+04   7.1021E+05  0.000E+00  0.000E+00  0.000E+00  4.01326E+01  4.621E-01  2.000E+01  2.000E+04 -1.723E+00
   1   13   20     1    20    7.1021E+05 -2.5376E+04   7.3559E+05  0.000E+00  0.000E+00  0.000E+00  3.96672E+01  4.740E-01  2.000E+01  2.000E+04 -1.269E+00
   1   14   21     1    21    7.3559E+05 -1.8349E+04   7.5394E+05  0.000E+00  0.000E+00  0.000E+00  3.91985E+01  4.825E-01  2.000E+01  2.000E+04 -9.175E-01
   1   14   22     1    22    7.5394E+05 -1.2461E+03   7.5518E+05  0.000E+00  0.000E+00  0.000E+00  3.87250E+01  4.863E-01  2.000E+01  2.000E+04 -6.230E-02
   1    9   30     2     1    5.0000E+04 -2.6216E+04   7.6216E+04  0.000E+00  0.000E+00  0.000E+00  4.02582E+01  1.332E-01  2.000E+01  2.000E+04 -1.311E+00
   1    9   29     2     2    7.6216E+04 -2.8669E+04   1.0489E+05  0.000E+00  0.000E+00  0.000E+00  4.00405E+01  1.655E-01  2.000E+01  2.000E+04 -1.433E+00
   1    9   28     2     3    1.0489E+05 -3.2908E+04   1.3779E+05  0.000E+00  0.000E+00  0.000E+00  3.98222E+01  1.972E-01  2.000E+01  2.000E+04 -1.645E+00
   1    9   27     2     4    1.3779E+05 -4.6841E+04   1.8463E+05  0.000E+00  0.000E+00  0.000E+00  3.96089E+01  2.339E-01  2.000E+01  2.000E+04 -2.342E+00
   1   10   26     2     5    1.8463E+05 -3.2717E+04   2.1735E+05  0.000E+00  0.000E+00  0.000E+00  3.93920E+01  2.670E-01  2.000E+01  2.000E+04 -1.636E+00
   1   11   25     2     6    2.1735E+05 -2.4305E+04   2.4166E+05  0.000E+00  0.000E+00  0.000E+00  3.91641E+01  2.891E-01  2.000E+01  2.000E+04 -1.215E+00
   1   12   24     2     7    2.4166E+05 -1.7722E+04   2.5938E+05  0.000E+00  0.000E+00  0.000E+00  3.89297E+01  3.047E-01  2.000E+01  2.000E+04 -8.861E-01
   1   13   23     2     8    2.5938E+05 -1.2411E+04   2.7179E+05  0.000E+00  0.000E+00  0.000E+00  3.86906E+01  3.156E-01  2.000E+01  2.000E+04 -6.206E-01
   1   14   22     2     9    2.7179E+05 -6.7983E+03   2.7859E+05  0.000E+00  0.000E+00  0.000E+00  3.84474E+01  3.224E-01  2.000E+01  2.000E+04 -3.399E-01
   1   14   22     3     1    1.0338E+06 -1.4843E+04   1.0486E+06  0.000E+00  0.000E+00  0.000E+00  3.80451E+01  4.896E-01  2.000E+01  2.000E+04 -7.421E-01
   1   15   23     3     2    1.0486E+06 -2.1628E+04   1.0702E+06  0.000E+00  0.000E+00  0.000E+00  3.71614E+01  4.947E-01  2.000E+01  2.000E+04 -1.081E+00
   1   15   24     3     3    1.0702E+06 -1.8006E+04   1.0882E+06  0.000E+00  0.000E+00  0.000E+00  3.62780E+01  5.002E-01  2.000E+01  2.000E+04 -9.003E-01
   1   15   25     3     4    1.0882E+06 -1.7797E+04   1.1060E+06  0.000E+00  0.000E+00  0.000E+00  3.53941E+01  5.052E-01  2.000E+01  2.000E+04 -8.898E-01
   1   15   26     3     5    1.1060E+06 -2.0752E+04   1.1268E+06  0.000E+00  0.000E+00  0.000E+00  3.45105E+01  5.105E-01  2.000E+01  2.000E+04 -1.038E+00
   1   16   27     3     6    1.1268E+06 -2.7101E+04   1.1539E+06  0.000E+00  0.000E+00  0.000E+00  3.36281E+01  5.170E-01  2.000E+01  2.000E+04 -1.355E+00
   1   17   28     3     7    1.1539E+06 -3.3826E+04   1.1877E+06  0.000E+00  0.000E+00  0.000E+00  3.27475E+01  5.253E-01  2.000E+01  2.000E+04 -1.691E+00
   1   18   29     3     8    1.1877E+06 -4.4724E+04   1.2324E+06  0.000E+00  0.000E+00  0.000E+00  3.18691E+01  5.358E-01  2.000E+01  2.000E+04 -2.236E+00
   1   18   30     3     9    1.2324E+06 -4.2065E+04   1.2745E+06  0.000E+00  0.000E+00  0.000E+00  3.09917E+01  5.472E-01  2.000E+01  2.000E+04 -2.103E+00



1
              HEAD IN LAYER   1 AT END OF TIME STEP   1 IN STRESS PERIOD   11
  ---------------------------------------------------------------------------

          1      2      3      4      5      6      7      8      9     10
         11     12     13     14     15     16     17     18     19     20
         21     22     23     24     25     26     27     28     29     30
 .........................................................................
   1  ****** ****** ****** ****** ****** ****** ****** ****** ****** ******
      ****** ****** ****** ****** ****** ****** ****** ****** ****** ******
      ****** ****** ****** ****** ****** ****** ****** ****** ****** ******
   2  ****** ****** ****** ****** ****** ****** ****** ****** ****** ******
      ****** ****** ****** ****** ****** ****** ****** ****** ****** ******
      ****** ****** ****** ****** ****** ****** ****** ****** ****** ******
   3  ****** ****** ****** ****** ****** ****** ****** ****** ****** ******
      ****** ****** ****** ****** ****** ****** ****** ****** ****** ******
      ****** ****** ****** ****** ****** ****** ****** ****** ****** ******
   4  ****** ****** ****** ****** ****** ****** ****** ****** ****** ******
      ****** ****** ****** ****** ****** ****** ****** ****** ****** ******
      ****** ****** ****** ****** ****** ****** ****** ****** ****** ******
   5  ****** ****** ****** ****** ****** ****** ****** ****** ****** ******
      ****** ****** ****** ****** ****** ****** ****** ****** ****** ******
      ****** ****** ****** ****** ****** ****** ****** ****** ****** ******
   6  ****** ****** ****** ****** ****** ****** ****** ****** ****** ******
      ****** ****** ****** ****** ****** ****** ****** ****** ****** ******
      ****** ****** ****** ****** ****** ****** ****** ****** ****** ******
   7  ****** ****** ****** ****** ****** ****** ****** ****** ****** ******
      ****** ****** ****** ****** ****** ****** ****** ****** ****** ******
      ****** ****** ****** ****** ****** ****** ****** ****** ****** ******
   8  ****** ****** ****** ****** ****** ****** ****** ****** ****** ******
      ****** ****** ****** ****** ****** ****** ****** ****** ****** ******
      ****** ****** ****** ****** ****** ****** ****** ****** ****** ******
   9  ****** ****** ****** ****** ****** ****** ****** ****** ****** ******
      ****** ****** ****** ****** ****** ****** ****** ****** ****** ******
      ****** ****** ****** ****** ****** ****** ****** ****** ****** ******
  10  ****** ****** ****** ****** ****** ****** ****** ****** ****** ******
      ****** ****** ****** ****** ****** ****** ****** ****** ****** ******
      ****** ****** ****** ****** ****** ****** ****** ****** ****** ******
  11  ****** ****** ****** ****** ****** ****** ****** ****** ****** ******
      ****** ****** ****** ****** ****** ****** ****** ****** ****** ******
      ****** ****** ****** ****** ****** ****** ****** ****** ****** ******
  12  ****** ****** ****** ****** ****** ****** ****** ****** ****** ******
      ****** ****** ****** ****** ****** ****** ****** ****** ****** ******
      ****** ****** ****** ****** ****** ****** ****** ****** ****** ******
  13  ****** ****** ****** ****** ****** ****** ****** ****** ****** ******
      ****** ****** ****** ****** ****** ****** ****** ****** ****** ******
      ****** ****** ****** ****** ****** ****** ****** ****** ****** ******
  14  ****** ****** ****** ****** ****** ****** ****** ****** ****** ******
      ****** ****** ****** ****** ****** ****** ****** ****** ****** ******
      ****** ****** ****** ****** ****** ****** ****** ****** ****** ******
  15  ****** ****** ****** ****** ****** ****** ****** ****** ****** ******
      ****** ****** ****** ****** ****** ****** ****** ****** ****** ******
      ****** ****** ****** ****** ****** ****** ****** ****** ****** ******
  16  ****** ****** ****** ****** ****** ****** ****** ****** ****** ******
      ****** ****** ****** ****** ****** ****** ****** ****** ****** ******
      ****** ****** ****** ****** ****** ****** ****** ****** ****** ******
  17  ****** ****** ****** ****** ****** ****** ****** ****** ****** ******
      ****** ****** ****** ****** ****** ****** ****** ****** ****** ******
      ****** ****** ****** ****** ****** ****** ****** ****** ****** ******
  18  ****** ****** ****** ****** ****** ****** ****** ****** ****** ******
      ****** ****** ****** ****** ****** ****** ****** ****** ****** ******
      ****** ****** ****** ****** ****** ****** ****** ****** ****** ******
  19  ****** ****** ****** ****** ****** ****** ****** ****** ****** ******
      ****** ****** ****** ****** ****** ****** ****** ****** ****** ******
      ****** ****** ****** ****** ****** ****** ****** ****** ****** ******
  20  ****** ****** ****** ****** ****** ****** ****** ****** ****** ******
      ****** ****** ****** ****** ****** ****** ****** ****** ****** ******
      ****** ****** ****** ****** ****** ****** ****** ****** ****** ******
  21  ****** ****** ****** ****** ****** ****** ****** ****** ****** ******
      ****** ****** ****** ****** ****** ****** ****** ****** ****** ******
      ****** ****** ****** ****** ****** ****** ****** ****** ****** ******
  22  ****** ****** ****** ****** ****** ****** ****** ****** ****** ******
      ****** ****** ****** ****** ****** ****** ****** ****** ****** ******
      ****** ****** ****** ****** ****** ****** ****** ****** ****** ******
  23  ****** ****** ****** ****** ****** ****** ****** ****** ****** ******
      ****** ****** ****** ****** ****** ****** ****** ****** ****** ******
      ****** ****** ****** ****** ****** ****** ****** ****** ****** ******
  24  ****** ****** ****** ****** ****** ****** ****** ****** ****** ******
      ****** ****** ****** ****** ****** ****** ****** ****** ****** ******
      ****** ****** ****** ****** ****** ****** ****** ****** ****** ******
  25  ****** ****** ****** ****** ****** ****** ****** ****** ****** ******
      ****** ****** ****** ****** ****** ****** ****** ****** ****** ******
      ****** ****** ****** ****** ****** ****** ****** ****** ****** ******

 HEAD WILL BE SAVED ON UNIT   51 AT END OF TIME STEP    1, STRESS PERIOD   11
1
  VOLUMETRIC BUDGET FOR ENTIRE MODEL AT END OF TIME STEP    1, STRESS PERIOD  11
  ------------------------------------------------------------------------------

     CUMULATIVE VOLUMES      L**3       RATES FOR THIS TIME STEP      L**3/T
     ------------------                 ------------------------

           IN:                                      IN:
           ---                                      ---
             STORAGE =    21595144.3965               STORAGE =        4198.2403
       CONSTANT HEAD =  1194194369.7416         CONSTANT HEAD =     1201236.4690
               WELLS =           0.0000                 WELLS =           0.0000
            RECHARGE =    23901600.0000              RECHARGE =           0.0000
      STREAM LEAKAGE =           0.0000        STREAM LEAKAGE =           0.0000

            TOTAL IN =  1239691114.1382              TOTAL IN =     1205434.7093

          OUT:                                     OUT:
          ----                                     ----
             STORAGE =     1336298.4441               STORAGE =         923.6617
       CONSTANT HEAD =           0.0000         CONSTANT HEAD =           0.0000
               WELLS =    80320000.0000                 WELLS =       80000.0000
            RECHARGE =           0.0000              RECHARGE =           0.0000
      STREAM LEAKAGE =  1158034825.0770        STREAM LEAKAGE =     1124511.0879

           TOTAL OUT =  1239691123.5210             TOTAL OUT =     1205434.7497

            IN - OUT =          -9.3829              IN - OUT =      -4.0389E-02

 PERCENT DISCREPANCY =          -0.00     PERCENT DISCREPANCY =          -0.00






         TIME SUMMARY AT END OF TIME STEP    1 IN STRESS PERIOD   11
                    SECONDS     MINUTES      HOURS       DAYS        YEARS
                    -----------------------------------------------------------
   TIME STEP LENGTH 7.86240E+06 1.31040E+05  2184.0      91.000     0.24914    
 STRESS PERIOD TIME 7.86240E+06 1.31040E+05  2184.0      91.000     0.24914    
         TOTAL TIME 8.67456E+07 1.44576E+06  24096.      1004.0      2.7488    
1
1
                            STRESS PERIOD NO.   12, LENGTH =   91.00000    
                            -----------------------------------------------

                              NUMBER OF TIME STEPS =     1

                               MULTIPLIER FOR DELT =     1.500

                            INITIAL TIME STEP SIZE =   91.00000    

 WELL NO.  LAYER   ROW   COL   STRESS RATE         
 --------------------------------------------------
      1      1      8     16     -0.3000E+05
      2      1     21     24     -0.3807E+05
      3      1     23     11     -0.1193E+05

      3 WELLS

                 RECHARGE =  1.000000E-03

 REUSING STREAM SEGMENT DATA FROM LAST STRESS PERIOD
 
 SOLVING FOR HEAD 


     6 CALLS TO PCG ROUTINE FOR TIME STEP   1 IN STRESS PERIOD   12
    22 TOTAL ITERATIONS

 OUTPUT CONTROL FOR STRESS PERIOD   12   TIME STEP    1
    SAVE BUDGET
    SAVE HEAD FOR ALL LAYERS
    PRINT HEAD FOR ALL LAYERS
 UBDSV2 SAVING "STREAMFLOW OUT  " ON UNIT  50 AT TIME STEP  1, STRESS PERIOD  12



 STREAM LISTING     PERIOD     12   STEP        1

 LAYER ROW COL. STREAM  RCH.  FLOW INTO     FLOW TO   FLOW OUT OF   OVRLND.     DIRECT     STREAM       STREAM     STREAM     STREAM   STREAMBED  STREAMBED
                SEG.NO.  NO.  STRM. RCH.    AQUIFER    STRM. RCH.    RUNOFF     PRECIP       ET          HEAD       DEPTH      WIDTH   CONDCTNC.   GRADIENT

   1   13    1     1     1    1.0000E+05 -2.7710E+04   1.2771E+05  0.000E+00  0.000E+00  0.000E+00  4.84177E+01  1.564E-01  2.000E+01  2.000E+04 -1.386E+00
   1   13    2     1     2    1.2771E+05 -3.7396E+04   1.6511E+05  0.000E+00  0.000E+00  0.000E+00  4.79659E+01  1.818E-01  2.000E+01  2.000E+04 -1.870E+00
   1   14    3     1     3    1.6511E+05 -3.2887E+04   1.9799E+05  0.000E+00  0.000E+00  0.000E+00  4.75137E+01  2.069E-01  2.000E+01  2.000E+04 -1.644E+00
   1   15    4     1     4    1.9799E+05 -3.2126E+04   2.3012E+05  0.000E+00  0.000E+00  0.000E+00  4.70579E+01  2.284E-01  2.000E+01  2.000E+04 -1.606E+00
   1   16    5     1     5    2.3012E+05 -3.3648E+04   2.6377E+05  0.000E+00  0.000E+00  0.000E+00  4.66011E+01  2.488E-01  2.000E+01  2.000E+04 -1.682E+00
   1   16    6     1     6    2.6377E+05 -2.9344E+04   2.9311E+05  0.000E+00  0.000E+00  0.000E+00  4.61424E+01  2.674E-01  2.000E+01  2.000E+04 -1.467E+00
   1   16    7     1     7    2.9311E+05 -2.9115E+04   3.2223E+05  0.000E+00  0.000E+00  0.000E+00  4.56816E+01  2.839E-01  2.000E+01  2.000E+04 -1.456E+00
   1   16    8     1     8    3.2223E+05 -2.9242E+04   3.5147E+05  0.000E+00  0.000E+00  0.000E+00  4.52202E+01  2.998E-01  2.000E+01  2.000E+04 -1.462E+00
   1   16    9     1     9    3.5147E+05 -2.9267E+04   3.8074E+05  0.000E+00  0.000E+00  0.000E+00  4.47583E+01  3.151E-01  2.000E+01  2.000E+04 -1.463E+00
   1   16   10     1    10    3.8074E+05 -2.9245E+04   4.0998E+05  0.000E+00  0.000E+00  0.000E+00  4.42959E+01  3.300E-01  2.000E+01  2.000E+04 -1.462E+00
   1   16   11     1    11    4.0998E+05 -2.9803E+04   4.3978E+05  0.000E+00  0.000E+00  0.000E+00  4.38332E+01  3.446E-01  2.000E+01  2.000E+04 -1.490E+00
   1   16   12     1    12    4.3978E+05 -3.5206E+04   4.7499E+05  0.000E+00  0.000E+00  0.000E+00  4.33715E+01  3.602E-01  2.000E+01  2.000E+04 -1.760E+00
   1   15   13     1    13    4.7499E+05 -3.3784E+04   5.0877E+05  0.000E+00  0.000E+00  0.000E+00  4.29103E+01  3.762E-01  2.000E+01  2.000E+04 -1.689E+00
   1   14   14     1    14    5.0877E+05 -3.4067E+04   5.4284E+05  0.000E+00  0.000E+00  0.000E+00  4.24484E+01  3.916E-01  2.000E+01  2.000E+04 -1.703E+00
   1   13   15     1    15    5.4284E+05 -3.5739E+04   5.7858E+05  0.000E+00  0.000E+00  0.000E+00  4.19865E+01  4.070E-01  2.000E+01  2.000E+04 -1.787E+00
   1   12   16     1    16    5.7858E+05 -4.0711E+04   6.1929E+05  0.000E+00  0.000E+00  0.000E+00  4.15257E+01  4.234E-01  2.000E+01  2.000E+04 -2.036E+00
   1   12   17     1    17    6.1929E+05 -3.1885E+04   6.5118E+05  0.000E+00  0.000E+00  0.000E+00  4.10636E+01  4.386E-01  2.000E+01  2.000E+04 -1.594E+00
   1   12   18     1    18    6.5118E+05 -3.0627E+04   6.8180E+05  0.000E+00  0.000E+00  0.000E+00  4.05992E+01  4.514E-01  2.000E+01  2.000E+04 -1.531E+00
   1   12   19     1    19    6.8180E+05 -3.4870E+04   7.1667E+05  0.000E+00  0.000E+00  0.000E+00  4.01351E+01  4.646E-01  2.000E+01  2.000E+04 -1.744E+00
   1   13   20     1    20    7.1667E+05 -2.5799E+04   7.4247E+05  0.000E+00  0.000E+00  0.000E+00  3.96698E+01  4.766E-01  2.000E+01  2.000E+04 -1.290E+00
   1   14   21     1    21    7.4247E+05 -1.8796E+04   7.6127E+05  0.000E+00  0.000E+00  0.000E+00  3.92012E+01  4.853E-01  2.000E+01  2.000E+04 -9.398E-01
   1   14   22     1    22    7.6127E+05 -1.4208E+03   7.6269E+05  0.000E+00  0.000E+00  0.000E+00  3.87278E+01  4.892E-01  2.000E+01  2.000E+04 -7.104E-02
   1    9   30     2     1    5.0000E+04 -2.6505E+04   7.6505E+04  0.000E+00  0.000E+00  0.000E+00  4.02584E+01  1.334E-01  2.000E+01  2.000E+04 -1.325E+00
   1    9   29     2     2    7.6505E+04 -2.8957E+04   1.0546E+05  0.000E+00  0.000E+00  0.000E+00  4.00409E+01  1.659E-01  2.000E+01  2.000E+04 -1.448E+00
   1    9   28     2     3    1.0546E+05 -3.3204E+04   1.3867E+05  0.000E+00  0.000E+00  0.000E+00  3.98229E+01  1.979E-01  2.000E+01  2.000E+04 -1.660E+00
   1    9   27     2     4    1.3867E+05 -4.7200E+04   1.8586E+05  0.000E+00  0.000E+00  0.000E+00  3.96098E+01  2.348E-01  2.000E+01  2.000E+04 -2.360E+00
   1   10   26     2     5    1.8586E+05 -3.3094E+04   2.1896E+05  0.000E+00  0.000E+00  0.000E+00  3.93931E+01  2.681E-01  2.000E+01  2.000E+04 -1.655E+00
   1   11   25     2     6    2.1896E+05 -2.4674E+04   2.4363E+05  0.000E+00  0.000E+00  0.000E+00  3.91655E+01  2.905E-01  2.000E+01  2.000E+04 -1.234E+00
   1   12   24     2     7    2.4363E+05 -1.8062E+04   2.6170E+05  0.000E+00  0.000E+00  0.000E+00  3.89313E+01  3.063E-01  2.000E+01  2.000E+04 -9.031E-01
   1   13   23     2     8    2.6170E+05 -1.2708E+04   2.7440E+05  0.000E+00  0.000E+00  0.000E+00  3.86923E+01  3.173E-01  2.000E+01  2.000E+04 -6.354E-01
   1   14   22     2     9    2.7440E+05 -6.9922E+03   2.8140E+05  0.000E+00  0.000E+00  0.000E+00  3.84493E+01  3.243E-01  2.000E+01  2.000E+04 -3.496E-01
   1   14   22     3     1    1.0441E+06 -1.5016E+04   1.0591E+06  0.000E+00  0.000E+00  0.000E+00  3.80481E+01  4.925E-01  2.000E+01  2.000E+04 -7.508E-01
   1   15   23     3     2    1.0591E+06 -2.2243E+04   1.0813E+06  0.000E+00  0.000E+00  0.000E+00  3.71644E+01  4.977E-01  2.000E+01  2.000E+04 -1.112E+00
   1   15   24     3     3    1.0813E+06 -1.8529E+04   1.0999E+06  0.000E+00  0.000E+00  0.000E+00  3.62812E+01  5.034E-01  2.000E+01  2.000E+04 -9.265E-01
   1   15   25     3     4    1.0999E+06 -1.8288E+04   1.1182E+06  0.000E+00  0.000E+00  0.000E+00  3.53974E+01  5.085E-01  2.000E+01  2.000E+04 -9.144E-01
   1   15   26     3     5    1.1182E+06 -2.1239E+04   1.1394E+06  0.000E+00  0.000E+00  0.000E+00  3.45139E+01  5.139E-01  2.000E+01  2.000E+04 -1.062E+00
   1   16   27     3     6    1.1394E+06 -2.7797E+04   1.1672E+06  0.000E+00  0.000E+00  0.000E+00  3.36317E+01  5.206E-01  2.000E+01  2.000E+04 -1.390E+00
   1   17   28     3     7    1.1672E+06 -3.4595E+04   1.2018E+06  0.000E+00  0.000E+00  0.000E+00  3.27512E+01  5.290E-01  2.000E+01  2.000E+04 -1.730E+00
   1   18   29     3     8    1.2018E+06 -4.5491E+04   1.2473E+06  0.000E+00  0.000E+00  0.000E+00  3.18729E+01  5.396E-01  2.000E+01  2.000E+04 -2.275E+00
   1   18   30     3     9    1.2473E+06 -4.2607E+04   1.2899E+06  0.000E+00  0.000E+00  0.000E+00  3.09956E+01  5.512E-01  2.000E+01  2.000E+04 -2.130E+00



1
              HEAD IN LAYER   1 AT END OF TIME STEP   1 IN STRESS PERIOD   12
  ---------------------------------------------------------------------------

          1      2      3      4      5      6      7      8      9     10
         11     12     13     14     15     16     17     18     19     20
         21     22     23     24     25     26     27     28     29     30
 .........................................................................
   1  ****** ****** ****** ****** ****** ****** ****** ****** ****** ******
      ****** ****** ****** ****** ****** ****** ****** ****** ****** ******
      ****** ****** ****** ****** ****** ****** ****** ****** ****** ******
   2  ****** ****** ****** ****** ****** ****** ****** ****** ****** ******
      ****** ****** ****** ****** ****** ****** ****** ****** ****** ******
      ****** ****** ****** ****** ****** ****** ****** ****** ****** ******
   3  ****** ****** ****** ****** ****** ****** ****** ****** ****** ******
      ****** ****** ****** ****** ****** ****** ****** ****** ****** ******
      ****** ****** ****** ****** ****** ****** ****** ****** ****** ******
   4  ****** ****** ****** ****** ****** ****** ****** ****** ****** ******
      ****** ****** ****** ****** ****** ****** ****** ****** ****** ******
      ****** ****** ****** ****** ****** ****** ****** ****** ****** ******
   5  ****** ****** ****** ****** ****** ****** ****** ****** ****** ******
      ****** ****** ****** ****** ****** ****** ****** ****** ****** ******
      ****** ****** ****** ****** ****** ****** ****** ****** ****** ******
   6  ****** ****** ****** ****** ****** ****** ****** ****** ****** ******
      ****** ****** ****** ****** ****** ****** ****** ****** ****** ******
      ****** ****** ****** ****** ****** ****** ****** ****** ****** ******
   7  ****** ****** ****** ****** ****** ****** ****** ****** ****** ******
      ****** ****** ****** ****** ****** ****** ****** ****** ****** ******
      ****** ****** ****** ****** ****** ****** ****** ****** ****** ******
   8  ****** ****** ****** ****** ****** ****** ****** ****** ****** ******
      ****** ****** ****** ****** ****** ****** ****** ****** ****** ******
      ****** ****** ****** ****** ****** ****** ****** ****** ****** ******
   9  ****** ****** ****** ****** ****** ****** ****** ****** ****** ******
      ****** ****** ****** ****** ****** ****** ****** ****** ****** ******
      ****** ****** ****** ****** ****** ****** ****** ****** ****** ******
  10  ****** ****** ****** ****** ****** ****** ****** ****** ****** ******
      ****** ****** ****** ****** ****** ****** ****** ****** ****** ******
      ****** ****** ****** ****** ****** ****** ****** ****** ****** ******
  11  ****** ****** ****** ****** ****** ****** ****** ****** ****** ******
      ****** ****** ****** ****** ****** ****** ****** ****** ****** ******
      ****** ****** ****** ****** ****** ****** ****** ****** ****** ******
  12  ****** ****** ****** ****** ****** ****** ****** ****** ****** ******
      ****** ****** ****** ****** ****** ****** ****** ****** ****** ******
      ****** ****** ****** ****** ****** ****** ****** ****** ****** ******
  13  ****** ****** ****** ****** ****** ****** ****** ****** ****** ******
      ****** ****** ****** ****** ****** ****** ****** ****** ****** ******
      ****** ****** ****** ****** ****** ****** ****** ****** ****** ******
  14  ****** ****** ****** ****** ****** ****** ****** ****** ****** ******
      ****** ****** ****** ****** ****** ****** ****** ****** ****** ******
      ****** ****** ****** ****** ****** ****** ****** ****** ****** ******
  15  ****** ****** ****** ****** ****** ****** ****** ****** ****** ******
      ****** ****** ****** ****** ****** ****** ****** ****** ****** ******
      ****** ****** ****** ****** ****** ****** ****** ****** ****** ******
  16  ****** ****** ****** ****** ****** ****** ****** ****** ****** ******
      ****** ****** ****** ****** ****** ****** ****** ****** ****** ******
      ****** ****** ****** ****** ****** ****** ****** ****** ****** ******
  17  ****** ****** ****** ****** ****** ****** ****** ****** ****** ******
      ****** ****** ****** ****** ****** ****** ****** ****** ****** ******
      ****** ****** ****** ****** ****** ****** ****** ****** ****** ******
  18  ****** ****** ****** ****** ****** ****** ****** ****** ****** ******
      ****** ****** ****** ****** ****** ****** ****** ****** ****** ******
      ****** ****** ****** ****** ****** ****** ****** ****** ****** ******
  19  ****** ****** ****** ****** ****** ****** ****** ****** ****** ******
      ****** ****** ****** ****** ****** ****** ****** ****** ****** ******
      ****** ****** ****** ****** ****** ****** ****** ****** ****** ******
  20  ****** ****** ****** ****** ****** ****** ****** ****** ****** ******
      ****** ****** ****** ****** ****** ****** ****** ****** ****** ******
      ****** ****** ****** ****** ****** ****** ****** ****** ****** ******
  21  ****** ****** ****** ****** ****** ****** ****** ****** ****** ******
      ****** ****** ****** ****** ****** ****** ****** ****** ****** ******
      ****** ****** ****** ****** ****** ****** ****** ****** ****** ******
  22  ****** ****** ****** ****** ****** ****** ****** ****** ****** ******
      ****** ****** ****** ****** ****** ****** ****** ****** ****** ******
      ****** ****** ****** ****** ****** ****** ****** ****** ****** ******
  23  ****** ****** ****** ****** ****** ****** ****** ****** ****** ******
      ****** ****** ****** ****** ****** ****** ****** ****** ****** ******
      ****** ****** ****** ****** ****** ****** ****** ****** ****** ******
  24  ****** ****** ****** ****** ****** ****** ****** ****** ****** ******
      ****** ****** ****** ****** ****** ****** ****** ****** ****** ******
      ****** ****** ****** ****** ****** ****** ****** ****** ****** ******
  25  ****** ****** ****** ****** ****** ****** ****** ****** ****** ******
      ****** ****** ****** ****** ****** ****** ****** ****** ****** ******
      ****** ****** ****** ****** ****** ****** ****** ****** ****** ******

 HEAD WILL BE SAVED ON UNIT   51 AT END OF TIME STEP    1, STRESS PERIOD   12
1
  VOLUMETRIC BUDGET FOR ENTIRE MODEL AT END OF TIME STEP    1, STRESS PERIOD  12
  ------------------------------------------------------------------------------

     CUMULATIVE VOLUMES      L**3       RATES FOR THIS TIME STEP      L**3/T
     ------------------                 ------------------------

           IN:                                      IN:
           ---                                      ---
             STORAGE =    21608623.4980               STORAGE =         148.1220
       CONSTANT HEAD =  1302813155.9437         CONSTANT HEAD =     1193613.0352
               WELLS =           0.0000                 WELLS =           0.0000
            RECHARGE =    26413200.0000              RECHARGE =       27600.0000
      STREAM LEAKAGE =           0.0000        STREAM LEAKAGE =           0.0000

            TOTAL IN =  1350834979.4417              TOTAL IN =     1221361.1572

          OUT:                                     OUT:
          ----                                     ----
             STORAGE =     1470168.6245               STORAGE =        1471.1009
       CONSTANT HEAD =           0.0000         CONSTANT HEAD =           0.0000
               WELLS =    87600000.0000                 WELLS =       80000.0000
            RECHARGE =           0.0000              RECHARGE =           0.0000
      STREAM LEAKAGE =  1261764818.1117        STREAM LEAKAGE =     1139890.0333

           TOTAL OUT =  1350834986.7361             TOTAL OUT =     1221361.1342

            IN - OUT =          -7.2944              IN - OUT =       2.2950E-02

 PERCENT DISCREPANCY =          -0.00     PERCENT DISCREPANCY =           0.00






         TIME SUMMARY AT END OF TIME STEP    1 IN STRESS PERIOD   12
                    SECONDS     MINUTES      HOURS       DAYS        YEARS
                    -----------------------------------------------------------
   TIME STEP LENGTH 7.86240E+06 1.31040E+05  2184.0      91.000     0.24914    
 STRESS PERIOD TIME 7.86240E+06 1.31040E+05  2184.0      91.000     0.24914    
         TOTAL TIME 9.46080E+07 1.57680E+06  26280.      1095.0      2.9979    
1

 Run end date and time (yyyy/mm/dd hh:mm:ss): 2018/09/26 15:13:47
 Elapsed run time:  0.047 Seconds

