                                  MODFLOW-2005     
      U.S. GEOLOGICAL SURVEY MODULAR FINITE-DIFFERENCE GROUND-WATER FLOW MODEL
                            VERSION 1.11.00 8/8/2013

 LIST FILE: supply2.lst
                         UNIT   10

 OPENING ..\data\supply.dis
 FILE TYPE:DIS   UNIT   11   STATUS:OLD    
 FORMAT:FORMATTED              ACCESS:SEQUENTIAL          

 OPENING ..\data\supply.ba6
 FILE TYPE:BAS6   UNIT   12   STATUS:OLD    
 FORMAT:FORMATTED              ACCESS:SEQUENTIAL          

 OPENING ..\data\supply.bc6
 FILE TYPE:BCF6   UNIT   13   STATUS:OLD    
 FORMAT:FORMATTED              ACCESS:SEQUENTIAL          

 OPENING ..\data\supply.rch
 FILE TYPE:RCH   UNIT   15   STATUS:OLD    
 FORMAT:FORMATTED              ACCESS:SEQUENTIAL          

 OPENING ..\data\supply2.sfr
 FILE TYPE:SFR   UNIT   16   STATUS:OLD    
 FORMAT:FORMATTED              ACCESS:SEQUENTIAL          

 OPENING ..\data\supply.oc
 FILE TYPE:OC   UNIT   17   STATUS:OLD    
 FORMAT:FORMATTED              ACCESS:SEQUENTIAL          

 OPENING ..\data\supply.pcg
 FILE TYPE:PCG   UNIT   18   STATUS:OLD    
 FORMAT:FORMATTED              ACCESS:SEQUENTIAL          

 OPENING supply2.wel
 FILE TYPE:WEL   UNIT   19   STATUS:OLD    
 FORMAT:FORMATTED              ACCESS:SEQUENTIAL          

 OPENING supply2sf.bin
 FILE TYPE:DATA(BINARY)   UNIT   50   STATUS:UNKNOWN
 FORMAT:BINARY                 ACCESS:SEQUENTIAL          

 OPENING supply2hd.bin
 FILE TYPE:DATA(BINARY)   UNIT   51   STATUS:UNKNOWN
 FORMAT:BINARY                 ACCESS:SEQUENTIAL          

 BAS -- BASIC PACKAGE, VERSION 7, 5/2/2005 INPUT READ FROM UNIT   12
 
 MODFLOW was compiled using uniform precision
 Precision of REAL and DOUBLE PRECISION variables:          15

 DISCRETIZATION INPUT DATA READ FROM UNIT   11
    1 LAYERS        25 ROWS        30 COLUMNS
   12 STRESS PERIOD(S) IN SIMULATION
 MODEL TIME UNIT IS DAYS
 MODEL LENGTH UNIT IS UNDEFINED
  Confining bed flag for each layer:
   0

                     DELR =   200.000    

                     DELC =   200.000    

 TOP ELEVATION OF LAYER 1 =  100.0000    

   MODEL LAYER BOTTOM EL. =   0.00000     FOR LAYER   1


 STRESS PERIOD     LENGTH       TIME STEPS     MULTIPLIER FOR DELT    SS FLAG
 ----------------------------------------------------------------------------
        1         92.00000          1                    1.500         TR
        2         91.00000          1                    1.500         TR
        3         91.00000          1                    1.500         TR
        4         91.00000          1                    1.500         TR
        5         92.00000          1                    1.500         TR
        6         91.00000          1                    1.500         TR
        7         91.00000          1                    1.500         TR
        8         91.00000          1                    1.500         TR
        9         92.00000          1                    1.500         TR
       10         91.00000          1                    1.500         TR
       11         91.00000          1                    1.500         TR
       12         91.00000          1                    1.500         TR

 TRANSIENT SIMULATION



 
 #MODOFC transient water supply sample problem                                   
 #                                                                               
 THE FREE FORMAT OPTION HAS BEEN SELECTED



                     BOUNDARY ARRAY FOR LAYER   1
 READING ON UNIT   12 WITH FORMAT: (20I4)              

 AQUIFER HEAD WILL BE SET TO   0.0000     AT ALL NO-FLOW NODES (IBOUND=0).



                       INITIAL HEAD FOR LAYER   1
 READING ON UNIT   12 WITH FORMAT: (10F13.0)           

 OUTPUT CONTROL IS SPECIFIED ONLY AT TIME STEPS FOR WHICH OUTPUT IS DESIRED
 COMPACT CELL-BY-CELL BUDGET FILES WILL BE WRITTEN
 HEAD PRINT FORMAT CODE IS  18    DRAWDOWN PRINT FORMAT CODE IS   0
 HEADS WILL BE SAVED ON UNIT   51    DRAWDOWNS WILL BE SAVED ON UNIT    0

 BCF -- BLOCK-CENTERED FLOW PACKAGE, VERSION 7, 5/2/2005
         INPUT READ FROM UNIT 13
 TRANSIENT SIMULATION
 HEAD AT CELLS THAT CONVERT TO DRY=   0.0000    
 WETTING CAPABILITY IS NOT ACTIVE
      LAYER  LAYER-TYPE CODE     INTERBLOCK T
      --------------------------------------------
         1            0          0 -- HARMONIC    

 COLUMN TO ROW ANISOTROPY =  1.000000    

     PRIMARY STORAGE COEF =  5.000000E-02 FOR LAYER   1

     TRANSMIS. ALONG ROWS =   5000.00     FOR LAYER   1

 WEL -- WELL PACKAGE, VERSION 7, 5/2/2005 INPUT READ FROM UNIT   19
 # Well package input file written by MMProc
 No named parameters
 MAXIMUM OF      7 ACTIVE WELLS AT ONE TIME


     0 Well parameters

 RCH -- RECHARGE PACKAGE, VERSION 7, 5/2/2005 INPUT READ FROM UNIT   15
 No named parameters
 OPTION 1 -- RECHARGE TO TOP LAYER


     0 Recharge parameters

 SFR7 -- STREAMFLOW ROUTING PACKAGE, VERSION 1.0.7, 2013-01-15
         INPUT READ FROM UNIT  16
 #  Supply2 test problem for GWM-VI
 #  The eighth entry in the first data line is ISTCB2 -
 #    Setting this to a negative number indicates that
 #    streamflows out of the reach will be saved to a
 #    binary file.  The absolute value of ISTCB2 is the
 #    unit to which unformatted flows will be written.
 #
 No named parameters
 Segment information will not be 
 read by reach
 No named parameters
 No specifed inflow files


 NUMBER OF STREAM REACHES IS   40

 NUMBER OF STREAM SEGMENTS IS    3

 NUMBER OF STREAM PARAMETERS IS    0

 NUMBER OF STREAM SEGMENTS DEFINED USING PARAMETERS IS              0

 MAXIMUM ERROR FOR STREAM LEAKAGE RATES IS  1.00E-04

 CONSTANT FOR MANNINGS EQUATION IS  1.2839E+05





   STREAM NETWORK DESCRIPTION: 

   LAYER    ROW    COL   SEGMENT   REACH     LENGTH
                          NUMBER   NUMBER    IN CELL        
   --------------------------------------------------
      1     13      1       1        1    2.0000E+02
      1     13      2       1        2    2.0000E+02
      1     14      3       1        3    2.0000E+02
      1     15      4       1        4    2.0000E+02
      1     16      5       1        5    2.0000E+02
      1     16      6       1        6    2.0000E+02
      1     16      7       1        7    2.0000E+02
      1     16      8       1        8    2.0000E+02
      1     16      9       1        9    2.0000E+02
      1     16     10       1       10    2.0000E+02
      1     16     11       1       11    2.0000E+02
      1     16     12       1       12    2.0000E+02
      1     15     13       1       13    2.0000E+02
      1     14     14       1       14    2.0000E+02
      1     13     15       1       15    2.0000E+02
      1     12     16       1       16    2.0000E+02
      1     12     17       1       17    2.0000E+02
      1     12     18       1       18    2.0000E+02
      1     12     19       1       19    2.0000E+02
      1     13     20       1       20    2.0000E+02
      1     14     21       1       21    2.0000E+02
      1     14     22       1       22    2.0000E+02
      1      9     30       2        1    2.0000E+02
      1      9     29       2        2    2.0000E+02
      1      9     28       2        3    2.0000E+02
      1      9     27       2        4    2.0000E+02
      1     10     26       2        5    2.0000E+02
      1     11     25       2        6    2.0000E+02
      1     12     24       2        7    2.0000E+02
      1     13     23       2        8    2.0000E+02
      1     14     22       2        9    2.0000E+02
      1     14     22       3        1    2.0000E+02
      1     15     23       3        2    2.0000E+02
      1     15     24       3        3    2.0000E+02
      1     15     25       3        4    2.0000E+02
      1     15     26       3        5    2.0000E+02
      1     16     27       3        6    2.0000E+02
      1     17     28       3        7    2.0000E+02
      1     18     29       3        8    2.0000E+02
      1     18     30       3        9    2.0000E+02




 PCG -- CONJUGATE-GRADIENT SOLUTION PACKAGE, VERSION 7, 5/2/2005
 MAXIMUM OF    500 CALLS OF SOLUTION ROUTINE
 MAXIMUM OF      5 INTERNAL ITERATIONS PER CALL TO SOLUTION ROUTINE
 MATRIX PRECONDITIONING TYPE :    1



                                    SOLUTION BY THE CONJUGATE-GRADIENT METHOD
                                   -------------------------------------------
                    MAXIMUM NUMBER OF CALLS TO PCG ROUTINE =      500
                        MAXIMUM ITERATIONS PER CALL TO PCG =        5
                               MATRIX PRECONDITIONING TYPE =        1
        RELAXATION FACTOR (ONLY USED WITH PRECOND. TYPE 1) =    0.10000E+01
 PARAMETER OF POLYNOMIAL PRECOND. = 2 (2) OR IS CALCULATED :        0
                         HEAD CHANGE CRITERION FOR CLOSURE =    0.10000E-05
                     RESIDUAL CHANGE CRITERION FOR CLOSURE =    0.10000E+01
            PCG HEAD AND RESIDUAL CHANGE PRINTOUT INTERVAL =        1
     PRINTING FROM SOLVER IS LIMITED(1) OR SUPPRESSED (>1) =        1
                            STEADY-STATE DAMPING PARAMETER =    0.10000E+01
                               TRANSIENT DAMPING PARAMETER =    0.10000E+01
1
                            STRESS PERIOD NO.    1, LENGTH =   92.00000    
                            -----------------------------------------------

                              NUMBER OF TIME STEPS =     1

                               MULTIPLIER FOR DELT =     1.500

                            INITIAL TIME STEP SIZE =   92.00000    

 WELL NO.  LAYER   ROW   COL   STRESS RATE         
 --------------------------------------------------
      1      1     23     18     -0.5000E+05
      2      1     18     17     -0.3000E+05

      2 WELLS

                 RECHARGE =  5.000000E-04



 CLASSIFICATION & COUNT OF STREAM SEGMENTS BASED ON SOURCE OF INFLOW:

                HEADWATER     DIVERSION     RECEIVES TRIBUTARY FLOW
                ---------     ---------     -----------------------
                     2              0               1



                    INPUT DATA FOR EACH STREAM SEGMENT
 ---------------------------------------------------------------------------------------------

 SEGMENT    SEG.     INFLOW   OVERLAND   STREAM    STREAM   ICALC  OUTFLOW  DIVERSION PRIORITY
    NO.    LENGTH     RATE     RUNOFF      ET       PPT.    METH.  TO SEG.  FROM SEG.    NO.

      1  4.400E+03 1.000E+05 0.000E+00 0.000E+00 0.000E+00    1        3        0        0
      2  1.800E+03 5.000E+04 0.000E+00 0.000E+00 0.000E+00    1        3        0        0
      3  1.800E+03 0.000E+00 0.000E+00 0.000E+00 0.000E+00    1        0        0        0


         STREAMBED PROPERTIES AND STREAM DIMENSIONS

 SEGMENT     BED HYD. COND.      BED THICKNESS     ELEV.-TOP OF BED     WIDTH OF STREAM     DEPTH OF STREAM    STREAM ROUGHNESS
    No.     UPPER     LOWER     UPPER     LOWER     UPPER     LOWER     UPPER     LOWER     UPPER     LOWER   CHANNEL      BANK

     1  5.000E+00 5.000E+00 1.000E+00 1.000E+00 4.850E+01 3.800E+01 2.000E+01 2.000E+01                     5.000E-02
     2  5.000E+00 5.000E+00 1.000E+00 1.000E+00 4.025E+01 3.800E+01 2.000E+01 2.000E+01                     5.000E-02
     3  5.000E+00 5.000E+00 1.000E+00 1.000E+00 3.800E+01 3.000E+01 2.000E+01 2.000E+01                     5.000E-02



 
 SOLVING FOR HEAD 


     8 CALLS TO PCG ROUTINE FOR TIME STEP   1 IN STRESS PERIOD    1
    32 TOTAL ITERATIONS

 OUTPUT CONTROL FOR STRESS PERIOD    1   TIME STEP    1
    SAVE BUDGET
    SAVE HEAD FOR ALL LAYERS
    PRINT HEAD FOR ALL LAYERS
 UBDSV2 SAVING "STREAMFLOW OUT  " ON UNIT  50 AT TIME STEP  1, STRESS PERIOD   1



 STREAM LISTING     PERIOD      1   STEP        1

 LAYER ROW COL. STREAM  RCH.  FLOW INTO     FLOW TO   FLOW OUT OF   OVRLND.     DIRECT     STREAM       STREAM     STREAM     STREAM   STREAMBED  STREAMBED
                SEG.NO.  NO.  STRM. RCH.    AQUIFER    STRM. RCH.    RUNOFF     PRECIP       ET          HEAD       DEPTH      WIDTH   CONDCTNC.   GRADIENT

   1   13    1     1     1    1.0000E+05 -3.1663E+04   1.3166E+05  0.000E+00  0.000E+00  0.000E+00  4.84194E+01  1.580E-01  2.000E+01  2.000E+04 -1.583E+00
   1   13    2     1     2    1.3166E+05 -4.2127E+04   1.7379E+05  0.000E+00  0.000E+00  0.000E+00  4.79706E+01  1.865E-01  2.000E+01  2.000E+04 -2.106E+00
   1   14    3     1     3    1.7379E+05 -3.7644E+04   2.1143E+05  0.000E+00  0.000E+00  0.000E+00  4.75212E+01  2.144E-01  2.000E+01  2.000E+04 -1.882E+00
   1   15    4     1     4    2.1143E+05 -3.6668E+04   2.4810E+05  0.000E+00  0.000E+00  0.000E+00  4.70678E+01  2.383E-01  2.000E+01  2.000E+04 -1.833E+00
   1   16    5     1     5    2.4810E+05 -3.7544E+04   2.8565E+05  0.000E+00  0.000E+00  0.000E+00  4.66130E+01  2.607E-01  2.000E+01  2.000E+04 -1.877E+00
   1   16    6     1     6    2.8565E+05 -3.2799E+04   3.1845E+05  0.000E+00  0.000E+00  0.000E+00  4.61558E+01  2.808E-01  2.000E+01  2.000E+04 -1.640E+00
   1   16    7     1     7    3.1845E+05 -3.2559E+04   3.5100E+05  0.000E+00  0.000E+00  0.000E+00  4.56964E+01  2.986E-01  2.000E+01  2.000E+04 -1.628E+00
   1   16    8     1     8    3.5100E+05 -3.2685E+04   3.8369E+05  0.000E+00  0.000E+00  0.000E+00  4.52362E+01  3.158E-01  2.000E+01  2.000E+04 -1.634E+00
   1   16    9     1     9    3.8369E+05 -3.2649E+04   4.1634E+05  0.000E+00  0.000E+00  0.000E+00  4.47755E+01  3.323E-01  2.000E+01  2.000E+04 -1.632E+00
   1   16   10     1    10    4.1634E+05 -3.2467E+04   4.4880E+05  0.000E+00  0.000E+00  0.000E+00  4.43142E+01  3.483E-01  2.000E+01  2.000E+04 -1.623E+00
   1   16   11     1    11    4.4880E+05 -3.2723E+04   4.8153E+05  0.000E+00  0.000E+00  0.000E+00  4.38525E+01  3.638E-01  2.000E+01  2.000E+04 -1.636E+00
   1   16   12     1    12    4.8153E+05 -3.7704E+04   5.1923E+05  0.000E+00  0.000E+00  0.000E+00  4.33915E+01  3.801E-01  2.000E+01  2.000E+04 -1.885E+00
   1   15   13     1    13    5.1923E+05 -3.6994E+04   5.5623E+05  0.000E+00  0.000E+00  0.000E+00  4.29310E+01  3.969E-01  2.000E+01  2.000E+04 -1.850E+00
   1   14   14     1    14    5.5623E+05 -3.7977E+04   5.9420E+05  0.000E+00  0.000E+00  0.000E+00  4.24701E+01  4.133E-01  2.000E+01  2.000E+04 -1.899E+00
   1   13   15     1    15    5.9420E+05 -4.0635E+04   6.3484E+05  0.000E+00  0.000E+00  0.000E+00  4.20095E+01  4.300E-01  2.000E+01  2.000E+04 -2.032E+00
   1   12   16     1    16    6.3484E+05 -4.7135E+04   6.8197E+05  0.000E+00  0.000E+00  0.000E+00  4.15504E+01  4.481E-01  2.000E+01  2.000E+04 -2.357E+00
   1   12   17     1    17    6.8197E+05 -3.6783E+04   7.1876E+05  0.000E+00  0.000E+00  0.000E+00  4.10901E+01  4.651E-01  2.000E+01  2.000E+04 -1.839E+00
   1   12   18     1    18    7.1876E+05 -3.5062E+04   7.5382E+05  0.000E+00  0.000E+00  0.000E+00  4.06270E+01  4.792E-01  2.000E+01  2.000E+04 -1.753E+00
   1   12   19     1    19    7.5382E+05 -3.9639E+04   7.9346E+05  0.000E+00  0.000E+00  0.000E+00  4.01641E+01  4.937E-01  2.000E+01  2.000E+04 -1.982E+00
   1   13   20     1    20    7.9346E+05 -2.9171E+04   8.2263E+05  0.000E+00  0.000E+00  0.000E+00  3.96999E+01  5.067E-01  2.000E+01  2.000E+04 -1.459E+00
   1   14   21     1    21    8.2263E+05 -2.1140E+04   8.4377E+05  0.000E+00  0.000E+00  0.000E+00  3.92321E+01  5.161E-01  2.000E+01  2.000E+04 -1.057E+00
   1   14   22     1    22    8.4377E+05 -2.5389E+03   8.4631E+05  0.000E+00  0.000E+00  0.000E+00  3.87592E+01  5.205E-01  2.000E+01  2.000E+04 -1.269E-01
   1    9   30     2     1    5.0000E+04 -2.9659E+04   7.9659E+04  0.000E+00  0.000E+00  0.000E+00  4.02604E+01  1.354E-01  2.000E+01  2.000E+04 -1.483E+00
   1    9   29     2     2    7.9659E+04 -3.2099E+04   1.1176E+05  0.000E+00  0.000E+00  0.000E+00  4.00461E+01  1.711E-01  2.000E+01  2.000E+04 -1.605E+00
   1    9   28     2     3    1.1176E+05 -3.6422E+04   1.4818E+05  0.000E+00  0.000E+00  0.000E+00  3.98305E+01  2.055E-01  2.000E+01  2.000E+04 -1.821E+00
   1    9   27     2     4    1.4818E+05 -5.1057E+04   1.9924E+05  0.000E+00  0.000E+00  0.000E+00  3.96196E+01  2.446E-01  2.000E+01  2.000E+04 -2.553E+00
   1   10   26     2     5    1.9924E+05 -3.7454E+04   2.3669E+05  0.000E+00  0.000E+00  0.000E+00  3.94053E+01  2.803E-01  2.000E+01  2.000E+04 -1.873E+00
   1   11   25     2     6    2.3669E+05 -2.9043E+04   2.6573E+05  0.000E+00  0.000E+00  0.000E+00  3.91802E+01  3.052E-01  2.000E+01  2.000E+04 -1.452E+00
   1   12   24     2     7    2.6573E+05 -2.2040E+04   2.8777E+05  0.000E+00  0.000E+00  0.000E+00  3.89485E+01  3.235E-01  2.000E+01  2.000E+04 -1.102E+00
   1   13   23     2     8    2.8777E+05 -1.5878E+04   3.0365E+05  0.000E+00  0.000E+00  0.000E+00  3.87116E+01  3.366E-01  2.000E+01  2.000E+04 -7.939E-01
   1   14   22     2     9    3.0365E+05 -8.3266E+03   3.1198E+05  0.000E+00  0.000E+00  0.000E+00  3.84698E+01  3.448E-01  2.000E+01  2.000E+04 -4.163E-01
   1   14   22     3     1    1.1583E+06 -1.6130E+04   1.1744E+06  0.000E+00  0.000E+00  0.000E+00  3.80796E+01  5.241E-01  2.000E+01  2.000E+04 -8.065E-01
   1   15   23     3     2    1.1744E+06 -2.5252E+04   1.1997E+06  0.000E+00  0.000E+00  0.000E+00  3.71963E+01  5.296E-01  2.000E+01  2.000E+04 -1.263E+00
   1   15   24     3     3    1.1997E+06 -2.1578E+04   1.2212E+06  0.000E+00  0.000E+00  0.000E+00  3.63137E+01  5.359E-01  2.000E+01  2.000E+04 -1.079E+00
   1   15   25     3     4    1.2212E+06 -2.1587E+04   1.2428E+06  0.000E+00  0.000E+00  0.000E+00  3.54305E+01  5.416E-01  2.000E+01  2.000E+04 -1.079E+00
   1   15   26     3     5    1.2428E+06 -2.5187E+04   1.2680E+06  0.000E+00  0.000E+00  0.000E+00  3.45477E+01  5.477E-01  2.000E+01  2.000E+04 -1.259E+00
   1   16   27     3     6    1.2680E+06 -3.2756E+04   1.3008E+06  0.000E+00  0.000E+00  0.000E+00  3.36664E+01  5.553E-01  2.000E+01  2.000E+04 -1.638E+00
   1   17   28     3     7    1.3008E+06 -3.9783E+04   1.3406E+06  0.000E+00  0.000E+00  0.000E+00  3.27869E+01  5.646E-01  2.000E+01  2.000E+04 -1.989E+00
   1   18   29     3     8    1.3406E+06 -5.0285E+04   1.3908E+06  0.000E+00  0.000E+00  0.000E+00  3.19095E+01  5.761E-01  2.000E+01  2.000E+04 -2.514E+00
   1   18   30     3     9    1.3908E+06 -4.6457E+04   1.4373E+06  0.000E+00  0.000E+00  0.000E+00  3.10327E+01  5.883E-01  2.000E+01  2.000E+04 -2.323E+00



1
              HEAD IN LAYER   1 AT END OF TIME STEP   1 IN STRESS PERIOD    1
  ---------------------------------------------------------------------------

          1      2      3      4      5      6      7      8      9     10
         11     12     13     14     15     16     17     18     19     20
         21     22     23     24     25     26     27     28     29     30
 .........................................................................
   1  ****** ****** ****** ****** ****** ****** ****** ****** ****** ******
      ****** ****** ****** ****** ****** ****** ****** ****** ****** ******
      ****** ****** ****** ****** ****** ****** ****** ****** ****** ******
   2  ****** ****** ****** ****** ****** ****** ****** ****** ****** ******
      ****** ****** ****** ****** ****** ****** ****** ****** ****** ******
      ****** ****** ****** ****** ****** ****** ****** ****** ****** ******
   3  ****** ****** ****** ****** ****** ****** ****** ****** ****** ******
      ****** ****** ****** ****** ****** ****** ****** ****** ****** ******
      ****** ****** ****** ****** ****** ****** ****** ****** ****** ******
   4  ****** ****** ****** ****** ****** ****** ****** ****** ****** ******
      ****** ****** ****** ****** ****** ****** ****** ****** ****** ******
      ****** ****** ****** ****** ****** ****** ****** ****** ****** ******
   5  ****** ****** ****** ****** ****** ****** ****** ****** ****** ******
      ****** ****** ****** ****** ****** ****** ****** ****** ****** ******
      ****** ****** ****** ****** ****** ****** ****** ****** ****** ******
   6  ****** ****** ****** ****** ****** ****** ****** ****** ****** ******
      ****** ****** ****** ****** ****** ****** ****** ****** ****** ******
      ****** ****** ****** ****** ****** ****** ****** ****** ****** ******
   7  ****** ****** ****** ****** ****** ****** ****** ****** ****** ******
      ****** ****** ****** ****** ****** ****** ****** ****** ****** ******
      ****** ****** ****** ****** ****** ****** ****** ****** ****** ******
   8  ****** ****** ****** ****** ****** ****** ****** ****** ****** ******
      ****** ****** ****** ****** ****** ****** ****** ****** ****** ******
      ****** ****** ****** ****** ****** ****** ****** ****** ****** ******
   9  ****** ****** ****** ****** ****** ****** ****** ****** ****** ******
      ****** ****** ****** ****** ****** ****** ****** ****** ****** ******
      ****** ****** ****** ****** ****** ****** ****** ****** ****** ******
  10  ****** ****** ****** ****** ****** ****** ****** ****** ****** ******
      ****** ****** ****** ****** ****** ****** ****** ****** ****** ******
      ****** ****** ****** ****** ****** ****** ****** ****** ****** ******
  11  ****** ****** ****** ****** ****** ****** ****** ****** ****** ******
      ****** ****** ****** ****** ****** ****** ****** ****** ****** ******
      ****** ****** ****** ****** ****** ****** ****** ****** ****** ******
  12  ****** ****** ****** ****** ****** ****** ****** ****** ****** ******
      ****** ****** ****** ****** ****** ****** ****** ****** ****** ******
      ****** ****** ****** ****** ****** ****** ****** ****** ****** ******
  13  ****** ****** ****** ****** ****** ****** ****** ****** ****** ******
      ****** ****** ****** ****** ****** ****** ****** ****** ****** ******
      ****** ****** ****** ****** ****** ****** ****** ****** ****** ******
  14  ****** ****** ****** ****** ****** ****** ****** ****** ****** ******
      ****** ****** ****** ****** ****** ****** ****** ****** ****** ******
      ****** ****** ****** ****** ****** ****** ****** ****** ****** ******
  15  ****** ****** ****** ****** ****** ****** ****** ****** ****** ******
      ****** ****** ****** ****** ****** ****** ****** ****** ****** ******
      ****** ****** ****** ****** ****** ****** ****** ****** ****** ******
  16  ****** ****** ****** ****** ****** ****** ****** ****** ****** ******
      ****** ****** ****** ****** ****** ****** ****** ****** ****** ******
      ****** ****** ****** ****** ****** ****** ****** ****** ****** ******
  17  ****** ****** ****** ****** ****** ****** ****** ****** ****** ******
      ****** ****** ****** ****** ****** ****** ****** ****** ****** ******
      ****** ****** ****** ****** ****** ****** ****** ****** ****** ******
  18  ****** ****** ****** ****** ****** ****** ****** ****** ****** ******
      ****** ****** ****** ****** ****** ****** ****** ****** ****** ******
      ****** ****** ****** ****** ****** ****** ****** ****** ****** ******
  19  ****** ****** ****** ****** ****** ****** ****** ****** ****** ******
      ****** ****** ****** ****** ****** ****** ****** ****** ****** ******
      ****** ****** ****** ****** ****** ****** ****** ****** ****** ******
  20  ****** ****** ****** ****** ****** ****** ****** ****** ****** ******
      ****** ****** ****** ****** ****** ****** ****** ****** ****** ******
      ****** ****** ****** ****** ****** ****** ****** ****** ****** ******
  21  ****** ****** ****** ****** ****** ****** ****** ****** ****** ******
      ****** ****** ****** ****** ****** ****** ****** ****** ****** ******
      ****** ****** ****** ****** ****** ****** ****** ****** ****** ******
  22  ****** ****** ****** ****** ****** ****** ****** ****** ****** ******
      ****** ****** ****** ****** ****** ****** ****** ****** ****** ******
      ****** ****** ****** ****** ****** ****** ****** ****** ****** ******
  23  ****** ****** ****** ****** ****** ****** ****** ****** ****** ******
      ****** ****** ****** ****** ****** ****** ****** ****** ****** ******
      ****** ****** ****** ****** ****** ****** ****** ****** ****** ******
  24  ****** ****** ****** ****** ****** ****** ****** ****** ****** ******
      ****** ****** ****** ****** ****** ****** ****** ****** ****** ******
      ****** ****** ****** ****** ****** ****** ****** ****** ****** ******
  25  ****** ****** ****** ****** ****** ****** ****** ****** ****** ******
      ****** ****** ****** ****** ****** ****** ****** ****** ****** ******
      ****** ****** ****** ****** ****** ****** ****** ****** ****** ******

 HEAD WILL BE SAVED ON UNIT   51 AT END OF TIME STEP    1, STRESS PERIOD    1
1
  VOLUMETRIC BUDGET FOR ENTIRE MODEL AT END OF TIME STEP    1, STRESS PERIOD   1
  ------------------------------------------------------------------------------

     CUMULATIVE VOLUMES      L**3       RATES FOR THIS TIME STEP      L**3/T
     ------------------                 ------------------------

           IN:                                      IN:
           ---                                      ---
             STORAGE =    19200114.9203               STORAGE =      208696.9013
       CONSTANT HEAD =   105321644.6918         CONSTANT HEAD =     1144800.4858
               WELLS =           0.0000                 WELLS =           0.0000
            RECHARGE =     1269600.0000              RECHARGE =       13800.0000
      STREAM LEAKAGE =           0.0000        STREAM LEAKAGE =           0.0000

            TOTAL IN =   125791359.6121              TOTAL IN =     1367297.3871

          OUT:                                     OUT:
          ----                                     ----
             STORAGE =           0.0000               STORAGE =           0.0000
       CONSTANT HEAD =           0.0000         CONSTANT HEAD =           0.0000
               WELLS =     7360000.0000                 WELLS =       80000.0000
            RECHARGE =           0.0000              RECHARGE =           0.0000
      STREAM LEAKAGE =   118431361.3082        STREAM LEAKAGE =     1287297.4055

           TOTAL OUT =   125791361.3082             TOTAL OUT =     1367297.4055

            IN - OUT =          -1.6961              IN - OUT =      -1.8436E-02

 PERCENT DISCREPANCY =          -0.00     PERCENT DISCREPANCY =          -0.00






         TIME SUMMARY AT END OF TIME STEP    1 IN STRESS PERIOD    1
                    SECONDS     MINUTES      HOURS       DAYS        YEARS
                    -----------------------------------------------------------
   TIME STEP LENGTH 7.94880E+06 1.32480E+05  2208.0      92.000     0.25188    
 STRESS PERIOD TIME 7.94880E+06 1.32480E+05  2208.0      92.000     0.25188    
         TOTAL TIME 7.94880E+06 1.32480E+05  2208.0      92.000     0.25188    
1
1
                            STRESS PERIOD NO.    2, LENGTH =   91.00000    
                            -----------------------------------------------

                              NUMBER OF TIME STEPS =     1

                               MULTIPLIER FOR DELT =     1.500

                            INITIAL TIME STEP SIZE =   91.00000    

 WELL NO.  LAYER   ROW   COL   STRESS RATE         
 --------------------------------------------------
      1      1     23     18     -0.5000E+05
      2      1     18     17       0.000    
      3      1     23     16     -0.3000E+05

      3 WELLS

                 RECHARGE =  2.000000E-03

 REUSING STREAM SEGMENT DATA FROM LAST STRESS PERIOD
 
 SOLVING FOR HEAD 


     6 CALLS TO PCG ROUTINE FOR TIME STEP   1 IN STRESS PERIOD    2
    24 TOTAL ITERATIONS

 OUTPUT CONTROL FOR STRESS PERIOD    2   TIME STEP    1
    SAVE BUDGET
    SAVE HEAD FOR ALL LAYERS
    PRINT HEAD FOR ALL LAYERS
 UBDSV2 SAVING "STREAMFLOW OUT  " ON UNIT  50 AT TIME STEP  1, STRESS PERIOD   2



 STREAM LISTING     PERIOD      2   STEP        1

 LAYER ROW COL. STREAM  RCH.  FLOW INTO     FLOW TO   FLOW OUT OF   OVRLND.     DIRECT     STREAM       STREAM     STREAM     STREAM   STREAMBED  STREAMBED
                SEG.NO.  NO.  STRM. RCH.    AQUIFER    STRM. RCH.    RUNOFF     PRECIP       ET          HEAD       DEPTH      WIDTH   CONDCTNC.   GRADIENT

   1   13    1     1     1    1.0000E+05 -2.8530E+04   1.2853E+05  0.000E+00  0.000E+00  0.000E+00  4.84181E+01  1.567E-01  2.000E+01  2.000E+04 -1.427E+00
   1   13    2     1     2    1.2853E+05 -3.8424E+04   1.6695E+05  0.000E+00  0.000E+00  0.000E+00  4.79669E+01  1.828E-01  2.000E+01  2.000E+04 -1.921E+00
   1   14    3     1     3    1.6695E+05 -3.3842E+04   2.0080E+05  0.000E+00  0.000E+00  0.000E+00  4.75153E+01  2.085E-01  2.000E+01  2.000E+04 -1.692E+00
   1   15    4     1     4    2.0080E+05 -3.3003E+04   2.3380E+05  0.000E+00  0.000E+00  0.000E+00  4.70600E+01  2.304E-01  2.000E+01  2.000E+04 -1.650E+00
   1   16    5     1     5    2.3380E+05 -3.4369E+04   2.6817E+05  0.000E+00  0.000E+00  0.000E+00  4.66035E+01  2.513E-01  2.000E+01  2.000E+04 -1.718E+00
   1   16    6     1     6    2.6817E+05 -3.0006E+04   2.9817E+05  0.000E+00  0.000E+00  0.000E+00  4.61451E+01  2.701E-01  2.000E+01  2.000E+04 -1.500E+00
   1   16    7     1     7    2.9817E+05 -2.9786E+04   3.2796E+05  0.000E+00  0.000E+00  0.000E+00  4.56846E+01  2.869E-01  2.000E+01  2.000E+04 -1.489E+00
   1   16    8     1     8    3.2796E+05 -2.9911E+04   3.5787E+05  0.000E+00  0.000E+00  0.000E+00  4.52235E+01  3.030E-01  2.000E+01  2.000E+04 -1.496E+00
   1   16    9     1     9    3.5787E+05 -2.9901E+04   3.8777E+05  0.000E+00  0.000E+00  0.000E+00  4.47618E+01  3.186E-01  2.000E+01  2.000E+04 -1.495E+00
   1   16   10     1    10    3.8777E+05 -2.9793E+04   4.1757E+05  0.000E+00  0.000E+00  0.000E+00  4.42996E+01  3.337E-01  2.000E+01  2.000E+04 -1.490E+00
   1   16   11     1    11    4.1757E+05 -3.0179E+04   4.4774E+05  0.000E+00  0.000E+00  0.000E+00  4.38370E+01  3.483E-01  2.000E+01  2.000E+04 -1.509E+00
   1   16   12     1    12    4.4774E+05 -3.5231E+04   4.8297E+05  0.000E+00  0.000E+00  0.000E+00  4.33753E+01  3.639E-01  2.000E+01  2.000E+04 -1.762E+00
   1   15   13     1    13    4.8297E+05 -3.4252E+04   5.1723E+05  0.000E+00  0.000E+00  0.000E+00  4.29141E+01  3.800E-01  2.000E+01  2.000E+04 -1.713E+00
   1   14   14     1    14    5.1723E+05 -3.5094E+04   5.5232E+05  0.000E+00  0.000E+00  0.000E+00  4.24524E+01  3.956E-01  2.000E+01  2.000E+04 -1.755E+00
   1   13   15     1    15    5.5232E+05 -3.7582E+04   5.8990E+05  0.000E+00  0.000E+00  0.000E+00  4.19910E+01  4.115E-01  2.000E+01  2.000E+04 -1.879E+00
   1   12   16     1    16    5.8990E+05 -4.3942E+04   6.3384E+05  0.000E+00  0.000E+00  0.000E+00  4.15311E+01  4.289E-01  2.000E+01  2.000E+04 -2.197E+00
   1   12   17     1    17    6.3384E+05 -3.4270E+04   6.6811E+05  0.000E+00  0.000E+00  0.000E+00  4.10701E+01  4.451E-01  2.000E+01  2.000E+04 -1.714E+00
   1   12   18     1    18    6.6811E+05 -3.2621E+04   7.0074E+05  0.000E+00  0.000E+00  0.000E+00  4.06064E+01  4.587E-01  2.000E+01  2.000E+04 -1.631E+00
   1   12   19     1    19    7.0074E+05 -3.6806E+04   7.3754E+05  0.000E+00  0.000E+00  0.000E+00  4.01430E+01  4.725E-01  2.000E+01  2.000E+04 -1.840E+00
   1   13   20     1    20    7.3754E+05 -2.6731E+04   7.6427E+05  0.000E+00  0.000E+00  0.000E+00  3.96781E+01  4.849E-01  2.000E+01  2.000E+04 -1.337E+00
   1   14   21     1    21    7.6427E+05 -1.9307E+04   7.8358E+05  0.000E+00  0.000E+00  0.000E+00  3.92097E+01  4.938E-01  2.000E+01  2.000E+04 -9.654E-01
   1   14   22     1    22    7.8358E+05 -1.6846E+03   7.8527E+05  0.000E+00  0.000E+00  0.000E+00  3.87364E+01  4.978E-01  2.000E+01  2.000E+04 -8.423E-02
   1    9   30     2     1    5.0000E+04 -2.7012E+04   7.7012E+04  0.000E+00  0.000E+00  0.000E+00  4.02587E+01  1.337E-01  2.000E+01  2.000E+04 -1.351E+00
   1    9   29     2     2    7.7012E+04 -2.9480E+04   1.0649E+05  0.000E+00  0.000E+00  0.000E+00  4.00418E+01  1.668E-01  2.000E+01  2.000E+04 -1.474E+00
   1    9   28     2     3    1.0649E+05 -3.3789E+04   1.4028E+05  0.000E+00  0.000E+00  0.000E+00  3.98242E+01  1.992E-01  2.000E+01  2.000E+04 -1.689E+00
   1    9   27     2     4    1.4028E+05 -4.8035E+04   1.8832E+05  0.000E+00  0.000E+00  0.000E+00  3.96116E+01  2.366E-01  2.000E+01  2.000E+04 -2.402E+00
   1   10   26     2     5    1.8832E+05 -3.4030E+04   2.2235E+05  0.000E+00  0.000E+00  0.000E+00  3.93954E+01  2.704E-01  2.000E+01  2.000E+04 -1.702E+00
   1   11   25     2     6    2.2235E+05 -2.5654E+04   2.4800E+05  0.000E+00  0.000E+00  0.000E+00  3.91684E+01  2.934E-01  2.000E+01  2.000E+04 -1.283E+00
   1   12   24     2     7    2.4800E+05 -1.8998E+04   2.6700E+05  0.000E+00  0.000E+00  0.000E+00  3.89348E+01  3.098E-01  2.000E+01  2.000E+04 -9.499E-01
   1   13   23     2     8    2.6700E+05 -1.3477E+04   2.8048E+05  0.000E+00  0.000E+00  0.000E+00  3.86963E+01  3.213E-01  2.000E+01  2.000E+04 -6.739E-01
   1   14   22     2     9    2.8048E+05 -7.3409E+03   2.8782E+05  0.000E+00  0.000E+00  0.000E+00  3.84536E+01  3.286E-01  2.000E+01  2.000E+04 -3.670E-01
   1   14   22     3     1    1.0731E+06 -1.5289E+04   1.0884E+06  0.000E+00  0.000E+00  0.000E+00  3.80562E+01  5.006E-01  2.000E+01  2.000E+04 -7.645E-01
   1   15   23     3     2    1.0884E+06 -2.3273E+04   1.1116E+06  0.000E+00  0.000E+00  0.000E+00  3.71727E+01  5.060E-01  2.000E+01  2.000E+04 -1.164E+00
   1   15   24     3     3    1.1116E+06 -1.9594E+04   1.1312E+06  0.000E+00  0.000E+00  0.000E+00  3.62897E+01  5.119E-01  2.000E+01  2.000E+04 -9.797E-01
   1   15   25     3     4    1.1312E+06 -1.9357E+04   1.1506E+06  0.000E+00  0.000E+00  0.000E+00  3.54061E+01  5.172E-01  2.000E+01  2.000E+04 -9.679E-01
   1   15   26     3     5    1.1506E+06 -2.2291E+04   1.1729E+06  0.000E+00  0.000E+00  0.000E+00  3.45228E+01  5.228E-01  2.000E+01  2.000E+04 -1.115E+00
   1   16   27     3     6    1.1729E+06 -2.9439E+04   1.2023E+06  0.000E+00  0.000E+00  0.000E+00  3.36409E+01  5.298E-01  2.000E+01  2.000E+04 -1.472E+00
   1   17   28     3     7    1.2023E+06 -3.6512E+04   1.2388E+06  0.000E+00  0.000E+00  0.000E+00  3.27608E+01  5.386E-01  2.000E+01  2.000E+04 -1.826E+00
   1   18   29     3     8    1.2388E+06 -4.7495E+04   1.2863E+06  0.000E+00  0.000E+00  0.000E+00  3.18829E+01  5.496E-01  2.000E+01  2.000E+04 -2.375E+00
   1   18   30     3     9    1.2863E+06 -4.3967E+04   1.3303E+06  0.000E+00  0.000E+00  0.000E+00  3.10059E+01  5.615E-01  2.000E+01  2.000E+04 -2.198E+00



1
              HEAD IN LAYER   1 AT END OF TIME STEP   1 IN STRESS PERIOD    2
  ---------------------------------------------------------------------------

          1      2      3      4      5      6      7      8      9     10
         11     12     13     14     15     16     17     18     19     20
         21     22     23     24     25     26     27     28     29     30
 .........................................................................
   1  ****** ****** ****** ****** ****** ****** ****** ****** ****** ******
      ****** ****** ****** ****** ****** ****** ****** ****** ****** ******
      ****** ****** ****** ****** ****** ****** ****** ****** ****** ******
   2  ****** ****** ****** ****** ****** ****** ****** ****** ****** ******
      ****** ****** ****** ****** ****** ****** ****** ****** ****** ******
      ****** ****** ****** ****** ****** ****** ****** ****** ****** ******
   3  ****** ****** ****** ****** ****** ****** ****** ****** ****** ******
      ****** ****** ****** ****** ****** ****** ****** ****** ****** ******
      ****** ****** ****** ****** ****** ****** ****** ****** ****** ******
   4  ****** ****** ****** ****** ****** ****** ****** ****** ****** ******
      ****** ****** ****** ****** ****** ****** ****** ****** ****** ******
      ****** ****** ****** ****** ****** ****** ****** ****** ****** ******
   5  ****** ****** ****** ****** ****** ****** ****** ****** ****** ******
      ****** ****** ****** ****** ****** ****** ****** ****** ****** ******
      ****** ****** ****** ****** ****** ****** ****** ****** ****** ******
   6  ****** ****** ****** ****** ****** ****** ****** ****** ****** ******
      ****** ****** ****** ****** ****** ****** ****** ****** ****** ******
      ****** ****** ****** ****** ****** ****** ****** ****** ****** ******
   7  ****** ****** ****** ****** ****** ****** ****** ****** ****** ******
      ****** ****** ****** ****** ****** ****** ****** ****** ****** ******
      ****** ****** ****** ****** ****** ****** ****** ****** ****** ******
   8  ****** ****** ****** ****** ****** ****** ****** ****** ****** ******
      ****** ****** ****** ****** ****** ****** ****** ****** ****** ******
      ****** ****** ****** ****** ****** ****** ****** ****** ****** ******
   9  ****** ****** ****** ****** ****** ****** ****** ****** ****** ******
      ****** ****** ****** ****** ****** ****** ****** ****** ****** ******
      ****** ****** ****** ****** ****** ****** ****** ****** ****** ******
  10  ****** ****** ****** ****** ****** ****** ****** ****** ****** ******
      ****** ****** ****** ****** ****** ****** ****** ****** ****** ******
      ****** ****** ****** ****** ****** ****** ****** ****** ****** ******
  11  ****** ****** ****** ****** ****** ****** ****** ****** ****** ******
      ****** ****** ****** ****** ****** ****** ****** ****** ****** ******
      ****** ****** ****** ****** ****** ****** ****** ****** ****** ******
  12  ****** ****** ****** ****** ****** ****** ****** ****** ****** ******
      ****** ****** ****** ****** ****** ****** ****** ****** ****** ******
      ****** ****** ****** ****** ****** ****** ****** ****** ****** ******
  13  ****** ****** ****** ****** ****** ****** ****** ****** ****** ******
      ****** ****** ****** ****** ****** ****** ****** ****** ****** ******
      ****** ****** ****** ****** ****** ****** ****** ****** ****** ******
  14  ****** ****** ****** ****** ****** ****** ****** ****** ****** ******
      ****** ****** ****** ****** ****** ****** ****** ****** ****** ******
      ****** ****** ****** ****** ****** ****** ****** ****** ****** ******
  15  ****** ****** ****** ****** ****** ****** ****** ****** ****** ******
      ****** ****** ****** ****** ****** ****** ****** ****** ****** ******
      ****** ****** ****** ****** ****** ****** ****** ****** ****** ******
  16  ****** ****** ****** ****** ****** ****** ****** ****** ****** ******
      ****** ****** ****** ****** ****** ****** ****** ****** ****** ******
      ****** ****** ****** ****** ****** ****** ****** ****** ****** ******
  17  ****** ****** ****** ****** ****** ****** ****** ****** ****** ******
      ****** ****** ****** ****** ****** ****** ****** ****** ****** ******
      ****** ****** ****** ****** ****** ****** ****** ****** ****** ******
  18  ****** ****** ****** ****** ****** ****** ****** ****** ****** ******
      ****** ****** ****** ****** ****** ****** ****** ****** ****** ******
      ****** ****** ****** ****** ****** ****** ****** ****** ****** ******
  19  ****** ****** ****** ****** ****** ****** ****** ****** ****** ******
      ****** ****** ****** ****** ****** ****** ****** ****** ****** ******
      ****** ****** ****** ****** ****** ****** ****** ****** ****** ******
  20  ****** ****** ****** ****** ****** ****** ****** ****** ****** ******
      ****** ****** ****** ****** ****** ****** ****** ****** ****** ******
      ****** ****** ****** ****** ****** ****** ****** ****** ****** ******
  21  ****** ****** ****** ****** ****** ****** ****** ****** ****** ******
      ****** ****** ****** ****** ****** ****** ****** ****** ****** ******
      ****** ****** ****** ****** ****** ****** ****** ****** ****** ******
  22  ****** ****** ****** ****** ****** ****** ****** ****** ****** ******
      ****** ****** ****** ****** ****** ****** ****** ****** ****** ******
      ****** ****** ****** ****** ****** ****** ****** ****** ****** ******
  23  ****** ****** ****** ****** ****** ****** ****** ****** ****** ******
      ****** ****** ****** ****** ****** ****** ****** ****** ****** ******
      ****** ****** ****** ****** ****** ****** ****** ****** ****** ******
  24  ****** ****** ****** ****** ****** ****** ****** ****** ****** ******
      ****** ****** ****** ****** ****** ****** ****** ****** ****** ******
      ****** ****** ****** ****** ****** ****** ****** ****** ****** ******
  25  ****** ****** ****** ****** ****** ****** ****** ****** ****** ******
      ****** ****** ****** ****** ****** ****** ****** ****** ****** ******
      ****** ****** ****** ****** ****** ****** ****** ****** ****** ******

 HEAD WILL BE SAVED ON UNIT   51 AT END OF TIME STEP    1, STRESS PERIOD    2
1
  VOLUMETRIC BUDGET FOR ENTIRE MODEL AT END OF TIME STEP    1, STRESS PERIOD   2
  ------------------------------------------------------------------------------

     CUMULATIVE VOLUMES      L**3       RATES FOR THIS TIME STEP      L**3/T
     ------------------                 ------------------------

           IN:                                      IN:
           ---                                      ---
             STORAGE =    19820666.9111               STORAGE =        6819.2526
       CONSTANT HEAD =   214379263.5947         CONSTANT HEAD =     1198435.3726
               WELLS =           0.0000                 WELLS =           0.0000
            RECHARGE =     6292800.0000              RECHARGE =       55200.0000
      STREAM LEAKAGE =           0.0000        STREAM LEAKAGE =           0.0000

            TOTAL IN =   240492730.5058              TOTAL IN =     1260454.6252

          OUT:                                     OUT:
          ----                                     ----
             STORAGE =       14045.9625               STORAGE =         154.3512
       CONSTANT HEAD =           0.0000         CONSTANT HEAD =           0.0000
               WELLS =    14640000.0000                 WELLS =       80000.0000
            RECHARGE =           0.0000              RECHARGE =           0.0000
      STREAM LEAKAGE =   225838692.1087        STREAM LEAKAGE =     1180300.3385

           TOTAL OUT =   240492738.0712             TOTAL OUT =     1260454.6897

            IN - OUT =          -7.5654              IN - OUT =      -6.4498E-02

 PERCENT DISCREPANCY =          -0.00     PERCENT DISCREPANCY =          -0.00






         TIME SUMMARY AT END OF TIME STEP    1 IN STRESS PERIOD    2
                    SECONDS     MINUTES      HOURS       DAYS        YEARS
                    -----------------------------------------------------------
   TIME STEP LENGTH 7.86240E+06 1.31040E+05  2184.0      91.000     0.24914    
 STRESS PERIOD TIME 7.86240E+06 1.31040E+05  2184.0      91.000     0.24914    
         TOTAL TIME 1.58112E+07 2.63520E+05  4392.0      183.00     0.50103    
1
1
                            STRESS PERIOD NO.    3, LENGTH =   91.00000    
                            -----------------------------------------------

                              NUMBER OF TIME STEPS =     1

                               MULTIPLIER FOR DELT =     1.500

                            INITIAL TIME STEP SIZE =   91.00000    

 WELL NO.  LAYER   ROW   COL   STRESS RATE         
 --------------------------------------------------
      1      1     23     18     -0.5000E+05
      2      1     18     17     -0.2969E+05

      2 WELLS

                 RECHARGE =   0.00000    

 REUSING STREAM SEGMENT DATA FROM LAST STRESS PERIOD
 
 SOLVING FOR HEAD 


     6 CALLS TO PCG ROUTINE FOR TIME STEP   1 IN STRESS PERIOD    3
    23 TOTAL ITERATIONS

 OUTPUT CONTROL FOR STRESS PERIOD    3   TIME STEP    1
    SAVE BUDGET
    SAVE HEAD FOR ALL LAYERS
    PRINT HEAD FOR ALL LAYERS
 UBDSV2 SAVING "STREAMFLOW OUT  " ON UNIT  50 AT TIME STEP  1, STRESS PERIOD   3



 STREAM LISTING     PERIOD      3   STEP        1

 LAYER ROW COL. STREAM  RCH.  FLOW INTO     FLOW TO   FLOW OUT OF   OVRLND.     DIRECT     STREAM       STREAM     STREAM     STREAM   STREAMBED  STREAMBED
                SEG.NO.  NO.  STRM. RCH.    AQUIFER    STRM. RCH.    RUNOFF     PRECIP       ET          HEAD       DEPTH      WIDTH   CONDCTNC.   GRADIENT

   1   13    1     1     1    1.0000E+05 -2.7492E+04   1.2749E+05  0.000E+00  0.000E+00  0.000E+00  4.84176E+01  1.563E-01  2.000E+01  2.000E+04 -1.375E+00
   1   13    2     1     2    1.2749E+05 -3.7173E+04   1.6466E+05  0.000E+00  0.000E+00  0.000E+00  4.79657E+01  1.816E-01  2.000E+01  2.000E+04 -1.859E+00
   1   14    3     1     3    1.6466E+05 -3.2630E+04   1.9729E+05  0.000E+00  0.000E+00  0.000E+00  4.75133E+01  2.065E-01  2.000E+01  2.000E+04 -1.632E+00
   1   15    4     1     4    1.9729E+05 -3.1846E+04   2.2914E+05  0.000E+00  0.000E+00  0.000E+00  4.70574E+01  2.278E-01  2.000E+01  2.000E+04 -1.592E+00
   1   16    5     1     5    2.2914E+05 -3.3332E+04   2.6247E+05  0.000E+00  0.000E+00  0.000E+00  4.66004E+01  2.481E-01  2.000E+01  2.000E+04 -1.667E+00
   1   16    6     1     6    2.6247E+05 -2.9092E+04   2.9156E+05  0.000E+00  0.000E+00  0.000E+00  4.61416E+01  2.666E-01  2.000E+01  2.000E+04 -1.455E+00
   1   16    7     1     7    2.9156E+05 -2.8864E+04   3.2043E+05  0.000E+00  0.000E+00  0.000E+00  4.56807E+01  2.830E-01  2.000E+01  2.000E+04 -1.443E+00
   1   16    8     1     8    3.2043E+05 -2.8961E+04   3.4939E+05  0.000E+00  0.000E+00  0.000E+00  4.52192E+01  2.987E-01  2.000E+01  2.000E+04 -1.448E+00
   1   16    9     1     9    3.4939E+05 -2.8909E+04   3.7830E+05  0.000E+00  0.000E+00  0.000E+00  4.47571E+01  3.140E-01  2.000E+01  2.000E+04 -1.445E+00
   1   16   10     1    10    3.7830E+05 -2.8722E+04   4.0702E+05  0.000E+00  0.000E+00  0.000E+00  4.42946E+01  3.287E-01  2.000E+01  2.000E+04 -1.436E+00
   1   16   11     1    11    4.0702E+05 -2.8917E+04   4.3594E+05  0.000E+00  0.000E+00  0.000E+00  4.38316E+01  3.429E-01  2.000E+01  2.000E+04 -1.446E+00
   1   16   12     1    12    4.3594E+05 -3.3279E+04   4.6922E+05  0.000E+00  0.000E+00  0.000E+00  4.33692E+01  3.579E-01  2.000E+01  2.000E+04 -1.664E+00
   1   15   13     1    13    4.6922E+05 -3.1916E+04   5.0113E+05  0.000E+00  0.000E+00  0.000E+00  4.29072E+01  3.731E-01  2.000E+01  2.000E+04 -1.596E+00
   1   14   14     1    14    5.0113E+05 -3.2671E+04   5.3380E+05  0.000E+00  0.000E+00  0.000E+00  4.24447E+01  3.878E-01  2.000E+01  2.000E+04 -1.634E+00
   1   13   15     1    15    5.3380E+05 -3.5387E+04   5.6919E+05  0.000E+00  0.000E+00  0.000E+00  4.19825E+01  4.029E-01  2.000E+01  2.000E+04 -1.769E+00
   1   12   16     1    16    5.6919E+05 -4.2229E+04   6.1142E+05  0.000E+00  0.000E+00  0.000E+00  4.15220E+01  4.197E-01  2.000E+01  2.000E+04 -2.111E+00
   1   12   17     1    17    6.1142E+05 -3.2737E+04   6.4416E+05  0.000E+00  0.000E+00  0.000E+00  4.10605E+01  4.355E-01  2.000E+01  2.000E+04 -1.637E+00
   1   12   18     1    18    6.4416E+05 -3.1156E+04   6.7531E+05  0.000E+00  0.000E+00  0.000E+00  4.05964E+01  4.487E-01  2.000E+01  2.000E+04 -1.558E+00
   1   12   19     1    19    6.7531E+05 -3.5356E+04   7.1067E+05  0.000E+00  0.000E+00  0.000E+00  4.01326E+01  4.621E-01  2.000E+01  2.000E+04 -1.768E+00
   1   13   20     1    20    7.1067E+05 -2.4994E+04   7.3566E+05  0.000E+00  0.000E+00  0.000E+00  3.96673E+01  4.741E-01  2.000E+01  2.000E+04 -1.250E+00
   1   14   21     1    21    7.3566E+05 -1.7568E+04   7.5323E+05  0.000E+00  0.000E+00  0.000E+00  3.91983E+01  4.824E-01  2.000E+01  2.000E+04 -8.784E-01
   1   14   22     1    22    7.5323E+05 -1.2183E+03   7.5445E+05  0.000E+00  0.000E+00  0.000E+00  3.87247E+01  4.861E-01  2.000E+01  2.000E+04 -6.091E-02
   1    9   30     2     1    5.0000E+04 -2.6337E+04   7.6337E+04  0.000E+00  0.000E+00  0.000E+00  4.02583E+01  1.333E-01  2.000E+01  2.000E+04 -1.317E+00
   1    9   29     2     2    7.6337E+04 -2.8805E+04   1.0514E+05  0.000E+00  0.000E+00  0.000E+00  4.00407E+01  1.657E-01  2.000E+01  2.000E+04 -1.440E+00
   1    9   28     2     3    1.0514E+05 -3.3088E+04   1.3823E+05  0.000E+00  0.000E+00  0.000E+00  3.98226E+01  1.976E-01  2.000E+01  2.000E+04 -1.654E+00
   1    9   27     2     4    1.3823E+05 -4.7169E+04   1.8540E+05  0.000E+00  0.000E+00  0.000E+00  3.96094E+01  2.344E-01  2.000E+01  2.000E+04 -2.358E+00
   1   10   26     2     5    1.8540E+05 -3.3120E+04   2.1852E+05  0.000E+00  0.000E+00  0.000E+00  3.93928E+01  2.678E-01  2.000E+01  2.000E+04 -1.656E+00
   1   11   25     2     6    2.1852E+05 -2.4761E+04   2.4328E+05  0.000E+00  0.000E+00  0.000E+00  3.91652E+01  2.902E-01  2.000E+01  2.000E+04 -1.238E+00
   1   12   24     2     7    2.4328E+05 -1.8171E+04   2.6145E+05  0.000E+00  0.000E+00  0.000E+00  3.89310E+01  3.060E-01  2.000E+01  2.000E+04 -9.085E-01
   1   13   23     2     8    2.6145E+05 -1.2733E+04   2.7418E+05  0.000E+00  0.000E+00  0.000E+00  3.86922E+01  3.172E-01  2.000E+01  2.000E+04 -6.366E-01
   1   14   22     2     9    2.7418E+05 -6.7318E+03   2.8092E+05  0.000E+00  0.000E+00  0.000E+00  3.84490E+01  3.240E-01  2.000E+01  2.000E+04 -3.366E-01
   1   14   22     3     1    1.0354E+06 -1.4801E+04   1.0502E+06  0.000E+00  0.000E+00  0.000E+00  3.80456E+01  4.900E-01  2.000E+01  2.000E+04 -7.400E-01
   1   15   23     3     2    1.0502E+06 -2.1958E+04   1.0721E+06  0.000E+00  0.000E+00  0.000E+00  3.71618E+01  4.952E-01  2.000E+01  2.000E+04 -1.098E+00
   1   15   24     3     3    1.0721E+06 -1.8727E+04   1.0909E+06  0.000E+00  0.000E+00  0.000E+00  3.62786E+01  5.009E-01  2.000E+01  2.000E+04 -9.364E-01
   1   15   25     3     4    1.0909E+06 -1.8617E+04   1.1095E+06  0.000E+00  0.000E+00  0.000E+00  3.53949E+01  5.060E-01  2.000E+01  2.000E+04 -9.308E-01
   1   15   26     3     5    1.1095E+06 -2.1520E+04   1.1310E+06  0.000E+00  0.000E+00  0.000E+00  3.45115E+01  5.115E-01  2.000E+01  2.000E+04 -1.076E+00
   1   16   27     3     6    1.1310E+06 -2.8492E+04   1.1595E+06  0.000E+00  0.000E+00  0.000E+00  3.36295E+01  5.184E-01  2.000E+01  2.000E+04 -1.425E+00
   1   17   28     3     7    1.1595E+06 -3.5565E+04   1.1950E+06  0.000E+00  0.000E+00  0.000E+00  3.27492E+01  5.270E-01  2.000E+01  2.000E+04 -1.778E+00
   1   18   29     3     8    1.1950E+06 -4.6628E+04   1.2417E+06  0.000E+00  0.000E+00  0.000E+00  3.18713E+01  5.380E-01  2.000E+01  2.000E+04 -2.331E+00
   1   18   30     3     9    1.2417E+06 -4.3272E+04   1.2849E+06  0.000E+00  0.000E+00  0.000E+00  3.09942E+01  5.498E-01  2.000E+01  2.000E+04 -2.164E+00



1
              HEAD IN LAYER   1 AT END OF TIME STEP   1 IN STRESS PERIOD    3
  ---------------------------------------------------------------------------

          1      2      3      4      5      6      7      8      9     10
         11     12     13     14     15     16     17     18     19     20
         21     22     23     24     25     26     27     28     29     30
 .........................................................................
   1  ****** ****** ****** ****** ****** ****** ****** ****** ****** ******
      ****** ****** ****** ****** ****** ****** ****** ****** ****** ******
      ****** ****** ****** ****** ****** ****** ****** ****** ****** ******
   2  ****** ****** ****** ****** ****** ****** ****** ****** ****** ******
      ****** ****** ****** ****** ****** ****** ****** ****** ****** ******
      ****** ****** ****** ****** ****** ****** ****** ****** ****** ******
   3  ****** ****** ****** ****** ****** ****** ****** ****** ****** ******
      ****** ****** ****** ****** ****** ****** ****** ****** ****** ******
      ****** ****** ****** ****** ****** ****** ****** ****** ****** ******
   4  ****** ****** ****** ****** ****** ****** ****** ****** ****** ******
      ****** ****** ****** ****** ****** ****** ****** ****** ****** ******
      ****** ****** ****** ****** ****** ****** ****** ****** ****** ******
   5  ****** ****** ****** ****** ****** ****** ****** ****** ****** ******
      ****** ****** ****** ****** ****** ****** ****** ****** ****** ******
      ****** ****** ****** ****** ****** ****** ****** ****** ****** ******
   6  ****** ****** ****** ****** ****** ****** ****** ****** ****** ******
      ****** ****** ****** ****** ****** ****** ****** ****** ****** ******
      ****** ****** ****** ****** ****** ****** ****** ****** ****** ******
   7  ****** ****** ****** ****** ****** ****** ****** ****** ****** ******
      ****** ****** ****** ****** ****** ****** ****** ****** ****** ******
      ****** ****** ****** ****** ****** ****** ****** ****** ****** ******
   8  ****** ****** ****** ****** ****** ****** ****** ****** ****** ******
      ****** ****** ****** ****** ****** ****** ****** ****** ****** ******
      ****** ****** ****** ****** ****** ****** ****** ****** ****** ******
   9  ****** ****** ****** ****** ****** ****** ****** ****** ****** ******
      ****** ****** ****** ****** ****** ****** ****** ****** ****** ******
      ****** ****** ****** ****** ****** ****** ****** ****** ****** ******
  10  ****** ****** ****** ****** ****** ****** ****** ****** ****** ******
      ****** ****** ****** ****** ****** ****** ****** ****** ****** ******
      ****** ****** ****** ****** ****** ****** ****** ****** ****** ******
  11  ****** ****** ****** ****** ****** ****** ****** ****** ****** ******
      ****** ****** ****** ****** ****** ****** ****** ****** ****** ******
      ****** ****** ****** ****** ****** ****** ****** ****** ****** ******
  12  ****** ****** ****** ****** ****** ****** ****** ****** ****** ******
      ****** ****** ****** ****** ****** ****** ****** ****** ****** ******
      ****** ****** ****** ****** ****** ****** ****** ****** ****** ******
  13  ****** ****** ****** ****** ****** ****** ****** ****** ****** ******
      ****** ****** ****** ****** ****** ****** ****** ****** ****** ******
      ****** ****** ****** ****** ****** ****** ****** ****** ****** ******
  14  ****** ****** ****** ****** ****** ****** ****** ****** ****** ******
      ****** ****** ****** ****** ****** ****** ****** ****** ****** ******
      ****** ****** ****** ****** ****** ****** ****** ****** ****** ******
  15  ****** ****** ****** ****** ****** ****** ****** ****** ****** ******
      ****** ****** ****** ****** ****** ****** ****** ****** ****** ******
      ****** ****** ****** ****** ****** ****** ****** ****** ****** ******
  16  ****** ****** ****** ****** ****** ****** ****** ****** ****** ******
      ****** ****** ****** ****** ****** ****** ****** ****** ****** ******
      ****** ****** ****** ****** ****** ****** ****** ****** ****** ******
  17  ****** ****** ****** ****** ****** ****** ****** ****** ****** ******
      ****** ****** ****** ****** ****** ****** ****** ****** ****** ******
      ****** ****** ****** ****** ****** ****** ****** ****** ****** ******
  18  ****** ****** ****** ****** ****** ****** ****** ****** ****** ******
      ****** ****** ****** ****** ****** ****** ****** ****** ****** ******
      ****** ****** ****** ****** ****** ****** ****** ****** ****** ******
  19  ****** ****** ****** ****** ****** ****** ****** ****** ****** ******
      ****** ****** ****** ****** ****** ****** ****** ****** ****** ******
      ****** ****** ****** ****** ****** ****** ****** ****** ****** ******
  20  ****** ****** ****** ****** ****** ****** ****** ****** ****** ******
      ****** ****** ****** ****** ****** ****** ****** ****** ****** ******
      ****** ****** ****** ****** ****** ****** ****** ****** ****** ******
  21  ****** ****** ****** ****** ****** ****** ****** ****** ****** ******
      ****** ****** ****** ****** ****** ****** ****** ****** ****** ******
      ****** ****** ****** ****** ****** ****** ****** ****** ****** ******
  22  ****** ****** ****** ****** ****** ****** ****** ****** ****** ******
      ****** ****** ****** ****** ****** ****** ****** ****** ****** ******
      ****** ****** ****** ****** ****** ****** ****** ****** ****** ******
  23  ****** ****** ****** ****** ****** ****** ****** ****** ****** ******
      ****** ****** ****** ****** ****** ****** ****** ****** ****** ******
      ****** ****** ****** ****** ****** ****** ****** ****** ****** ******
  24  ****** ****** ****** ****** ****** ****** ****** ****** ****** ******
      ****** ****** ****** ****** ****** ****** ****** ****** ****** ******
      ****** ****** ****** ****** ****** ****** ****** ****** ****** ******
  25  ****** ****** ****** ****** ****** ****** ****** ****** ****** ******
      ****** ****** ****** ****** ****** ****** ****** ****** ****** ******
      ****** ****** ****** ****** ****** ****** ****** ****** ****** ******

 HEAD WILL BE SAVED ON UNIT   51 AT END OF TIME STEP    1, STRESS PERIOD    3
1
  VOLUMETRIC BUDGET FOR ENTIRE MODEL AT END OF TIME STEP    1, STRESS PERIOD   3
  ------------------------------------------------------------------------------

     CUMULATIVE VOLUMES      L**3       RATES FOR THIS TIME STEP      L**3/T
     ------------------                 ------------------------

           IN:                                      IN:
           ---                                      ---
             STORAGE =    20182871.9940               STORAGE =        3980.2756
       CONSTANT HEAD =   324565596.5757         CONSTANT HEAD =     1210838.8240
               WELLS =           0.0000                 WELLS =           0.0000
            RECHARGE =     6292800.0000              RECHARGE =           0.0000
      STREAM LEAKAGE =           0.0000        STREAM LEAKAGE =           0.0000

            TOTAL IN =   351041268.5697              TOTAL IN =     1214819.0996

          OUT:                                     OUT:
          ----                                     ----
             STORAGE =       30552.4029               STORAGE =         181.3895
       CONSTANT HEAD =           0.0000         CONSTANT HEAD =           0.0000
               WELLS =    21892050.2650                 WELLS =       79692.8601
            RECHARGE =           0.0000              RECHARGE =           0.0000
      STREAM LEAKAGE =   329118678.4995        STREAM LEAKAGE =     1134944.9054

           TOTAL OUT =   351041281.1675             TOTAL OUT =     1214819.1549

            IN - OUT =         -12.5977              IN - OUT =      -5.5300E-02

 PERCENT DISCREPANCY =          -0.00     PERCENT DISCREPANCY =          -0.00






         TIME SUMMARY AT END OF TIME STEP    1 IN STRESS PERIOD    3
                    SECONDS     MINUTES      HOURS       DAYS        YEARS
                    -----------------------------------------------------------
   TIME STEP LENGTH 7.86240E+06 1.31040E+05  2184.0      91.000     0.24914    
 STRESS PERIOD TIME 7.86240E+06 1.31040E+05  2184.0      91.000     0.24914    
         TOTAL TIME 2.36736E+07 3.94560E+05  6576.0      274.00     0.75017    
1
1
                            STRESS PERIOD NO.    4, LENGTH =   91.00000    
                            -----------------------------------------------

                              NUMBER OF TIME STEPS =     1

                               MULTIPLIER FOR DELT =     1.500

                            INITIAL TIME STEP SIZE =   91.00000    

 WELL NO.  LAYER   ROW   COL   STRESS RATE         
 --------------------------------------------------
      1      1     23     18     -0.5000E+05
      2      1     18     17       0.000    
      3      1     23     16     -0.3000E+05

      3 WELLS

                 RECHARGE =  1.000000E-03

 REUSING STREAM SEGMENT DATA FROM LAST STRESS PERIOD
 
 SOLVING FOR HEAD 


     6 CALLS TO PCG ROUTINE FOR TIME STEP   1 IN STRESS PERIOD    4
    22 TOTAL ITERATIONS

 OUTPUT CONTROL FOR STRESS PERIOD    4   TIME STEP    1
    SAVE BUDGET
    SAVE HEAD FOR ALL LAYERS
    PRINT HEAD FOR ALL LAYERS
 UBDSV2 SAVING "STREAMFLOW OUT  " ON UNIT  50 AT TIME STEP  1, STRESS PERIOD   4



 STREAM LISTING     PERIOD      4   STEP        1

 LAYER ROW COL. STREAM  RCH.  FLOW INTO     FLOW TO   FLOW OUT OF   OVRLND.     DIRECT     STREAM       STREAM     STREAM     STREAM   STREAMBED  STREAMBED
                SEG.NO.  NO.  STRM. RCH.    AQUIFER    STRM. RCH.    RUNOFF     PRECIP       ET          HEAD       DEPTH      WIDTH   CONDCTNC.   GRADIENT

   1   13    1     1     1    1.0000E+05 -2.7879E+04   1.2788E+05  0.000E+00  0.000E+00  0.000E+00  4.84178E+01  1.564E-01  2.000E+01  2.000E+04 -1.394E+00
   1   13    2     1     2    1.2788E+05 -3.7635E+04   1.6551E+05  0.000E+00  0.000E+00  0.000E+00  4.79661E+01  1.820E-01  2.000E+01  2.000E+04 -1.882E+00
   1   14    3     1     3    1.6551E+05 -3.3091E+04   1.9860E+05  0.000E+00  0.000E+00  0.000E+00  4.75140E+01  2.072E-01  2.000E+01  2.000E+04 -1.655E+00
   1   15    4     1     4    1.9860E+05 -3.2296E+04   2.3090E+05  0.000E+00  0.000E+00  0.000E+00  4.70584E+01  2.288E-01  2.000E+01  2.000E+04 -1.615E+00
   1   16    5     1     5    2.3090E+05 -3.3747E+04   2.6465E+05  0.000E+00  0.000E+00  0.000E+00  4.66016E+01  2.493E-01  2.000E+01  2.000E+04 -1.687E+00
   1   16    6     1     6    2.6465E+05 -2.9460E+04   2.9411E+05  0.000E+00  0.000E+00  0.000E+00  4.61429E+01  2.679E-01  2.000E+01  2.000E+04 -1.473E+00
   1   16    7     1     7    2.9411E+05 -2.9242E+04   3.2335E+05  0.000E+00  0.000E+00  0.000E+00  4.56822E+01  2.845E-01  2.000E+01  2.000E+04 -1.462E+00
   1   16    8     1     8    3.2335E+05 -2.9363E+04   3.5271E+05  0.000E+00  0.000E+00  0.000E+00  4.52209E+01  3.004E-01  2.000E+01  2.000E+04 -1.468E+00
   1   16    9     1     9    3.5271E+05 -2.9354E+04   3.8207E+05  0.000E+00  0.000E+00  0.000E+00  4.47590E+01  3.158E-01  2.000E+01  2.000E+04 -1.468E+00
   1   16   10     1    10    3.8207E+05 -2.9247E+04   4.1131E+05  0.000E+00  0.000E+00  0.000E+00  4.42966E+01  3.307E-01  2.000E+01  2.000E+04 -1.462E+00
   1   16   11     1    11    4.1131E+05 -2.9627E+04   4.4094E+05  0.000E+00  0.000E+00  0.000E+00  4.38338E+01  3.452E-01  2.000E+01  2.000E+04 -1.481E+00
   1   16   12     1    12    4.4094E+05 -3.4589E+04   4.7553E+05  0.000E+00  0.000E+00  0.000E+00  4.33719E+01  3.606E-01  2.000E+01  2.000E+04 -1.729E+00
   1   15   13     1    13    4.7553E+05 -3.3529E+04   5.0906E+05  0.000E+00  0.000E+00  0.000E+00  4.29105E+01  3.764E-01  2.000E+01  2.000E+04 -1.676E+00
   1   14   14     1    14    5.0906E+05 -3.4339E+04   5.4340E+05  0.000E+00  0.000E+00  0.000E+00  4.24486E+01  3.918E-01  2.000E+01  2.000E+04 -1.717E+00
   1   13   15     1    15    5.4340E+05 -3.6830E+04   5.8023E+05  0.000E+00  0.000E+00  0.000E+00  4.19870E+01  4.075E-01  2.000E+01  2.000E+04 -1.841E+00
   1   12   16     1    16    5.8023E+05 -4.3210E+04   6.2344E+05  0.000E+00  0.000E+00  0.000E+00  4.15269E+01  4.246E-01  2.000E+01  2.000E+04 -2.161E+00
   1   12   17     1    17    6.2344E+05 -3.3694E+04   6.5713E+05  0.000E+00  0.000E+00  0.000E+00  4.10657E+01  4.407E-01  2.000E+01  2.000E+04 -1.685E+00
   1   12   18     1    18    6.5713E+05 -3.2079E+04   6.8921E+05  0.000E+00  0.000E+00  0.000E+00  4.06019E+01  4.541E-01  2.000E+01  2.000E+04 -1.604E+00
   1   12   19     1    19    6.8921E+05 -3.6219E+04   7.2543E+05  0.000E+00  0.000E+00  0.000E+00  4.01383E+01  4.678E-01  2.000E+01  2.000E+04 -1.811E+00
   1   13   20     1    20    7.2543E+05 -2.6193E+04   7.5162E+05  0.000E+00  0.000E+00  0.000E+00  3.96733E+01  4.801E-01  2.000E+01  2.000E+04 -1.310E+00
   1   14   21     1    21    7.5162E+05 -1.8847E+04   7.7047E+05  0.000E+00  0.000E+00  0.000E+00  3.92048E+01  4.888E-01  2.000E+01  2.000E+04 -9.423E-01
   1   14   22     1    22    7.7047E+05 -1.5306E+03   7.7200E+05  0.000E+00  0.000E+00  0.000E+00  3.87314E+01  4.928E-01  2.000E+01  2.000E+04 -7.653E-02
   1    9   30     2     1    5.0000E+04 -2.6622E+04   7.6622E+04  0.000E+00  0.000E+00  0.000E+00  4.02585E+01  1.335E-01  2.000E+01  2.000E+04 -1.331E+00
   1    9   29     2     2    7.6622E+04 -2.9090E+04   1.0571E+05  0.000E+00  0.000E+00  0.000E+00  4.00411E+01  1.661E-01  2.000E+01  2.000E+04 -1.455E+00
   1    9   28     2     3    1.0571E+05 -3.3383E+04   1.3910E+05  0.000E+00  0.000E+00  0.000E+00  3.98233E+01  1.983E-01  2.000E+01  2.000E+04 -1.669E+00
   1    9   27     2     4    1.3910E+05 -4.7529E+04   1.8663E+05  0.000E+00  0.000E+00  0.000E+00  3.96103E+01  2.353E-01  2.000E+01  2.000E+04 -2.376E+00
   1   10   26     2     5    1.8663E+05 -3.3503E+04   2.2013E+05  0.000E+00  0.000E+00  0.000E+00  3.93939E+01  2.689E-01  2.000E+01  2.000E+04 -1.675E+00
   1   11   25     2     6    2.2013E+05 -2.5145E+04   2.4527E+05  0.000E+00  0.000E+00  0.000E+00  3.91665E+01  2.915E-01  2.000E+01  2.000E+04 -1.257E+00
   1   12   24     2     7    2.4527E+05 -1.8544E+04   2.6382E+05  0.000E+00  0.000E+00  0.000E+00  3.89326E+01  3.076E-01  2.000E+01  2.000E+04 -9.272E-01
   1   13   23     2     8    2.6382E+05 -1.3112E+04   2.7693E+05  0.000E+00  0.000E+00  0.000E+00  3.86940E+01  3.190E-01  2.000E+01  2.000E+04 -6.556E-01
   1   14   22     2     9    2.7693E+05 -7.1369E+03   2.8407E+05  0.000E+00  0.000E+00  0.000E+00  3.84511E+01  3.261E-01  2.000E+01  2.000E+04 -3.568E-01
   1   14   22     3     1    1.0561E+06 -1.5130E+04   1.0712E+06  0.000E+00  0.000E+00  0.000E+00  3.80514E+01  4.959E-01  2.000E+01  2.000E+04 -7.565E-01
   1   15   23     3     2    1.0712E+06 -2.2852E+04   1.0940E+06  0.000E+00  0.000E+00  0.000E+00  3.71678E+01  5.012E-01  2.000E+01  2.000E+04 -1.143E+00
   1   15   24     3     3    1.0940E+06 -1.9255E+04   1.1133E+06  0.000E+00  0.000E+00  0.000E+00  3.62848E+01  5.070E-01  2.000E+01  2.000E+04 -9.628E-01
   1   15   25     3     4    1.1133E+06 -1.9023E+04   1.1323E+06  0.000E+00  0.000E+00  0.000E+00  3.54011E+01  5.123E-01  2.000E+01  2.000E+04 -9.512E-01
   1   15   26     3     5    1.1323E+06 -2.1902E+04   1.1542E+06  0.000E+00  0.000E+00  0.000E+00  3.45178E+01  5.178E-01  2.000E+01  2.000E+04 -1.095E+00
   1   16   27     3     6    1.1542E+06 -2.8965E+04   1.1832E+06  0.000E+00  0.000E+00  0.000E+00  3.36358E+01  5.247E-01  2.000E+01  2.000E+04 -1.448E+00
   1   17   28     3     7    1.1832E+06 -3.6028E+04   1.2192E+06  0.000E+00  0.000E+00  0.000E+00  3.27556E+01  5.334E-01  2.000E+01  2.000E+04 -1.801E+00
   1   18   29     3     8    1.2192E+06 -4.7045E+04   1.2663E+06  0.000E+00  0.000E+00  0.000E+00  3.18777E+01  5.444E-01  2.000E+01  2.000E+04 -2.352E+00
   1   18   30     3     9    1.2663E+06 -4.3595E+04   1.3099E+06  0.000E+00  0.000E+00  0.000E+00  3.10007E+01  5.562E-01  2.000E+01  2.000E+04 -2.180E+00



1
              HEAD IN LAYER   1 AT END OF TIME STEP   1 IN STRESS PERIOD    4
  ---------------------------------------------------------------------------

          1      2      3      4      5      6      7      8      9     10
         11     12     13     14     15     16     17     18     19     20
         21     22     23     24     25     26     27     28     29     30
 .........................................................................
   1  ****** ****** ****** ****** ****** ****** ****** ****** ****** ******
      ****** ****** ****** ****** ****** ****** ****** ****** ****** ******
      ****** ****** ****** ****** ****** ****** ****** ****** ****** ******
   2  ****** ****** ****** ****** ****** ****** ****** ****** ****** ******
      ****** ****** ****** ****** ****** ****** ****** ****** ****** ******
      ****** ****** ****** ****** ****** ****** ****** ****** ****** ******
   3  ****** ****** ****** ****** ****** ****** ****** ****** ****** ******
      ****** ****** ****** ****** ****** ****** ****** ****** ****** ******
      ****** ****** ****** ****** ****** ****** ****** ****** ****** ******
   4  ****** ****** ****** ****** ****** ****** ****** ****** ****** ******
      ****** ****** ****** ****** ****** ****** ****** ****** ****** ******
      ****** ****** ****** ****** ****** ****** ****** ****** ****** ******
   5  ****** ****** ****** ****** ****** ****** ****** ****** ****** ******
      ****** ****** ****** ****** ****** ****** ****** ****** ****** ******
      ****** ****** ****** ****** ****** ****** ****** ****** ****** ******
   6  ****** ****** ****** ****** ****** ****** ****** ****** ****** ******
      ****** ****** ****** ****** ****** ****** ****** ****** ****** ******
      ****** ****** ****** ****** ****** ****** ****** ****** ****** ******
   7  ****** ****** ****** ****** ****** ****** ****** ****** ****** ******
      ****** ****** ****** ****** ****** ****** ****** ****** ****** ******
      ****** ****** ****** ****** ****** ****** ****** ****** ****** ******
   8  ****** ****** ****** ****** ****** ****** ****** ****** ****** ******
      ****** ****** ****** ****** ****** ****** ****** ****** ****** ******
      ****** ****** ****** ****** ****** ****** ****** ****** ****** ******
   9  ****** ****** ****** ****** ****** ****** ****** ****** ****** ******
      ****** ****** ****** ****** ****** ****** ****** ****** ****** ******
      ****** ****** ****** ****** ****** ****** ****** ****** ****** ******
  10  ****** ****** ****** ****** ****** ****** ****** ****** ****** ******
      ****** ****** ****** ****** ****** ****** ****** ****** ****** ******
      ****** ****** ****** ****** ****** ****** ****** ****** ****** ******
  11  ****** ****** ****** ****** ****** ****** ****** ****** ****** ******
      ****** ****** ****** ****** ****** ****** ****** ****** ****** ******
      ****** ****** ****** ****** ****** ****** ****** ****** ****** ******
  12  ****** ****** ****** ****** ****** ****** ****** ****** ****** ******
      ****** ****** ****** ****** ****** ****** ****** ****** ****** ******
      ****** ****** ****** ****** ****** ****** ****** ****** ****** ******
  13  ****** ****** ****** ****** ****** ****** ****** ****** ****** ******
      ****** ****** ****** ****** ****** ****** ****** ****** ****** ******
      ****** ****** ****** ****** ****** ****** ****** ****** ****** ******
  14  ****** ****** ****** ****** ****** ****** ****** ****** ****** ******
      ****** ****** ****** ****** ****** ****** ****** ****** ****** ******
      ****** ****** ****** ****** ****** ****** ****** ****** ****** ******
  15  ****** ****** ****** ****** ****** ****** ****** ****** ****** ******
      ****** ****** ****** ****** ****** ****** ****** ****** ****** ******
      ****** ****** ****** ****** ****** ****** ****** ****** ****** ******
  16  ****** ****** ****** ****** ****** ****** ****** ****** ****** ******
      ****** ****** ****** ****** ****** ****** ****** ****** ****** ******
      ****** ****** ****** ****** ****** ****** ****** ****** ****** ******
  17  ****** ****** ****** ****** ****** ****** ****** ****** ****** ******
      ****** ****** ****** ****** ****** ****** ****** ****** ****** ******
      ****** ****** ****** ****** ****** ****** ****** ****** ****** ******
  18  ****** ****** ****** ****** ****** ****** ****** ****** ****** ******
      ****** ****** ****** ****** ****** ****** ****** ****** ****** ******
      ****** ****** ****** ****** ****** ****** ****** ****** ****** ******
  19  ****** ****** ****** ****** ****** ****** ****** ****** ****** ******
      ****** ****** ****** ****** ****** ****** ****** ****** ****** ******
      ****** ****** ****** ****** ****** ****** ****** ****** ****** ******
  20  ****** ****** ****** ****** ****** ****** ****** ****** ****** ******
      ****** ****** ****** ****** ****** ****** ****** ****** ****** ******
      ****** ****** ****** ****** ****** ****** ****** ****** ****** ******
  21  ****** ****** ****** ****** ****** ****** ****** ****** ****** ******
      ****** ****** ****** ****** ****** ****** ****** ****** ****** ******
      ****** ****** ****** ****** ****** ****** ****** ****** ****** ******
  22  ****** ****** ****** ****** ****** ****** ****** ****** ****** ******
      ****** ****** ****** ****** ****** ****** ****** ****** ****** ******
      ****** ****** ****** ****** ****** ****** ****** ****** ****** ******
  23  ****** ****** ****** ****** ****** ****** ****** ****** ****** ******
      ****** ****** ****** ****** ****** ****** ****** ****** ****** ******
      ****** ****** ****** ****** ****** ****** ****** ****** ****** ******
  24  ****** ****** ****** ****** ****** ****** ****** ****** ****** ******
      ****** ****** ****** ****** ****** ****** ****** ****** ****** ******
      ****** ****** ****** ****** ****** ****** ****** ****** ****** ******
  25  ****** ****** ****** ****** ****** ****** ****** ****** ****** ******
      ****** ****** ****** ****** ****** ****** ****** ****** ****** ******
      ****** ****** ****** ****** ****** ****** ****** ****** ****** ******

 HEAD WILL BE SAVED ON UNIT   51 AT END OF TIME STEP    1, STRESS PERIOD    4
1
  VOLUMETRIC BUDGET FOR ENTIRE MODEL AT END OF TIME STEP    1, STRESS PERIOD   4
  ------------------------------------------------------------------------------

     CUMULATIVE VOLUMES      L**3       RATES FOR THIS TIME STEP      L**3/T
     ------------------                 ------------------------

           IN:                                      IN:
           ---                                      ---
             STORAGE =    20203237.9753               STORAGE =         223.8020
       CONSTANT HEAD =   435052774.6237         CONSTANT HEAD =     1214144.8137
               WELLS =           0.0000                 WELLS =           0.0000
            RECHARGE =     8804400.0000              RECHARGE =       27600.0000
      STREAM LEAKAGE =           0.0000        STREAM LEAKAGE =           0.0000

            TOTAL IN =   464060412.5989              TOTAL IN =     1241968.6157

          OUT:                                     OUT:
          ----                                     ----
             STORAGE =      222564.2915               STORAGE =        2110.0208
       CONSTANT HEAD =           0.0000         CONSTANT HEAD =           0.0000
               WELLS =    29172050.2650                 WELLS =       80000.0000
            RECHARGE =           0.0000              RECHARGE =           0.0000
      STREAM LEAKAGE =   434665808.3587        STREAM LEAKAGE =     1159858.5699

           TOTAL OUT =   464060422.9152             TOTAL OUT =     1241968.5906

            IN - OUT =         -10.3163              IN - OUT =       2.5071E-02

 PERCENT DISCREPANCY =          -0.00     PERCENT DISCREPANCY =           0.00






         TIME SUMMARY AT END OF TIME STEP    1 IN STRESS PERIOD    4
                    SECONDS     MINUTES      HOURS       DAYS        YEARS
                    -----------------------------------------------------------
   TIME STEP LENGTH 7.86240E+06 1.31040E+05  2184.0      91.000     0.24914    
 STRESS PERIOD TIME 7.86240E+06 1.31040E+05  2184.0      91.000     0.24914    
         TOTAL TIME 3.15360E+07 5.25600E+05  8760.0      365.00     0.99932    
1
1
                            STRESS PERIOD NO.    5, LENGTH =   92.00000    
                            -----------------------------------------------

                              NUMBER OF TIME STEPS =     1

                               MULTIPLIER FOR DELT =     1.500

                            INITIAL TIME STEP SIZE =   92.00000    

 WELL NO.  LAYER   ROW   COL   STRESS RATE         
 --------------------------------------------------
      1      1     23     18     -0.5000E+05
      2      1     18     17     -0.3000E+05

      2 WELLS

                 RECHARGE =  5.000000E-04

 REUSING STREAM SEGMENT DATA FROM LAST STRESS PERIOD
 
 SOLVING FOR HEAD 


     6 CALLS TO PCG ROUTINE FOR TIME STEP   1 IN STRESS PERIOD    5
    22 TOTAL ITERATIONS

 OUTPUT CONTROL FOR STRESS PERIOD    5   TIME STEP    1
    SAVE BUDGET
    SAVE HEAD FOR ALL LAYERS
    PRINT HEAD FOR ALL LAYERS
 UBDSV2 SAVING "STREAMFLOW OUT  " ON UNIT  50 AT TIME STEP  1, STRESS PERIOD   5



 STREAM LISTING     PERIOD      5   STEP        1

 LAYER ROW COL. STREAM  RCH.  FLOW INTO     FLOW TO   FLOW OUT OF   OVRLND.     DIRECT     STREAM       STREAM     STREAM     STREAM   STREAMBED  STREAMBED
                SEG.NO.  NO.  STRM. RCH.    AQUIFER    STRM. RCH.    RUNOFF     PRECIP       ET          HEAD       DEPTH      WIDTH   CONDCTNC.   GRADIENT

   1   13    1     1     1    1.0000E+05 -2.7672E+04   1.2767E+05  0.000E+00  0.000E+00  0.000E+00  4.84177E+01  1.563E-01  2.000E+01  2.000E+04 -1.384E+00
   1   13    2     1     2    1.2767E+05 -3.7387E+04   1.6506E+05  0.000E+00  0.000E+00  0.000E+00  4.79659E+01  1.818E-01  2.000E+01  2.000E+04 -1.869E+00
   1   14    3     1     3    1.6506E+05 -3.2844E+04   1.9790E+05  0.000E+00  0.000E+00  0.000E+00  4.75137E+01  2.068E-01  2.000E+01  2.000E+04 -1.642E+00
   1   15    4     1     4    1.9790E+05 -3.2055E+04   2.2996E+05  0.000E+00  0.000E+00  0.000E+00  4.70578E+01  2.283E-01  2.000E+01  2.000E+04 -1.603E+00
   1   16    5     1     5    2.2996E+05 -3.3523E+04   2.6348E+05  0.000E+00  0.000E+00  0.000E+00  4.66010E+01  2.487E-01  2.000E+01  2.000E+04 -1.676E+00
   1   16    6     1     6    2.6348E+05 -2.9256E+04   2.9274E+05  0.000E+00  0.000E+00  0.000E+00  4.61422E+01  2.672E-01  2.000E+01  2.000E+04 -1.463E+00
   1   16    7     1     7    2.9274E+05 -2.9026E+04   3.2176E+05  0.000E+00  0.000E+00  0.000E+00  4.56814E+01  2.837E-01  2.000E+01  2.000E+04 -1.451E+00
   1   16    8     1     8    3.2176E+05 -2.9123E+04   3.5089E+05  0.000E+00  0.000E+00  0.000E+00  4.52199E+01  2.995E-01  2.000E+01  2.000E+04 -1.456E+00
   1   16    9     1     9    3.5089E+05 -2.9070E+04   3.7996E+05  0.000E+00  0.000E+00  0.000E+00  4.47580E+01  3.148E-01  2.000E+01  2.000E+04 -1.453E+00
   1   16   10     1    10    3.7996E+05 -2.8881E+04   4.0884E+05  0.000E+00  0.000E+00  0.000E+00  4.42954E+01  3.295E-01  2.000E+01  2.000E+04 -1.444E+00
   1   16   11     1    11    4.0884E+05 -2.9075E+04   4.3791E+05  0.000E+00  0.000E+00  0.000E+00  4.38325E+01  3.438E-01  2.000E+01  2.000E+04 -1.454E+00
   1   16   12     1    12    4.3791E+05 -3.3457E+04   4.7137E+05  0.000E+00  0.000E+00  0.000E+00  4.33702E+01  3.589E-01  2.000E+01  2.000E+04 -1.673E+00
   1   15   13     1    13    4.7137E+05 -3.2110E+04   5.0348E+05  0.000E+00  0.000E+00  0.000E+00  4.29083E+01  3.742E-01  2.000E+01  2.000E+04 -1.605E+00
   1   14   14     1    14    5.0348E+05 -3.2871E+04   5.3635E+05  0.000E+00  0.000E+00  0.000E+00  4.24458E+01  3.889E-01  2.000E+01  2.000E+04 -1.644E+00
   1   13   15     1    15    5.3635E+05 -3.5588E+04   5.7194E+05  0.000E+00  0.000E+00  0.000E+00  4.19837E+01  4.041E-01  2.000E+01  2.000E+04 -1.779E+00
   1   12   16     1    16    5.7194E+05 -4.2428E+04   6.1437E+05  0.000E+00  0.000E+00  0.000E+00  4.15232E+01  4.209E-01  2.000E+01  2.000E+04 -2.121E+00
   1   12   17     1    17    6.1437E+05 -3.2897E+04   6.4726E+05  0.000E+00  0.000E+00  0.000E+00  4.10618E+01  4.368E-01  2.000E+01  2.000E+04 -1.645E+00
   1   12   18     1    18    6.4726E+05 -3.1311E+04   6.7857E+05  0.000E+00  0.000E+00  0.000E+00  4.05977E+01  4.500E-01  2.000E+01  2.000E+04 -1.566E+00
   1   12   19     1    19    6.7857E+05 -3.5529E+04   7.1410E+05  0.000E+00  0.000E+00  0.000E+00  4.01339E+01  4.635E-01  2.000E+01  2.000E+04 -1.776E+00
   1   13   20     1    20    7.1410E+05 -2.5153E+04   7.3926E+05  0.000E+00  0.000E+00  0.000E+00  3.96687E+01  4.755E-01  2.000E+01  2.000E+04 -1.258E+00
   1   14   21     1    21    7.3926E+05 -1.7702E+04   7.5696E+05  0.000E+00  0.000E+00  0.000E+00  3.91997E+01  4.838E-01  2.000E+01  2.000E+04 -8.851E-01
   1   14   22     1    22    7.5696E+05 -1.2684E+03   7.5823E+05  0.000E+00  0.000E+00  0.000E+00  3.87261E+01  4.875E-01  2.000E+01  2.000E+04 -6.342E-02
   1    9   30     2     1    5.0000E+04 -2.6474E+04   7.6474E+04  0.000E+00  0.000E+00  0.000E+00  4.02584E+01  1.334E-01  2.000E+01  2.000E+04 -1.324E+00
   1    9   29     2     2    7.6474E+04 -2.8942E+04   1.0542E+05  0.000E+00  0.000E+00  0.000E+00  4.00409E+01  1.659E-01  2.000E+01  2.000E+04 -1.447E+00
   1    9   28     2     3    1.0542E+05 -3.3229E+04   1.3864E+05  0.000E+00  0.000E+00  0.000E+00  3.98229E+01  1.979E-01  2.000E+01  2.000E+04 -1.661E+00
   1    9   27     2     4    1.3864E+05 -4.7339E+04   1.8598E+05  0.000E+00  0.000E+00  0.000E+00  3.96098E+01  2.348E-01  2.000E+01  2.000E+04 -2.367E+00
   1   10   26     2     5    1.8598E+05 -3.3296E+04   2.1928E+05  0.000E+00  0.000E+00  0.000E+00  3.93933E+01  2.683E-01  2.000E+01  2.000E+04 -1.665E+00
   1   11   25     2     6    2.1928E+05 -2.4931E+04   2.4421E+05  0.000E+00  0.000E+00  0.000E+00  3.91658E+01  2.908E-01  2.000E+01  2.000E+04 -1.247E+00
   1   12   24     2     7    2.4421E+05 -1.8323E+04   2.6253E+05  0.000E+00  0.000E+00  0.000E+00  3.89318E+01  3.068E-01  2.000E+01  2.000E+04 -9.161E-01
   1   13   23     2     8    2.6253E+05 -1.2855E+04   2.7539E+05  0.000E+00  0.000E+00  0.000E+00  3.86930E+01  3.180E-01  2.000E+01  2.000E+04 -6.428E-01
   1   14   22     2     9    2.7539E+05 -6.7936E+03   2.8218E+05  0.000E+00  0.000E+00  0.000E+00  3.84499E+01  3.249E-01  2.000E+01  2.000E+04 -3.397E-01
   1   14   22     3     1    1.0404E+06 -1.4851E+04   1.0553E+06  0.000E+00  0.000E+00  0.000E+00  3.80470E+01  4.914E-01  2.000E+01  2.000E+04 -7.426E-01
   1   15   23     3     2    1.0553E+06 -2.2087E+04   1.0773E+06  0.000E+00  0.000E+00  0.000E+00  3.71633E+01  4.966E-01  2.000E+01  2.000E+04 -1.104E+00
   1   15   24     3     3    1.0773E+06 -1.8838E+04   1.0962E+06  0.000E+00  0.000E+00  0.000E+00  3.62801E+01  5.023E-01  2.000E+01  2.000E+04 -9.419E-01
   1   15   25     3     4    1.0962E+06 -1.8730E+04   1.1149E+06  0.000E+00  0.000E+00  0.000E+00  3.53964E+01  5.075E-01  2.000E+01  2.000E+04 -9.365E-01
   1   15   26     3     5    1.1149E+06 -2.1654E+04   1.1366E+06  0.000E+00  0.000E+00  0.000E+00  3.45131E+01  5.131E-01  2.000E+01  2.000E+04 -1.083E+00
   1   16   27     3     6    1.1366E+06 -2.8653E+04   1.1652E+06  0.000E+00  0.000E+00  0.000E+00  3.36310E+01  5.199E-01  2.000E+01  2.000E+04 -1.433E+00
   1   17   28     3     7    1.1652E+06 -3.5730E+04   1.2010E+06  0.000E+00  0.000E+00  0.000E+00  3.27508E+01  5.286E-01  2.000E+01  2.000E+04 -1.787E+00
   1   18   29     3     8    1.2010E+06 -4.6783E+04   1.2477E+06  0.000E+00  0.000E+00  0.000E+00  3.18729E+01  5.396E-01  2.000E+01  2.000E+04 -2.339E+00
   1   18   30     3     9    1.2477E+06 -4.3402E+04   1.2911E+06  0.000E+00  0.000E+00  0.000E+00  3.09958E+01  5.514E-01  2.000E+01  2.000E+04 -2.170E+00



1
              HEAD IN LAYER   1 AT END OF TIME STEP   1 IN STRESS PERIOD    5
  ---------------------------------------------------------------------------

          1      2      3      4      5      6      7      8      9     10
         11     12     13     14     15     16     17     18     19     20
         21     22     23     24     25     26     27     28     29     30
 .........................................................................
   1  ****** ****** ****** ****** ****** ****** ****** ****** ****** ******
      ****** ****** ****** ****** ****** ****** ****** ****** ****** ******
      ****** ****** ****** ****** ****** ****** ****** ****** ****** ******
   2  ****** ****** ****** ****** ****** ****** ****** ****** ****** ******
      ****** ****** ****** ****** ****** ****** ****** ****** ****** ******
      ****** ****** ****** ****** ****** ****** ****** ****** ****** ******
   3  ****** ****** ****** ****** ****** ****** ****** ****** ****** ******
      ****** ****** ****** ****** ****** ****** ****** ****** ****** ******
      ****** ****** ****** ****** ****** ****** ****** ****** ****** ******
   4  ****** ****** ****** ****** ****** ****** ****** ****** ****** ******
      ****** ****** ****** ****** ****** ****** ****** ****** ****** ******
      ****** ****** ****** ****** ****** ****** ****** ****** ****** ******
   5  ****** ****** ****** ****** ****** ****** ****** ****** ****** ******
      ****** ****** ****** ****** ****** ****** ****** ****** ****** ******
      ****** ****** ****** ****** ****** ****** ****** ****** ****** ******
   6  ****** ****** ****** ****** ****** ****** ****** ****** ****** ******
      ****** ****** ****** ****** ****** ****** ****** ****** ****** ******
      ****** ****** ****** ****** ****** ****** ****** ****** ****** ******
   7  ****** ****** ****** ****** ****** ****** ****** ****** ****** ******
      ****** ****** ****** ****** ****** ****** ****** ****** ****** ******
      ****** ****** ****** ****** ****** ****** ****** ****** ****** ******
   8  ****** ****** ****** ****** ****** ****** ****** ****** ****** ******
      ****** ****** ****** ****** ****** ****** ****** ****** ****** ******
      ****** ****** ****** ****** ****** ****** ****** ****** ****** ******
   9  ****** ****** ****** ****** ****** ****** ****** ****** ****** ******
      ****** ****** ****** ****** ****** ****** ****** ****** ****** ******
      ****** ****** ****** ****** ****** ****** ****** ****** ****** ******
  10  ****** ****** ****** ****** ****** ****** ****** ****** ****** ******
      ****** ****** ****** ****** ****** ****** ****** ****** ****** ******
      ****** ****** ****** ****** ****** ****** ****** ****** ****** ******
  11  ****** ****** ****** ****** ****** ****** ****** ****** ****** ******
      ****** ****** ****** ****** ****** ****** ****** ****** ****** ******
      ****** ****** ****** ****** ****** ****** ****** ****** ****** ******
  12  ****** ****** ****** ****** ****** ****** ****** ****** ****** ******
      ****** ****** ****** ****** ****** ****** ****** ****** ****** ******
      ****** ****** ****** ****** ****** ****** ****** ****** ****** ******
  13  ****** ****** ****** ****** ****** ****** ****** ****** ****** ******
      ****** ****** ****** ****** ****** ****** ****** ****** ****** ******
      ****** ****** ****** ****** ****** ****** ****** ****** ****** ******
  14  ****** ****** ****** ****** ****** ****** ****** ****** ****** ******
      ****** ****** ****** ****** ****** ****** ****** ****** ****** ******
      ****** ****** ****** ****** ****** ****** ****** ****** ****** ******
  15  ****** ****** ****** ****** ****** ****** ****** ****** ****** ******
      ****** ****** ****** ****** ****** ****** ****** ****** ****** ******
      ****** ****** ****** ****** ****** ****** ****** ****** ****** ******
  16  ****** ****** ****** ****** ****** ****** ****** ****** ****** ******
      ****** ****** ****** ****** ****** ****** ****** ****** ****** ******
      ****** ****** ****** ****** ****** ****** ****** ****** ****** ******
  17  ****** ****** ****** ****** ****** ****** ****** ****** ****** ******
      ****** ****** ****** ****** ****** ****** ****** ****** ****** ******
      ****** ****** ****** ****** ****** ****** ****** ****** ****** ******
  18  ****** ****** ****** ****** ****** ****** ****** ****** ****** ******
      ****** ****** ****** ****** ****** ****** ****** ****** ****** ******
      ****** ****** ****** ****** ****** ****** ****** ****** ****** ******
  19  ****** ****** ****** ****** ****** ****** ****** ****** ****** ******
      ****** ****** ****** ****** ****** ****** ****** ****** ****** ******
      ****** ****** ****** ****** ****** ****** ****** ****** ****** ******
  20  ****** ****** ****** ****** ****** ****** ****** ****** ****** ******
      ****** ****** ****** ****** ****** ****** ****** ****** ****** ******
      ****** ****** ****** ****** ****** ****** ****** ****** ****** ******
  21  ****** ****** ****** ****** ****** ****** ****** ****** ****** ******
      ****** ****** ****** ****** ****** ****** ****** ****** ****** ******
      ****** ****** ****** ****** ****** ****** ****** ****** ****** ******
  22  ****** ****** ****** ****** ****** ****** ****** ****** ****** ******
      ****** ****** ****** ****** ****** ****** ****** ****** ****** ******
      ****** ****** ****** ****** ****** ****** ****** ****** ****** ******
  23  ****** ****** ****** ****** ****** ****** ****** ****** ****** ******
      ****** ****** ****** ****** ****** ****** ****** ****** ****** ******
      ****** ****** ****** ****** ****** ****** ****** ****** ****** ******
  24  ****** ****** ****** ****** ****** ****** ****** ****** ****** ******
      ****** ****** ****** ****** ****** ****** ****** ****** ****** ******
      ****** ****** ****** ****** ****** ****** ****** ****** ****** ******
  25  ****** ****** ****** ****** ****** ****** ****** ****** ****** ******
      ****** ****** ****** ****** ****** ****** ****** ****** ****** ******
      ****** ****** ****** ****** ****** ****** ****** ****** ****** ******

 HEAD WILL BE SAVED ON UNIT   51 AT END OF TIME STEP    1, STRESS PERIOD    5
1
  VOLUMETRIC BUDGET FOR ENTIRE MODEL AT END OF TIME STEP    1, STRESS PERIOD   5
  ------------------------------------------------------------------------------

     CUMULATIVE VOLUMES      L**3       RATES FOR THIS TIME STEP      L**3/T
     ------------------                 ------------------------

           IN:                                      IN:
           ---                                      ---
             STORAGE =    20349097.6912               STORAGE =        1585.4317
       CONSTANT HEAD =   546003990.7836         CONSTANT HEAD =     1205991.4800
               WELLS =           0.0000                 WELLS =           0.0000
            RECHARGE =    10074000.0000              RECHARGE =       13800.0000
      STREAM LEAKAGE =           0.0000        STREAM LEAKAGE =           0.0000

            TOTAL IN =   576427088.4749              TOTAL IN =     1221376.9117

          OUT:                                     OUT:
          ----                                     ----
             STORAGE =      244379.5689               STORAGE =         237.1226
       CONSTANT HEAD =           0.0000         CONSTANT HEAD =           0.0000
               WELLS =    36532050.2650                 WELLS =       80000.0000
            RECHARGE =           0.0000              RECHARGE =           0.0000
      STREAM LEAKAGE =   539650670.6368        STREAM LEAKAGE =     1141139.8074

           TOTAL OUT =   576427100.4707             TOTAL OUT =     1221376.9300

            IN - OUT =         -11.9959              IN - OUT =      -1.8256E-02

 PERCENT DISCREPANCY =          -0.00     PERCENT DISCREPANCY =          -0.00






         TIME SUMMARY AT END OF TIME STEP    1 IN STRESS PERIOD    5
                    SECONDS     MINUTES      HOURS       DAYS        YEARS
                    -----------------------------------------------------------
   TIME STEP LENGTH 7.94880E+06 1.32480E+05  2208.0      92.000     0.25188    
 STRESS PERIOD TIME 7.94880E+06 1.32480E+05  2208.0      92.000     0.25188    
         TOTAL TIME 3.94848E+07 6.58080E+05  10968.      457.00      1.2512    
1
1
                            STRESS PERIOD NO.    6, LENGTH =   91.00000    
                            -----------------------------------------------

                              NUMBER OF TIME STEPS =     1

                               MULTIPLIER FOR DELT =     1.500

                            INITIAL TIME STEP SIZE =   91.00000    

 WELL NO.  LAYER   ROW   COL   STRESS RATE         
 --------------------------------------------------
      1      1     23     18     -0.5000E+05
      2      1     18     17       0.000    
      3      1     23     16     -0.3000E+05

      3 WELLS

                 RECHARGE =  2.000000E-03

 REUSING STREAM SEGMENT DATA FROM LAST STRESS PERIOD
 
 SOLVING FOR HEAD 


     6 CALLS TO PCG ROUTINE FOR TIME STEP   1 IN STRESS PERIOD    6
    23 TOTAL ITERATIONS

 OUTPUT CONTROL FOR STRESS PERIOD    6   TIME STEP    1
    SAVE BUDGET
    SAVE HEAD FOR ALL LAYERS
    PRINT HEAD FOR ALL LAYERS
 UBDSV2 SAVING "STREAMFLOW OUT  " ON UNIT  50 AT TIME STEP  1, STRESS PERIOD   6



 STREAM LISTING     PERIOD      6   STEP        1

 LAYER ROW COL. STREAM  RCH.  FLOW INTO     FLOW TO   FLOW OUT OF   OVRLND.     DIRECT     STREAM       STREAM     STREAM     STREAM   STREAMBED  STREAMBED
                SEG.NO.  NO.  STRM. RCH.    AQUIFER    STRM. RCH.    RUNOFF     PRECIP       ET          HEAD       DEPTH      WIDTH   CONDCTNC.   GRADIENT

   1   13    1     1     1    1.0000E+05 -2.8332E+04   1.2833E+05  0.000E+00  0.000E+00  0.000E+00  4.84180E+01  1.566E-01  2.000E+01  2.000E+04 -1.417E+00
   1   13    2     1     2    1.2833E+05 -3.8176E+04   1.6651E+05  0.000E+00  0.000E+00  0.000E+00  4.79667E+01  1.826E-01  2.000E+01  2.000E+04 -1.909E+00
   1   14    3     1     3    1.6651E+05 -3.3619E+04   2.0013E+05  0.000E+00  0.000E+00  0.000E+00  4.75149E+01  2.081E-01  2.000E+01  2.000E+04 -1.681E+00
   1   15    4     1     4    2.0013E+05 -3.2802E+04   2.3293E+05  0.000E+00  0.000E+00  0.000E+00  4.70595E+01  2.299E-01  2.000E+01  2.000E+04 -1.640E+00
   1   16    5     1     5    2.3293E+05 -3.4203E+04   2.6713E+05  0.000E+00  0.000E+00  0.000E+00  4.66030E+01  2.507E-01  2.000E+01  2.000E+04 -1.710E+00
   1   16    6     1     6    2.6713E+05 -2.9857E+04   2.9699E+05  0.000E+00  0.000E+00  0.000E+00  4.61445E+01  2.695E-01  2.000E+01  2.000E+04 -1.493E+00
   1   16    7     1     7    2.9699E+05 -2.9635E+04   3.2662E+05  0.000E+00  0.000E+00  0.000E+00  4.56839E+01  2.862E-01  2.000E+01  2.000E+04 -1.482E+00
   1   16    8     1     8    3.2662E+05 -2.9758E+04   3.5638E+05  0.000E+00  0.000E+00  0.000E+00  4.52227E+01  3.022E-01  2.000E+01  2.000E+04 -1.488E+00
   1   16    9     1     9    3.5638E+05 -2.9748E+04   3.8613E+05  0.000E+00  0.000E+00  0.000E+00  4.47610E+01  3.178E-01  2.000E+01  2.000E+04 -1.487E+00
   1   16   10     1    10    3.8613E+05 -2.9640E+04   4.1577E+05  0.000E+00  0.000E+00  0.000E+00  4.42987E+01  3.328E-01  2.000E+01  2.000E+04 -1.482E+00
   1   16   11     1    11    4.1577E+05 -3.0025E+04   4.4579E+05  0.000E+00  0.000E+00  0.000E+00  4.38361E+01  3.474E-01  2.000E+01  2.000E+04 -1.501E+00
   1   16   12     1    12    4.4579E+05 -3.5052E+04   4.8084E+05  0.000E+00  0.000E+00  0.000E+00  4.33743E+01  3.630E-01  2.000E+01  2.000E+04 -1.753E+00
   1   15   13     1    13    4.8084E+05 -3.4041E+04   5.1488E+05  0.000E+00  0.000E+00  0.000E+00  4.29130E+01  3.790E-01  2.000E+01  2.000E+04 -1.702E+00
   1   14   14     1    14    5.1488E+05 -3.4868E+04   5.4975E+05  0.000E+00  0.000E+00  0.000E+00  4.24513E+01  3.945E-01  2.000E+01  2.000E+04 -1.743E+00
   1   13   15     1    15    5.4975E+05 -3.7356E+04   5.8711E+05  0.000E+00  0.000E+00  0.000E+00  4.19899E+01  4.103E-01  2.000E+01  2.000E+04 -1.868E+00
   1   12   16     1    16    5.8711E+05 -4.3719E+04   6.3083E+05  0.000E+00  0.000E+00  0.000E+00  4.15299E+01  4.276E-01  2.000E+01  2.000E+04 -2.186E+00
   1   12   17     1    17    6.3083E+05 -3.4103E+04   6.6493E+05  0.000E+00  0.000E+00  0.000E+00  4.10688E+01  4.438E-01  2.000E+01  2.000E+04 -1.705E+00
   1   12   18     1    18    6.6493E+05 -3.2468E+04   6.9740E+05  0.000E+00  0.000E+00  0.000E+00  4.06051E+01  4.574E-01  2.000E+01  2.000E+04 -1.623E+00
   1   12   19     1    19    6.9740E+05 -3.6644E+04   7.3404E+05  0.000E+00  0.000E+00  0.000E+00  4.01416E+01  4.712E-01  2.000E+01  2.000E+04 -1.832E+00
   1   13   20     1    20    7.3404E+05 -2.6589E+04   7.6063E+05  0.000E+00  0.000E+00  0.000E+00  3.96767E+01  4.835E-01  2.000E+01  2.000E+04 -1.329E+00
   1   14   21     1    21    7.6063E+05 -1.9187E+04   7.7982E+05  0.000E+00  0.000E+00  0.000E+00  3.92083E+01  4.924E-01  2.000E+01  2.000E+04 -9.594E-01
   1   14   22     1    22    7.7982E+05 -1.6496E+03   7.8147E+05  0.000E+00  0.000E+00  0.000E+00  3.87350E+01  4.964E-01  2.000E+01  2.000E+04 -8.248E-02
   1    9   30     2     1    5.0000E+04 -2.6926E+04   7.6926E+04  0.000E+00  0.000E+00  0.000E+00  4.02587E+01  1.337E-01  2.000E+01  2.000E+04 -1.346E+00
   1    9   29     2     2    7.6926E+04 -2.9394E+04   1.0632E+05  0.000E+00  0.000E+00  0.000E+00  4.00416E+01  1.666E-01  2.000E+01  2.000E+04 -1.470E+00
   1    9   28     2     3    1.0632E+05 -3.3698E+04   1.4002E+05  0.000E+00  0.000E+00  0.000E+00  3.98240E+01  1.990E-01  2.000E+01  2.000E+04 -1.685E+00
   1    9   27     2     4    1.4002E+05 -4.7916E+04   1.8793E+05  0.000E+00  0.000E+00  0.000E+00  3.96113E+01  2.363E-01  2.000E+01  2.000E+04 -2.396E+00
   1   10   26     2     5    1.8793E+05 -3.3904E+04   2.2184E+05  0.000E+00  0.000E+00  0.000E+00  3.93951E+01  2.701E-01  2.000E+01  2.000E+04 -1.695E+00
   1   11   25     2     6    2.2184E+05 -2.5531E+04   2.4737E+05  0.000E+00  0.000E+00  0.000E+00  3.91679E+01  2.929E-01  2.000E+01  2.000E+04 -1.277E+00
   1   12   24     2     7    2.4737E+05 -1.8890E+04   2.6626E+05  0.000E+00  0.000E+00  0.000E+00  3.89343E+01  3.093E-01  2.000E+01  2.000E+04 -9.445E-01
   1   13   23     2     8    2.6626E+05 -1.3392E+04   2.7965E+05  0.000E+00  0.000E+00  0.000E+00  3.86958E+01  3.208E-01  2.000E+01  2.000E+04 -6.696E-01
   1   14   22     2     9    2.7965E+05 -7.2889E+03   2.8694E+05  0.000E+00  0.000E+00  0.000E+00  3.84530E+01  3.280E-01  2.000E+01  2.000E+04 -3.644E-01
   1   14   22     3     1    1.0684E+06 -1.5252E+04   1.0837E+06  0.000E+00  0.000E+00  0.000E+00  3.80549E+01  4.993E-01  2.000E+01  2.000E+04 -7.626E-01
   1   15   23     3     2    1.0837E+06 -2.3168E+04   1.1068E+06  0.000E+00  0.000E+00  0.000E+00  3.71713E+01  5.047E-01  2.000E+01  2.000E+04 -1.158E+00
   1   15   24     3     3    1.1068E+06 -1.9516E+04   1.1263E+06  0.000E+00  0.000E+00  0.000E+00  3.62883E+01  5.105E-01  2.000E+01  2.000E+04 -9.758E-01
   1   15   25     3     4    1.1263E+06 -1.9282E+04   1.1456E+06  0.000E+00  0.000E+00  0.000E+00  3.54047E+01  5.159E-01  2.000E+01  2.000E+04 -9.641E-01
   1   15   26     3     5    1.1456E+06 -2.2202E+04   1.1678E+06  0.000E+00  0.000E+00  0.000E+00  3.45215E+01  5.215E-01  2.000E+01  2.000E+04 -1.110E+00
   1   16   27     3     6    1.1678E+06 -2.9328E+04   1.1972E+06  0.000E+00  0.000E+00  0.000E+00  3.36395E+01  5.284E-01  2.000E+01  2.000E+04 -1.466E+00
   1   17   28     3     7    1.1972E+06 -3.6400E+04   1.2336E+06  0.000E+00  0.000E+00  0.000E+00  3.27594E+01  5.372E-01  2.000E+01  2.000E+04 -1.820E+00
   1   18   29     3     8    1.2336E+06 -4.7395E+04   1.2810E+06  0.000E+00  0.000E+00  0.000E+00  3.18816E+01  5.482E-01  2.000E+01  2.000E+04 -2.370E+00
   1   18   30     3     9    1.2810E+06 -4.3886E+04   1.3248E+06  0.000E+00  0.000E+00  0.000E+00  3.10045E+01  5.601E-01  2.000E+01  2.000E+04 -2.194E+00



1
              HEAD IN LAYER   1 AT END OF TIME STEP   1 IN STRESS PERIOD    6
  ---------------------------------------------------------------------------

          1      2      3      4      5      6      7      8      9     10
         11     12     13     14     15     16     17     18     19     20
         21     22     23     24     25     26     27     28     29     30
 .........................................................................
   1  ****** ****** ****** ****** ****** ****** ****** ****** ****** ******
      ****** ****** ****** ****** ****** ****** ****** ****** ****** ******
      ****** ****** ****** ****** ****** ****** ****** ****** ****** ******
   2  ****** ****** ****** ****** ****** ****** ****** ****** ****** ******
      ****** ****** ****** ****** ****** ****** ****** ****** ****** ******
      ****** ****** ****** ****** ****** ****** ****** ****** ****** ******
   3  ****** ****** ****** ****** ****** ****** ****** ****** ****** ******
      ****** ****** ****** ****** ****** ****** ****** ****** ****** ******
      ****** ****** ****** ****** ****** ****** ****** ****** ****** ******
   4  ****** ****** ****** ****** ****** ****** ****** ****** ****** ******
      ****** ****** ****** ****** ****** ****** ****** ****** ****** ******
      ****** ****** ****** ****** ****** ****** ****** ****** ****** ******
   5  ****** ****** ****** ****** ****** ****** ****** ****** ****** ******
      ****** ****** ****** ****** ****** ****** ****** ****** ****** ******
      ****** ****** ****** ****** ****** ****** ****** ****** ****** ******
   6  ****** ****** ****** ****** ****** ****** ****** ****** ****** ******
      ****** ****** ****** ****** ****** ****** ****** ****** ****** ******
      ****** ****** ****** ****** ****** ****** ****** ****** ****** ******
   7  ****** ****** ****** ****** ****** ****** ****** ****** ****** ******
      ****** ****** ****** ****** ****** ****** ****** ****** ****** ******
      ****** ****** ****** ****** ****** ****** ****** ****** ****** ******
   8  ****** ****** ****** ****** ****** ****** ****** ****** ****** ******
      ****** ****** ****** ****** ****** ****** ****** ****** ****** ******
      ****** ****** ****** ****** ****** ****** ****** ****** ****** ******
   9  ****** ****** ****** ****** ****** ****** ****** ****** ****** ******
      ****** ****** ****** ****** ****** ****** ****** ****** ****** ******
      ****** ****** ****** ****** ****** ****** ****** ****** ****** ******
  10  ****** ****** ****** ****** ****** ****** ****** ****** ****** ******
      ****** ****** ****** ****** ****** ****** ****** ****** ****** ******
      ****** ****** ****** ****** ****** ****** ****** ****** ****** ******
  11  ****** ****** ****** ****** ****** ****** ****** ****** ****** ******
      ****** ****** ****** ****** ****** ****** ****** ****** ****** ******
      ****** ****** ****** ****** ****** ****** ****** ****** ****** ******
  12  ****** ****** ****** ****** ****** ****** ****** ****** ****** ******
      ****** ****** ****** ****** ****** ****** ****** ****** ****** ******
      ****** ****** ****** ****** ****** ****** ****** ****** ****** ******
  13  ****** ****** ****** ****** ****** ****** ****** ****** ****** ******
      ****** ****** ****** ****** ****** ****** ****** ****** ****** ******
      ****** ****** ****** ****** ****** ****** ****** ****** ****** ******
  14  ****** ****** ****** ****** ****** ****** ****** ****** ****** ******
      ****** ****** ****** ****** ****** ****** ****** ****** ****** ******
      ****** ****** ****** ****** ****** ****** ****** ****** ****** ******
  15  ****** ****** ****** ****** ****** ****** ****** ****** ****** ******
      ****** ****** ****** ****** ****** ****** ****** ****** ****** ******
      ****** ****** ****** ****** ****** ****** ****** ****** ****** ******
  16  ****** ****** ****** ****** ****** ****** ****** ****** ****** ******
      ****** ****** ****** ****** ****** ****** ****** ****** ****** ******
      ****** ****** ****** ****** ****** ****** ****** ****** ****** ******
  17  ****** ****** ****** ****** ****** ****** ****** ****** ****** ******
      ****** ****** ****** ****** ****** ****** ****** ****** ****** ******
      ****** ****** ****** ****** ****** ****** ****** ****** ****** ******
  18  ****** ****** ****** ****** ****** ****** ****** ****** ****** ******
      ****** ****** ****** ****** ****** ****** ****** ****** ****** ******
      ****** ****** ****** ****** ****** ****** ****** ****** ****** ******
  19  ****** ****** ****** ****** ****** ****** ****** ****** ****** ******
      ****** ****** ****** ****** ****** ****** ****** ****** ****** ******
      ****** ****** ****** ****** ****** ****** ****** ****** ****** ******
  20  ****** ****** ****** ****** ****** ****** ****** ****** ****** ******
      ****** ****** ****** ****** ****** ****** ****** ****** ****** ******
      ****** ****** ****** ****** ****** ****** ****** ****** ****** ******
  21  ****** ****** ****** ****** ****** ****** ****** ****** ****** ******
      ****** ****** ****** ****** ****** ****** ****** ****** ****** ******
      ****** ****** ****** ****** ****** ****** ****** ****** ****** ******
  22  ****** ****** ****** ****** ****** ****** ****** ****** ****** ******
      ****** ****** ****** ****** ****** ****** ****** ****** ****** ******
      ****** ****** ****** ****** ****** ****** ****** ****** ****** ******
  23  ****** ****** ****** ****** ****** ****** ****** ****** ****** ******
      ****** ****** ****** ****** ****** ****** ****** ****** ****** ******
      ****** ****** ****** ****** ****** ****** ****** ****** ****** ******
  24  ****** ****** ****** ****** ****** ****** ****** ****** ****** ******
      ****** ****** ****** ****** ****** ****** ****** ****** ****** ******
      ****** ****** ****** ****** ****** ****** ****** ****** ****** ******
  25  ****** ****** ****** ****** ****** ****** ****** ****** ****** ******
      ****** ****** ****** ****** ****** ****** ****** ****** ****** ******
      ****** ****** ****** ****** ****** ****** ****** ****** ****** ******

 HEAD WILL BE SAVED ON UNIT   51 AT END OF TIME STEP    1, STRESS PERIOD    6
1
  VOLUMETRIC BUDGET FOR ENTIRE MODEL AT END OF TIME STEP    1, STRESS PERIOD   6
  ------------------------------------------------------------------------------

     CUMULATIVE VOLUMES      L**3       RATES FOR THIS TIME STEP      L**3/T
     ------------------                 ------------------------

           IN:                                      IN:
           ---                                      ---
             STORAGE =    20367413.7831               STORAGE =         201.2757
       CONSTANT HEAD =   655417457.5506         CONSTANT HEAD =     1202345.7886
               WELLS =           0.0000                 WELLS =           0.0000
            RECHARGE =    15097200.0000              RECHARGE =       55200.0000
      STREAM LEAKAGE =           0.0000        STREAM LEAKAGE =           0.0000

            TOTAL IN =   690882071.3336              TOTAL IN =     1257747.0644

          OUT:                                     OUT:
          ----                                     ----
             STORAGE =      509084.6590               STORAGE =        2908.8471
       CONSTANT HEAD =           0.0000         CONSTANT HEAD =           0.0000
               WELLS =    43812050.2650                 WELLS =       80000.0000
            RECHARGE =           0.0000              RECHARGE =           0.0000
      STREAM LEAKAGE =   646560945.1334        STREAM LEAKAGE =     1174838.1813

           TOTAL OUT =   690882080.0574             TOTAL OUT =     1257747.0284

            IN - OUT =          -8.7238              IN - OUT =       3.5957E-02

 PERCENT DISCREPANCY =          -0.00     PERCENT DISCREPANCY =           0.00






         TIME SUMMARY AT END OF TIME STEP    1 IN STRESS PERIOD    6
                    SECONDS     MINUTES      HOURS       DAYS        YEARS
                    -----------------------------------------------------------
   TIME STEP LENGTH 7.86240E+06 1.31040E+05  2184.0      91.000     0.24914    
 STRESS PERIOD TIME 7.86240E+06 1.31040E+05  2184.0      91.000     0.24914    
         TOTAL TIME 4.73472E+07 7.89120E+05  13152.      548.00      1.5003    
1
1
                            STRESS PERIOD NO.    7, LENGTH =   91.00000    
                            -----------------------------------------------

                              NUMBER OF TIME STEPS =     1

                               MULTIPLIER FOR DELT =     1.500

                            INITIAL TIME STEP SIZE =   91.00000    

 WELL NO.  LAYER   ROW   COL   STRESS RATE         
 --------------------------------------------------
      1      1     23     18     -0.5000E+05
      2      1     18     17     -0.2969E+05

      2 WELLS

                 RECHARGE =   0.00000    

 REUSING STREAM SEGMENT DATA FROM LAST STRESS PERIOD
 
 SOLVING FOR HEAD 


     6 CALLS TO PCG ROUTINE FOR TIME STEP   1 IN STRESS PERIOD    7
    23 TOTAL ITERATIONS

 OUTPUT CONTROL FOR STRESS PERIOD    7   TIME STEP    1
    SAVE BUDGET
    SAVE HEAD FOR ALL LAYERS
    PRINT HEAD FOR ALL LAYERS
 UBDSV2 SAVING "STREAMFLOW OUT  " ON UNIT  50 AT TIME STEP  1, STRESS PERIOD   7



 STREAM LISTING     PERIOD      7   STEP        1

 LAYER ROW COL. STREAM  RCH.  FLOW INTO     FLOW TO   FLOW OUT OF   OVRLND.     DIRECT     STREAM       STREAM     STREAM     STREAM   STREAMBED  STREAMBED
                SEG.NO.  NO.  STRM. RCH.    AQUIFER    STRM. RCH.    RUNOFF     PRECIP       ET          HEAD       DEPTH      WIDTH   CONDCTNC.   GRADIENT

   1   13    1     1     1    1.0000E+05 -2.7478E+04   1.2748E+05  0.000E+00  0.000E+00  0.000E+00  4.84176E+01  1.563E-01  2.000E+01  2.000E+04 -1.374E+00
   1   13    2     1     2    1.2748E+05 -3.7156E+04   1.6463E+05  0.000E+00  0.000E+00  0.000E+00  4.79657E+01  1.816E-01  2.000E+01  2.000E+04 -1.858E+00
   1   14    3     1     3    1.6463E+05 -3.2616E+04   1.9725E+05  0.000E+00  0.000E+00  0.000E+00  4.75133E+01  2.065E-01  2.000E+01  2.000E+04 -1.631E+00
   1   15    4     1     4    1.9725E+05 -3.1834E+04   2.2908E+05  0.000E+00  0.000E+00  0.000E+00  4.70573E+01  2.278E-01  2.000E+01  2.000E+04 -1.592E+00
   1   16    5     1     5    2.2908E+05 -3.3323E+04   2.6241E+05  0.000E+00  0.000E+00  0.000E+00  4.66004E+01  2.481E-01  2.000E+01  2.000E+04 -1.666E+00
   1   16    6     1     6    2.6241E+05 -2.9083E+04   2.9149E+05  0.000E+00  0.000E+00  0.000E+00  4.61415E+01  2.665E-01  2.000E+01  2.000E+04 -1.454E+00
   1   16    7     1     7    2.9149E+05 -2.8855E+04   3.2035E+05  0.000E+00  0.000E+00  0.000E+00  4.56807E+01  2.829E-01  2.000E+01  2.000E+04 -1.443E+00
   1   16    8     1     8    3.2035E+05 -2.8952E+04   3.4930E+05  0.000E+00  0.000E+00  0.000E+00  4.52191E+01  2.987E-01  2.000E+01  2.000E+04 -1.448E+00
   1   16    9     1     9    3.4930E+05 -2.8900E+04   3.7820E+05  0.000E+00  0.000E+00  0.000E+00  4.47571E+01  3.139E-01  2.000E+01  2.000E+04 -1.445E+00
   1   16   10     1    10    3.7820E+05 -2.8713E+04   4.0691E+05  0.000E+00  0.000E+00  0.000E+00  4.42945E+01  3.286E-01  2.000E+01  2.000E+04 -1.436E+00
   1   16   11     1    11    4.0691E+05 -2.8908E+04   4.3582E+05  0.000E+00  0.000E+00  0.000E+00  4.38315E+01  3.429E-01  2.000E+01  2.000E+04 -1.445E+00
   1   16   12     1    12    4.3582E+05 -3.3269E+04   4.6909E+05  0.000E+00  0.000E+00  0.000E+00  4.33692E+01  3.578E-01  2.000E+01  2.000E+04 -1.663E+00
   1   15   13     1    13    4.6909E+05 -3.1904E+04   5.0099E+05  0.000E+00  0.000E+00  0.000E+00  4.29072E+01  3.731E-01  2.000E+01  2.000E+04 -1.595E+00
   1   14   14     1    14    5.0099E+05 -3.2658E+04   5.3365E+05  0.000E+00  0.000E+00  0.000E+00  4.24446E+01  3.878E-01  2.000E+01  2.000E+04 -1.633E+00
   1   13   15     1    15    5.3365E+05 -3.5373E+04   5.6902E+05  0.000E+00  0.000E+00  0.000E+00  4.19824E+01  4.029E-01  2.000E+01  2.000E+04 -1.769E+00
   1   12   16     1    16    5.6902E+05 -4.2216E+04   6.1124E+05  0.000E+00  0.000E+00  0.000E+00  4.15219E+01  4.197E-01  2.000E+01  2.000E+04 -2.111E+00
   1   12   17     1    17    6.1124E+05 -3.2727E+04   6.4396E+05  0.000E+00  0.000E+00  0.000E+00  4.10604E+01  4.354E-01  2.000E+01  2.000E+04 -1.636E+00
   1   12   18     1    18    6.4396E+05 -3.1147E+04   6.7511E+05  0.000E+00  0.000E+00  0.000E+00  4.05963E+01  4.486E-01  2.000E+01  2.000E+04 -1.557E+00
   1   12   19     1    19    6.7511E+05 -3.5348E+04   7.1046E+05  0.000E+00  0.000E+00  0.000E+00  4.01325E+01  4.620E-01  2.000E+01  2.000E+04 -1.767E+00
   1   13   20     1    20    7.1046E+05 -2.4987E+04   7.3545E+05  0.000E+00  0.000E+00  0.000E+00  3.96672E+01  4.740E-01  2.000E+01  2.000E+04 -1.249E+00
   1   14   21     1    21    7.3545E+05 -1.7563E+04   7.5301E+05  0.000E+00  0.000E+00  0.000E+00  3.91982E+01  4.823E-01  2.000E+01  2.000E+04 -8.781E-01
   1   14   22     1    22    7.5301E+05 -1.2168E+03   7.5423E+05  0.000E+00  0.000E+00  0.000E+00  3.87246E+01  4.860E-01  2.000E+01  2.000E+04 -6.084E-02
   1    9   30     2     1    5.0000E+04 -2.6334E+04   7.6334E+04  0.000E+00  0.000E+00  0.000E+00  4.02583E+01  1.333E-01  2.000E+01  2.000E+04 -1.317E+00
   1    9   29     2     2    7.6334E+04 -2.8802E+04   1.0514E+05  0.000E+00  0.000E+00  0.000E+00  4.00407E+01  1.657E-01  2.000E+01  2.000E+04 -1.440E+00
   1    9   28     2     3    1.0514E+05 -3.3084E+04   1.3822E+05  0.000E+00  0.000E+00  0.000E+00  3.98226E+01  1.976E-01  2.000E+01  2.000E+04 -1.654E+00
   1    9   27     2     4    1.3822E+05 -4.7164E+04   1.8538E+05  0.000E+00  0.000E+00  0.000E+00  3.96094E+01  2.344E-01  2.000E+01  2.000E+04 -2.358E+00
   1   10   26     2     5    1.8538E+05 -3.3114E+04   2.1850E+05  0.000E+00  0.000E+00  0.000E+00  3.93927E+01  2.677E-01  2.000E+01  2.000E+04 -1.656E+00
   1   11   25     2     6    2.1850E+05 -2.4756E+04   2.4325E+05  0.000E+00  0.000E+00  0.000E+00  3.91651E+01  2.901E-01  2.000E+01  2.000E+04 -1.238E+00
   1   12   24     2     7    2.4325E+05 -1.8166E+04   2.6142E+05  0.000E+00  0.000E+00  0.000E+00  3.89310E+01  3.060E-01  2.000E+01  2.000E+04 -9.083E-01
   1   13   23     2     8    2.6142E+05 -1.2729E+04   2.7415E+05  0.000E+00  0.000E+00  0.000E+00  3.86921E+01  3.171E-01  2.000E+01  2.000E+04 -6.365E-01
   1   14   22     2     9    2.7415E+05 -6.7291E+03   2.8088E+05  0.000E+00  0.000E+00  0.000E+00  3.84490E+01  3.240E-01  2.000E+01  2.000E+04 -3.365E-01
   1   14   22     3     1    1.0351E+06 -1.4799E+04   1.0499E+06  0.000E+00  0.000E+00  0.000E+00  3.80455E+01  4.899E-01  2.000E+01  2.000E+04 -7.400E-01
   1   15   23     3     2    1.0499E+06 -2.1954E+04   1.0719E+06  0.000E+00  0.000E+00  0.000E+00  3.71618E+01  4.951E-01  2.000E+01  2.000E+04 -1.098E+00
   1   15   24     3     3    1.0719E+06 -1.8724E+04   1.0906E+06  0.000E+00  0.000E+00  0.000E+00  3.62786E+01  5.008E-01  2.000E+01  2.000E+04 -9.362E-01
   1   15   25     3     4    1.0906E+06 -1.8614E+04   1.1092E+06  0.000E+00  0.000E+00  0.000E+00  3.53948E+01  5.060E-01  2.000E+01  2.000E+04 -9.307E-01
   1   15   26     3     5    1.1092E+06 -2.1517E+04   1.1307E+06  0.000E+00  0.000E+00  0.000E+00  3.45115E+01  5.115E-01  2.000E+01  2.000E+04 -1.076E+00
   1   16   27     3     6    1.1307E+06 -2.8488E+04   1.1592E+06  0.000E+00  0.000E+00  0.000E+00  3.36294E+01  5.183E-01  2.000E+01  2.000E+04 -1.424E+00
   1   17   28     3     7    1.1592E+06 -3.5561E+04   1.1948E+06  0.000E+00  0.000E+00  0.000E+00  3.27492E+01  5.269E-01  2.000E+01  2.000E+04 -1.778E+00
   1   18   29     3     8    1.1948E+06 -4.6624E+04   1.2414E+06  0.000E+00  0.000E+00  0.000E+00  3.18712E+01  5.379E-01  2.000E+01  2.000E+04 -2.331E+00
   1   18   30     3     9    1.2414E+06 -4.3269E+04   1.2847E+06  0.000E+00  0.000E+00  0.000E+00  3.09942E+01  5.497E-01  2.000E+01  2.000E+04 -2.163E+00



1
              HEAD IN LAYER   1 AT END OF TIME STEP   1 IN STRESS PERIOD    7
  ---------------------------------------------------------------------------

          1      2      3      4      5      6      7      8      9     10
         11     12     13     14     15     16     17     18     19     20
         21     22     23     24     25     26     27     28     29     30
 .........................................................................
   1  ****** ****** ****** ****** ****** ****** ****** ****** ****** ******
      ****** ****** ****** ****** ****** ****** ****** ****** ****** ******
      ****** ****** ****** ****** ****** ****** ****** ****** ****** ******
   2  ****** ****** ****** ****** ****** ****** ****** ****** ****** ******
      ****** ****** ****** ****** ****** ****** ****** ****** ****** ******
      ****** ****** ****** ****** ****** ****** ****** ****** ****** ******
   3  ****** ****** ****** ****** ****** ****** ****** ****** ****** ******
      ****** ****** ****** ****** ****** ****** ****** ****** ****** ******
      ****** ****** ****** ****** ****** ****** ****** ****** ****** ******
   4  ****** ****** ****** ****** ****** ****** ****** ****** ****** ******
      ****** ****** ****** ****** ****** ****** ****** ****** ****** ******
      ****** ****** ****** ****** ****** ****** ****** ****** ****** ******
   5  ****** ****** ****** ****** ****** ****** ****** ****** ****** ******
      ****** ****** ****** ****** ****** ****** ****** ****** ****** ******
      ****** ****** ****** ****** ****** ****** ****** ****** ****** ******
   6  ****** ****** ****** ****** ****** ****** ****** ****** ****** ******
      ****** ****** ****** ****** ****** ****** ****** ****** ****** ******
      ****** ****** ****** ****** ****** ****** ****** ****** ****** ******
   7  ****** ****** ****** ****** ****** ****** ****** ****** ****** ******
      ****** ****** ****** ****** ****** ****** ****** ****** ****** ******
      ****** ****** ****** ****** ****** ****** ****** ****** ****** ******
   8  ****** ****** ****** ****** ****** ****** ****** ****** ****** ******
      ****** ****** ****** ****** ****** ****** ****** ****** ****** ******
      ****** ****** ****** ****** ****** ****** ****** ****** ****** ******
   9  ****** ****** ****** ****** ****** ****** ****** ****** ****** ******
      ****** ****** ****** ****** ****** ****** ****** ****** ****** ******
      ****** ****** ****** ****** ****** ****** ****** ****** ****** ******
  10  ****** ****** ****** ****** ****** ****** ****** ****** ****** ******
      ****** ****** ****** ****** ****** ****** ****** ****** ****** ******
      ****** ****** ****** ****** ****** ****** ****** ****** ****** ******
  11  ****** ****** ****** ****** ****** ****** ****** ****** ****** ******
      ****** ****** ****** ****** ****** ****** ****** ****** ****** ******
      ****** ****** ****** ****** ****** ****** ****** ****** ****** ******
  12  ****** ****** ****** ****** ****** ****** ****** ****** ****** ******
      ****** ****** ****** ****** ****** ****** ****** ****** ****** ******
      ****** ****** ****** ****** ****** ****** ****** ****** ****** ******
  13  ****** ****** ****** ****** ****** ****** ****** ****** ****** ******
      ****** ****** ****** ****** ****** ****** ****** ****** ****** ******
      ****** ****** ****** ****** ****** ****** ****** ****** ****** ******
  14  ****** ****** ****** ****** ****** ****** ****** ****** ****** ******
      ****** ****** ****** ****** ****** ****** ****** ****** ****** ******
      ****** ****** ****** ****** ****** ****** ****** ****** ****** ******
  15  ****** ****** ****** ****** ****** ****** ****** ****** ****** ******
      ****** ****** ****** ****** ****** ****** ****** ****** ****** ******
      ****** ****** ****** ****** ****** ****** ****** ****** ****** ******
  16  ****** ****** ****** ****** ****** ****** ****** ****** ****** ******
      ****** ****** ****** ****** ****** ****** ****** ****** ****** ******
      ****** ****** ****** ****** ****** ****** ****** ****** ****** ******
  17  ****** ****** ****** ****** ****** ****** ****** ****** ****** ******
      ****** ****** ****** ****** ****** ****** ****** ****** ****** ******
      ****** ****** ****** ****** ****** ****** ****** ****** ****** ******
  18  ****** ****** ****** ****** ****** ****** ****** ****** ****** ******
      ****** ****** ****** ****** ****** ****** ****** ****** ****** ******
      ****** ****** ****** ****** ****** ****** ****** ****** ****** ******
  19  ****** ****** ****** ****** ****** ****** ****** ****** ****** ******
      ****** ****** ****** ****** ****** ****** ****** ****** ****** ******
      ****** ****** ****** ****** ****** ****** ****** ****** ****** ******
  20  ****** ****** ****** ****** ****** ****** ****** ****** ****** ******
      ****** ****** ****** ****** ****** ****** ****** ****** ****** ******
      ****** ****** ****** ****** ****** ****** ****** ****** ****** ******
  21  ****** ****** ****** ****** ****** ****** ****** ****** ****** ******
      ****** ****** ****** ****** ****** ****** ****** ****** ****** ******
      ****** ****** ****** ****** ****** ****** ****** ****** ****** ******
  22  ****** ****** ****** ****** ****** ****** ****** ****** ****** ******
      ****** ****** ****** ****** ****** ****** ****** ****** ****** ******
      ****** ****** ****** ****** ****** ****** ****** ****** ****** ******
  23  ****** ****** ****** ****** ****** ****** ****** ****** ****** ******
      ****** ****** ****** ****** ****** ****** ****** ****** ****** ******
      ****** ****** ****** ****** ****** ****** ****** ****** ****** ******
  24  ****** ****** ****** ****** ****** ****** ****** ****** ****** ******
      ****** ****** ****** ****** ****** ****** ****** ****** ****** ******
      ****** ****** ****** ****** ****** ****** ****** ****** ****** ******
  25  ****** ****** ****** ****** ****** ****** ****** ****** ****** ******
      ****** ****** ****** ****** ****** ****** ****** ****** ****** ******
      ****** ****** ****** ****** ****** ****** ****** ****** ****** ******

 HEAD WILL BE SAVED ON UNIT   51 AT END OF TIME STEP    1, STRESS PERIOD    7
1
  VOLUMETRIC BUDGET FOR ENTIRE MODEL AT END OF TIME STEP    1, STRESS PERIOD   7
  ------------------------------------------------------------------------------

     CUMULATIVE VOLUMES      L**3       RATES FOR THIS TIME STEP      L**3/T
     ------------------                 ------------------------

           IN:                                      IN:
           ---                                      ---
             STORAGE =    20681841.3527               STORAGE =        3455.2480
       CONSTANT HEAD =   765625897.7999         CONSTANT HEAD =     1211081.7610
               WELLS =           0.0000                 WELLS =           0.0000
            RECHARGE =    15097200.0000              RECHARGE =           0.0000
      STREAM LEAKAGE =           0.0000        STREAM LEAKAGE =           0.0000

            TOTAL IN =   801404939.1526              TOTAL IN =     1214537.0090

          OUT:                                     OUT:
          ----                                     ----
             STORAGE =      526324.4773               STORAGE =         189.4486
       CONSTANT HEAD =           0.0000         CONSTANT HEAD =           0.0000
               WELLS =    51064100.5301                 WELLS =       79692.8601
            RECHARGE =           0.0000              RECHARGE =           0.0000
      STREAM LEAKAGE =   749814527.1685        STREAM LEAKAGE =     1134654.7476

           TOTAL OUT =   801404952.1758             TOTAL OUT =     1214537.0562

            IN - OUT =         -13.0232              IN - OUT =      -4.7246E-02

 PERCENT DISCREPANCY =          -0.00     PERCENT DISCREPANCY =          -0.00






         TIME SUMMARY AT END OF TIME STEP    1 IN STRESS PERIOD    7
                    SECONDS     MINUTES      HOURS       DAYS        YEARS
                    -----------------------------------------------------------
   TIME STEP LENGTH 7.86240E+06 1.31040E+05  2184.0      91.000     0.24914    
 STRESS PERIOD TIME 7.86240E+06 1.31040E+05  2184.0      91.000     0.24914    
         TOTAL TIME 5.52096E+07 9.20160E+05  15336.      639.00      1.7495    
1
1
                            STRESS PERIOD NO.    8, LENGTH =   91.00000    
                            -----------------------------------------------

                              NUMBER OF TIME STEPS =     1

                               MULTIPLIER FOR DELT =     1.500

                            INITIAL TIME STEP SIZE =   91.00000    

 WELL NO.  LAYER   ROW   COL   STRESS RATE         
 --------------------------------------------------
      1      1     23     18     -0.5000E+05
      2      1     18     17       0.000    
      3      1     23     16     -0.3000E+05

      3 WELLS

                 RECHARGE =  1.000000E-03

 REUSING STREAM SEGMENT DATA FROM LAST STRESS PERIOD
 
 SOLVING FOR HEAD 


     6 CALLS TO PCG ROUTINE FOR TIME STEP   1 IN STRESS PERIOD    8
    22 TOTAL ITERATIONS

 OUTPUT CONTROL FOR STRESS PERIOD    8   TIME STEP    1
    SAVE BUDGET
    SAVE HEAD FOR ALL LAYERS
    PRINT HEAD FOR ALL LAYERS
 UBDSV2 SAVING "STREAMFLOW OUT  " ON UNIT  50 AT TIME STEP  1, STRESS PERIOD   8



 STREAM LISTING     PERIOD      8   STEP        1

 LAYER ROW COL. STREAM  RCH.  FLOW INTO     FLOW TO   FLOW OUT OF   OVRLND.     DIRECT     STREAM       STREAM     STREAM     STREAM   STREAMBED  STREAMBED
                SEG.NO.  NO.  STRM. RCH.    AQUIFER    STRM. RCH.    RUNOFF     PRECIP       ET          HEAD       DEPTH      WIDTH   CONDCTNC.   GRADIENT

   1   13    1     1     1    1.0000E+05 -2.7878E+04   1.2788E+05  0.000E+00  0.000E+00  0.000E+00  4.84178E+01  1.564E-01  2.000E+01  2.000E+04 -1.394E+00
   1   13    2     1     2    1.2788E+05 -3.7633E+04   1.6551E+05  0.000E+00  0.000E+00  0.000E+00  4.79661E+01  1.820E-01  2.000E+01  2.000E+04 -1.882E+00
   1   14    3     1     3    1.6551E+05 -3.3090E+04   1.9860E+05  0.000E+00  0.000E+00  0.000E+00  4.75140E+01  2.072E-01  2.000E+01  2.000E+04 -1.654E+00
   1   15    4     1     4    1.9860E+05 -3.2295E+04   2.3090E+05  0.000E+00  0.000E+00  0.000E+00  4.70584E+01  2.288E-01  2.000E+01  2.000E+04 -1.615E+00
   1   16    5     1     5    2.3090E+05 -3.3746E+04   2.6464E+05  0.000E+00  0.000E+00  0.000E+00  4.66016E+01  2.493E-01  2.000E+01  2.000E+04 -1.687E+00
   1   16    6     1     6    2.6464E+05 -2.9459E+04   2.9410E+05  0.000E+00  0.000E+00  0.000E+00  4.61429E+01  2.679E-01  2.000E+01  2.000E+04 -1.473E+00
   1   16    7     1     7    2.9410E+05 -2.9241E+04   3.2334E+05  0.000E+00  0.000E+00  0.000E+00  4.56822E+01  2.845E-01  2.000E+01  2.000E+04 -1.462E+00
   1   16    8     1     8    3.2334E+05 -2.9363E+04   3.5271E+05  0.000E+00  0.000E+00  0.000E+00  4.52208E+01  3.004E-01  2.000E+01  2.000E+04 -1.468E+00
   1   16    9     1     9    3.5271E+05 -2.9353E+04   3.8206E+05  0.000E+00  0.000E+00  0.000E+00  4.47590E+01  3.158E-01  2.000E+01  2.000E+04 -1.468E+00
   1   16   10     1    10    3.8206E+05 -2.9247E+04   4.1131E+05  0.000E+00  0.000E+00  0.000E+00  4.42966E+01  3.307E-01  2.000E+01  2.000E+04 -1.462E+00
   1   16   11     1    11    4.1131E+05 -2.9627E+04   4.4093E+05  0.000E+00  0.000E+00  0.000E+00  4.38338E+01  3.452E-01  2.000E+01  2.000E+04 -1.481E+00
   1   16   12     1    12    4.4093E+05 -3.4588E+04   4.7552E+05  0.000E+00  0.000E+00  0.000E+00  4.33719E+01  3.606E-01  2.000E+01  2.000E+04 -1.729E+00
   1   15   13     1    13    4.7552E+05 -3.3528E+04   5.0905E+05  0.000E+00  0.000E+00  0.000E+00  4.29105E+01  3.764E-01  2.000E+01  2.000E+04 -1.676E+00
   1   14   14     1    14    5.0905E+05 -3.4338E+04   5.4339E+05  0.000E+00  0.000E+00  0.000E+00  4.24486E+01  3.918E-01  2.000E+01  2.000E+04 -1.717E+00
   1   13   15     1    15    5.4339E+05 -3.6829E+04   5.8021E+05  0.000E+00  0.000E+00  0.000E+00  4.19870E+01  4.074E-01  2.000E+01  2.000E+04 -1.841E+00
   1   12   16     1    16    5.8021E+05 -4.3209E+04   6.2342E+05  0.000E+00  0.000E+00  0.000E+00  4.15269E+01  4.246E-01  2.000E+01  2.000E+04 -2.160E+00
   1   12   17     1    17    6.2342E+05 -3.3694E+04   6.5712E+05  0.000E+00  0.000E+00  0.000E+00  4.10657E+01  4.407E-01  2.000E+01  2.000E+04 -1.685E+00
   1   12   18     1    18    6.5712E+05 -3.2078E+04   6.8920E+05  0.000E+00  0.000E+00  0.000E+00  4.06019E+01  4.541E-01  2.000E+01  2.000E+04 -1.604E+00
   1   12   19     1    19    6.8920E+05 -3.6218E+04   7.2541E+05  0.000E+00  0.000E+00  0.000E+00  4.01383E+01  4.678E-01  2.000E+01  2.000E+04 -1.811E+00
   1   13   20     1    20    7.2541E+05 -2.6193E+04   7.5161E+05  0.000E+00  0.000E+00  0.000E+00  3.96733E+01  4.801E-01  2.000E+01  2.000E+04 -1.310E+00
   1   14   21     1    21    7.5161E+05 -1.8846E+04   7.7045E+05  0.000E+00  0.000E+00  0.000E+00  3.92047E+01  4.888E-01  2.000E+01  2.000E+04 -9.423E-01
   1   14   22     1    22    7.7045E+05 -1.5306E+03   7.7198E+05  0.000E+00  0.000E+00  0.000E+00  3.87314E+01  4.928E-01  2.000E+01  2.000E+04 -7.653E-02
   1    9   30     2     1    5.0000E+04 -2.6622E+04   7.6622E+04  0.000E+00  0.000E+00  0.000E+00  4.02585E+01  1.335E-01  2.000E+01  2.000E+04 -1.331E+00
   1    9   29     2     2    7.6622E+04 -2.9090E+04   1.0571E+05  0.000E+00  0.000E+00  0.000E+00  4.00411E+01  1.661E-01  2.000E+01  2.000E+04 -1.455E+00
   1    9   28     2     3    1.0571E+05 -3.3383E+04   1.3910E+05  0.000E+00  0.000E+00  0.000E+00  3.98233E+01  1.983E-01  2.000E+01  2.000E+04 -1.669E+00
   1    9   27     2     4    1.3910E+05 -4.7529E+04   1.8662E+05  0.000E+00  0.000E+00  0.000E+00  3.96103E+01  2.353E-01  2.000E+01  2.000E+04 -2.376E+00
   1   10   26     2     5    1.8662E+05 -3.3502E+04   2.2013E+05  0.000E+00  0.000E+00  0.000E+00  3.93939E+01  2.689E-01  2.000E+01  2.000E+04 -1.675E+00
   1   11   25     2     6    2.2013E+05 -2.5144E+04   2.4527E+05  0.000E+00  0.000E+00  0.000E+00  3.91665E+01  2.915E-01  2.000E+01  2.000E+04 -1.257E+00
   1   12   24     2     7    2.4527E+05 -1.8544E+04   2.6382E+05  0.000E+00  0.000E+00  0.000E+00  3.89326E+01  3.076E-01  2.000E+01  2.000E+04 -9.272E-01
   1   13   23     2     8    2.6382E+05 -1.3111E+04   2.7693E+05  0.000E+00  0.000E+00  0.000E+00  3.86940E+01  3.190E-01  2.000E+01  2.000E+04 -6.556E-01
   1   14   22     2     9    2.7693E+05 -7.1367E+03   2.8406E+05  0.000E+00  0.000E+00  0.000E+00  3.84511E+01  3.261E-01  2.000E+01  2.000E+04 -3.568E-01
   1   14   22     3     1    1.0560E+06 -1.5130E+04   1.0712E+06  0.000E+00  0.000E+00  0.000E+00  3.80514E+01  4.959E-01  2.000E+01  2.000E+04 -7.565E-01
   1   15   23     3     2    1.0712E+06 -2.2852E+04   1.0940E+06  0.000E+00  0.000E+00  0.000E+00  3.71678E+01  5.012E-01  2.000E+01  2.000E+04 -1.143E+00
   1   15   24     3     3    1.0940E+06 -1.9255E+04   1.1133E+06  0.000E+00  0.000E+00  0.000E+00  3.62848E+01  5.070E-01  2.000E+01  2.000E+04 -9.627E-01
   1   15   25     3     4    1.1133E+06 -1.9023E+04   1.1323E+06  0.000E+00  0.000E+00  0.000E+00  3.54011E+01  5.122E-01  2.000E+01  2.000E+04 -9.512E-01
   1   15   26     3     5    1.1323E+06 -2.1901E+04   1.1542E+06  0.000E+00  0.000E+00  0.000E+00  3.45178E+01  5.178E-01  2.000E+01  2.000E+04 -1.095E+00
   1   16   27     3     6    1.1542E+06 -2.8965E+04   1.1832E+06  0.000E+00  0.000E+00  0.000E+00  3.36358E+01  5.247E-01  2.000E+01  2.000E+04 -1.448E+00
   1   17   28     3     7    1.1832E+06 -3.6028E+04   1.2192E+06  0.000E+00  0.000E+00  0.000E+00  3.27556E+01  5.334E-01  2.000E+01  2.000E+04 -1.801E+00
   1   18   29     3     8    1.2192E+06 -4.7045E+04   1.2662E+06  0.000E+00  0.000E+00  0.000E+00  3.18777E+01  5.444E-01  2.000E+01  2.000E+04 -2.352E+00
   1   18   30     3     9    1.2662E+06 -4.3595E+04   1.3098E+06  0.000E+00  0.000E+00  0.000E+00  3.10007E+01  5.562E-01  2.000E+01  2.000E+04 -2.180E+00



1
              HEAD IN LAYER   1 AT END OF TIME STEP   1 IN STRESS PERIOD    8
  ---------------------------------------------------------------------------

          1      2      3      4      5      6      7      8      9     10
         11     12     13     14     15     16     17     18     19     20
         21     22     23     24     25     26     27     28     29     30
 .........................................................................
   1  ****** ****** ****** ****** ****** ****** ****** ****** ****** ******
      ****** ****** ****** ****** ****** ****** ****** ****** ****** ******
      ****** ****** ****** ****** ****** ****** ****** ****** ****** ******
   2  ****** ****** ****** ****** ****** ****** ****** ****** ****** ******
      ****** ****** ****** ****** ****** ****** ****** ****** ****** ******
      ****** ****** ****** ****** ****** ****** ****** ****** ****** ******
   3  ****** ****** ****** ****** ****** ****** ****** ****** ****** ******
      ****** ****** ****** ****** ****** ****** ****** ****** ****** ******
      ****** ****** ****** ****** ****** ****** ****** ****** ****** ******
   4  ****** ****** ****** ****** ****** ****** ****** ****** ****** ******
      ****** ****** ****** ****** ****** ****** ****** ****** ****** ******
      ****** ****** ****** ****** ****** ****** ****** ****** ****** ******
   5  ****** ****** ****** ****** ****** ****** ****** ****** ****** ******
      ****** ****** ****** ****** ****** ****** ****** ****** ****** ******
      ****** ****** ****** ****** ****** ****** ****** ****** ****** ******
   6  ****** ****** ****** ****** ****** ****** ****** ****** ****** ******
      ****** ****** ****** ****** ****** ****** ****** ****** ****** ******
      ****** ****** ****** ****** ****** ****** ****** ****** ****** ******
   7  ****** ****** ****** ****** ****** ****** ****** ****** ****** ******
      ****** ****** ****** ****** ****** ****** ****** ****** ****** ******
      ****** ****** ****** ****** ****** ****** ****** ****** ****** ******
   8  ****** ****** ****** ****** ****** ****** ****** ****** ****** ******
      ****** ****** ****** ****** ****** ****** ****** ****** ****** ******
      ****** ****** ****** ****** ****** ****** ****** ****** ****** ******
   9  ****** ****** ****** ****** ****** ****** ****** ****** ****** ******
      ****** ****** ****** ****** ****** ****** ****** ****** ****** ******
      ****** ****** ****** ****** ****** ****** ****** ****** ****** ******
  10  ****** ****** ****** ****** ****** ****** ****** ****** ****** ******
      ****** ****** ****** ****** ****** ****** ****** ****** ****** ******
      ****** ****** ****** ****** ****** ****** ****** ****** ****** ******
  11  ****** ****** ****** ****** ****** ****** ****** ****** ****** ******
      ****** ****** ****** ****** ****** ****** ****** ****** ****** ******
      ****** ****** ****** ****** ****** ****** ****** ****** ****** ******
  12  ****** ****** ****** ****** ****** ****** ****** ****** ****** ******
      ****** ****** ****** ****** ****** ****** ****** ****** ****** ******
      ****** ****** ****** ****** ****** ****** ****** ****** ****** ******
  13  ****** ****** ****** ****** ****** ****** ****** ****** ****** ******
      ****** ****** ****** ****** ****** ****** ****** ****** ****** ******
      ****** ****** ****** ****** ****** ****** ****** ****** ****** ******
  14  ****** ****** ****** ****** ****** ****** ****** ****** ****** ******
      ****** ****** ****** ****** ****** ****** ****** ****** ****** ******
      ****** ****** ****** ****** ****** ****** ****** ****** ****** ******
  15  ****** ****** ****** ****** ****** ****** ****** ****** ****** ******
      ****** ****** ****** ****** ****** ****** ****** ****** ****** ******
      ****** ****** ****** ****** ****** ****** ****** ****** ****** ******
  16  ****** ****** ****** ****** ****** ****** ****** ****** ****** ******
      ****** ****** ****** ****** ****** ****** ****** ****** ****** ******
      ****** ****** ****** ****** ****** ****** ****** ****** ****** ******
  17  ****** ****** ****** ****** ****** ****** ****** ****** ****** ******
      ****** ****** ****** ****** ****** ****** ****** ****** ****** ******
      ****** ****** ****** ****** ****** ****** ****** ****** ****** ******
  18  ****** ****** ****** ****** ****** ****** ****** ****** ****** ******
      ****** ****** ****** ****** ****** ****** ****** ****** ****** ******
      ****** ****** ****** ****** ****** ****** ****** ****** ****** ******
  19  ****** ****** ****** ****** ****** ****** ****** ****** ****** ******
      ****** ****** ****** ****** ****** ****** ****** ****** ****** ******
      ****** ****** ****** ****** ****** ****** ****** ****** ****** ******
  20  ****** ****** ****** ****** ****** ****** ****** ****** ****** ******
      ****** ****** ****** ****** ****** ****** ****** ****** ****** ******
      ****** ****** ****** ****** ****** ****** ****** ****** ****** ******
  21  ****** ****** ****** ****** ****** ****** ****** ****** ****** ******
      ****** ****** ****** ****** ****** ****** ****** ****** ****** ******
      ****** ****** ****** ****** ****** ****** ****** ****** ****** ******
  22  ****** ****** ****** ****** ****** ****** ****** ****** ****** ******
      ****** ****** ****** ****** ****** ****** ****** ****** ****** ******
      ****** ****** ****** ****** ****** ****** ****** ****** ****** ******
  23  ****** ****** ****** ****** ****** ****** ****** ****** ****** ******
      ****** ****** ****** ****** ****** ****** ****** ****** ****** ******
      ****** ****** ****** ****** ****** ****** ****** ****** ****** ******
  24  ****** ****** ****** ****** ****** ****** ****** ****** ****** ******
      ****** ****** ****** ****** ****** ****** ****** ****** ****** ******
      ****** ****** ****** ****** ****** ****** ****** ****** ****** ******
  25  ****** ****** ****** ****** ****** ****** ****** ****** ****** ******
      ****** ****** ****** ****** ****** ****** ****** ****** ****** ******
      ****** ****** ****** ****** ****** ****** ****** ****** ****** ******

 HEAD WILL BE SAVED ON UNIT   51 AT END OF TIME STEP    1, STRESS PERIOD    8
1
  VOLUMETRIC BUDGET FOR ENTIRE MODEL AT END OF TIME STEP    1, STRESS PERIOD   8
  ------------------------------------------------------------------------------

     CUMULATIVE VOLUMES      L**3       RATES FOR THIS TIME STEP      L**3/T
     ------------------                 ------------------------

           IN:                                      IN:
           ---                                      ---
             STORAGE =    20702143.7898               STORAGE =         223.1037
       CONSTANT HEAD =   876114478.4761         CONSTANT HEAD =     1214160.2272
               WELLS =           0.0000                 WELLS =           0.0000
            RECHARGE =    17608800.0000              RECHARGE =       27600.0000
      STREAM LEAKAGE =           0.0000        STREAM LEAKAGE =           0.0000

            TOTAL IN =   914425422.2659              TOTAL IN =     1241983.3309

          OUT:                                     OUT:
          ----                                     ----
             STORAGE =      721262.9662               STORAGE =        2142.1812
       CONSTANT HEAD =           0.0000         CONSTANT HEAD =           0.0000
               WELLS =    58344100.5301                 WELLS =       80000.0000
            RECHARGE =           0.0000              RECHARGE =           0.0000
      STREAM LEAKAGE =   855360069.3146        STREAM LEAKAGE =     1159841.1225

           TOTAL OUT =   914425432.8109             TOTAL OUT =     1241983.3037

            IN - OUT =         -10.5450              IN - OUT =       2.7233E-02

 PERCENT DISCREPANCY =          -0.00     PERCENT DISCREPANCY =           0.00






         TIME SUMMARY AT END OF TIME STEP    1 IN STRESS PERIOD    8
                    SECONDS     MINUTES      HOURS       DAYS        YEARS
                    -----------------------------------------------------------
   TIME STEP LENGTH 7.86240E+06 1.31040E+05  2184.0      91.000     0.24914    
 STRESS PERIOD TIME 7.86240E+06 1.31040E+05  2184.0      91.000     0.24914    
         TOTAL TIME 6.30720E+07 1.05120E+06  17520.      730.00      1.9986    
1
1
                            STRESS PERIOD NO.    9, LENGTH =   92.00000    
                            -----------------------------------------------

                              NUMBER OF TIME STEPS =     1

                               MULTIPLIER FOR DELT =     1.500

                            INITIAL TIME STEP SIZE =   92.00000    

 WELL NO.  LAYER   ROW   COL   STRESS RATE         
 --------------------------------------------------
      1      1     23     18     -0.5000E+05
      2      1     18     17     -0.3000E+05

      2 WELLS

                 RECHARGE =  5.000000E-04

 REUSING STREAM SEGMENT DATA FROM LAST STRESS PERIOD
 
 SOLVING FOR HEAD 


     6 CALLS TO PCG ROUTINE FOR TIME STEP   1 IN STRESS PERIOD    9
    22 TOTAL ITERATIONS

 OUTPUT CONTROL FOR STRESS PERIOD    9   TIME STEP    1
    SAVE BUDGET
    SAVE HEAD FOR ALL LAYERS
    PRINT HEAD FOR ALL LAYERS
 UBDSV2 SAVING "STREAMFLOW OUT  " ON UNIT  50 AT TIME STEP  1, STRESS PERIOD   9



 STREAM LISTING     PERIOD      9   STEP        1

 LAYER ROW COL. STREAM  RCH.  FLOW INTO     FLOW TO   FLOW OUT OF   OVRLND.     DIRECT     STREAM       STREAM     STREAM     STREAM   STREAMBED  STREAMBED
                SEG.NO.  NO.  STRM. RCH.    AQUIFER    STRM. RCH.    RUNOFF     PRECIP       ET          HEAD       DEPTH      WIDTH   CONDCTNC.   GRADIENT

   1   13    1     1     1    1.0000E+05 -2.7672E+04   1.2767E+05  0.000E+00  0.000E+00  0.000E+00  4.84177E+01  1.563E-01  2.000E+01  2.000E+04 -1.384E+00
   1   13    2     1     2    1.2767E+05 -3.7387E+04   1.6506E+05  0.000E+00  0.000E+00  0.000E+00  4.79659E+01  1.818E-01  2.000E+01  2.000E+04 -1.869E+00
   1   14    3     1     3    1.6506E+05 -3.2844E+04   1.9790E+05  0.000E+00  0.000E+00  0.000E+00  4.75137E+01  2.068E-01  2.000E+01  2.000E+04 -1.642E+00
   1   15    4     1     4    1.9790E+05 -3.2055E+04   2.2996E+05  0.000E+00  0.000E+00  0.000E+00  4.70578E+01  2.283E-01  2.000E+01  2.000E+04 -1.603E+00
   1   16    5     1     5    2.2996E+05 -3.3523E+04   2.6348E+05  0.000E+00  0.000E+00  0.000E+00  4.66010E+01  2.487E-01  2.000E+01  2.000E+04 -1.676E+00
   1   16    6     1     6    2.6348E+05 -2.9256E+04   2.9274E+05  0.000E+00  0.000E+00  0.000E+00  4.61422E+01  2.672E-01  2.000E+01  2.000E+04 -1.463E+00
   1   16    7     1     7    2.9274E+05 -2.9026E+04   3.2176E+05  0.000E+00  0.000E+00  0.000E+00  4.56814E+01  2.837E-01  2.000E+01  2.000E+04 -1.451E+00
   1   16    8     1     8    3.2176E+05 -2.9123E+04   3.5089E+05  0.000E+00  0.000E+00  0.000E+00  4.52199E+01  2.995E-01  2.000E+01  2.000E+04 -1.456E+00
   1   16    9     1     9    3.5089E+05 -2.9070E+04   3.7996E+05  0.000E+00  0.000E+00  0.000E+00  4.47580E+01  3.148E-01  2.000E+01  2.000E+04 -1.453E+00
   1   16   10     1    10    3.7996E+05 -2.8881E+04   4.0884E+05  0.000E+00  0.000E+00  0.000E+00  4.42954E+01  3.295E-01  2.000E+01  2.000E+04 -1.444E+00
   1   16   11     1    11    4.0884E+05 -2.9075E+04   4.3791E+05  0.000E+00  0.000E+00  0.000E+00  4.38325E+01  3.438E-01  2.000E+01  2.000E+04 -1.454E+00
   1   16   12     1    12    4.3791E+05 -3.3457E+04   4.7137E+05  0.000E+00  0.000E+00  0.000E+00  4.33702E+01  3.589E-01  2.000E+01  2.000E+04 -1.673E+00
   1   15   13     1    13    4.7137E+05 -3.2110E+04   5.0348E+05  0.000E+00  0.000E+00  0.000E+00  4.29083E+01  3.742E-01  2.000E+01  2.000E+04 -1.605E+00
   1   14   14     1    14    5.0348E+05 -3.2871E+04   5.3635E+05  0.000E+00  0.000E+00  0.000E+00  4.24458E+01  3.889E-01  2.000E+01  2.000E+04 -1.644E+00
   1   13   15     1    15    5.3635E+05 -3.5588E+04   5.7194E+05  0.000E+00  0.000E+00  0.000E+00  4.19837E+01  4.041E-01  2.000E+01  2.000E+04 -1.779E+00
   1   12   16     1    16    5.7194E+05 -4.2428E+04   6.1437E+05  0.000E+00  0.000E+00  0.000E+00  4.15232E+01  4.209E-01  2.000E+01  2.000E+04 -2.121E+00
   1   12   17     1    17    6.1437E+05 -3.2897E+04   6.4726E+05  0.000E+00  0.000E+00  0.000E+00  4.10618E+01  4.368E-01  2.000E+01  2.000E+04 -1.645E+00
   1   12   18     1    18    6.4726E+05 -3.1311E+04   6.7857E+05  0.000E+00  0.000E+00  0.000E+00  4.05977E+01  4.500E-01  2.000E+01  2.000E+04 -1.566E+00
   1   12   19     1    19    6.7857E+05 -3.5529E+04   7.1410E+05  0.000E+00  0.000E+00  0.000E+00  4.01339E+01  4.635E-01  2.000E+01  2.000E+04 -1.776E+00
   1   13   20     1    20    7.1410E+05 -2.5153E+04   7.3926E+05  0.000E+00  0.000E+00  0.000E+00  3.96687E+01  4.755E-01  2.000E+01  2.000E+04 -1.258E+00
   1   14   21     1    21    7.3926E+05 -1.7702E+04   7.5696E+05  0.000E+00  0.000E+00  0.000E+00  3.91997E+01  4.838E-01  2.000E+01  2.000E+04 -8.851E-01
   1   14   22     1    22    7.5696E+05 -1.2684E+03   7.5823E+05  0.000E+00  0.000E+00  0.000E+00  3.87261E+01  4.875E-01  2.000E+01  2.000E+04 -6.342E-02
   1    9   30     2     1    5.0000E+04 -2.6474E+04   7.6474E+04  0.000E+00  0.000E+00  0.000E+00  4.02584E+01  1.334E-01  2.000E+01  2.000E+04 -1.324E+00
   1    9   29     2     2    7.6474E+04 -2.8942E+04   1.0542E+05  0.000E+00  0.000E+00  0.000E+00  4.00409E+01  1.659E-01  2.000E+01  2.000E+04 -1.447E+00
   1    9   28     2     3    1.0542E+05 -3.3229E+04   1.3864E+05  0.000E+00  0.000E+00  0.000E+00  3.98229E+01  1.979E-01  2.000E+01  2.000E+04 -1.661E+00
   1    9   27     2     4    1.3864E+05 -4.7339E+04   1.8598E+05  0.000E+00  0.000E+00  0.000E+00  3.96098E+01  2.348E-01  2.000E+01  2.000E+04 -2.367E+00
   1   10   26     2     5    1.8598E+05 -3.3296E+04   2.1928E+05  0.000E+00  0.000E+00  0.000E+00  3.93933E+01  2.683E-01  2.000E+01  2.000E+04 -1.665E+00
   1   11   25     2     6    2.1928E+05 -2.4931E+04   2.4421E+05  0.000E+00  0.000E+00  0.000E+00  3.91658E+01  2.908E-01  2.000E+01  2.000E+04 -1.247E+00
   1   12   24     2     7    2.4421E+05 -1.8323E+04   2.6253E+05  0.000E+00  0.000E+00  0.000E+00  3.89318E+01  3.068E-01  2.000E+01  2.000E+04 -9.161E-01
   1   13   23     2     8    2.6253E+05 -1.2855E+04   2.7539E+05  0.000E+00  0.000E+00  0.000E+00  3.86930E+01  3.180E-01  2.000E+01  2.000E+04 -6.428E-01
   1   14   22     2     9    2.7539E+05 -6.7936E+03   2.8218E+05  0.000E+00  0.000E+00  0.000E+00  3.84499E+01  3.249E-01  2.000E+01  2.000E+04 -3.397E-01
   1   14   22     3     1    1.0404E+06 -1.4851E+04   1.0553E+06  0.000E+00  0.000E+00  0.000E+00  3.80470E+01  4.914E-01  2.000E+01  2.000E+04 -7.426E-01
   1   15   23     3     2    1.0553E+06 -2.2087E+04   1.0773E+06  0.000E+00  0.000E+00  0.000E+00  3.71633E+01  4.966E-01  2.000E+01  2.000E+04 -1.104E+00
   1   15   24     3     3    1.0773E+06 -1.8838E+04   1.0962E+06  0.000E+00  0.000E+00  0.000E+00  3.62801E+01  5.023E-01  2.000E+01  2.000E+04 -9.419E-01
   1   15   25     3     4    1.0962E+06 -1.8730E+04   1.1149E+06  0.000E+00  0.000E+00  0.000E+00  3.53964E+01  5.075E-01  2.000E+01  2.000E+04 -9.365E-01
   1   15   26     3     5    1.1149E+06 -2.1654E+04   1.1366E+06  0.000E+00  0.000E+00  0.000E+00  3.45131E+01  5.131E-01  2.000E+01  2.000E+04 -1.083E+00
   1   16   27     3     6    1.1366E+06 -2.8653E+04   1.1652E+06  0.000E+00  0.000E+00  0.000E+00  3.36310E+01  5.199E-01  2.000E+01  2.000E+04 -1.433E+00
   1   17   28     3     7    1.1652E+06 -3.5730E+04   1.2010E+06  0.000E+00  0.000E+00  0.000E+00  3.27508E+01  5.286E-01  2.000E+01  2.000E+04 -1.787E+00
   1   18   29     3     8    1.2010E+06 -4.6783E+04   1.2477E+06  0.000E+00  0.000E+00  0.000E+00  3.18729E+01  5.396E-01  2.000E+01  2.000E+04 -2.339E+00
   1   18   30     3     9    1.2477E+06 -4.3402E+04   1.2911E+06  0.000E+00  0.000E+00  0.000E+00  3.09958E+01  5.514E-01  2.000E+01  2.000E+04 -2.170E+00



1
              HEAD IN LAYER   1 AT END OF TIME STEP   1 IN STRESS PERIOD    9
  ---------------------------------------------------------------------------

          1      2      3      4      5      6      7      8      9     10
         11     12     13     14     15     16     17     18     19     20
         21     22     23     24     25     26     27     28     29     30
 .........................................................................
   1  ****** ****** ****** ****** ****** ****** ****** ****** ****** ******
      ****** ****** ****** ****** ****** ****** ****** ****** ****** ******
      ****** ****** ****** ****** ****** ****** ****** ****** ****** ******
   2  ****** ****** ****** ****** ****** ****** ****** ****** ****** ******
      ****** ****** ****** ****** ****** ****** ****** ****** ****** ******
      ****** ****** ****** ****** ****** ****** ****** ****** ****** ******
   3  ****** ****** ****** ****** ****** ****** ****** ****** ****** ******
      ****** ****** ****** ****** ****** ****** ****** ****** ****** ******
      ****** ****** ****** ****** ****** ****** ****** ****** ****** ******
   4  ****** ****** ****** ****** ****** ****** ****** ****** ****** ******
      ****** ****** ****** ****** ****** ****** ****** ****** ****** ******
      ****** ****** ****** ****** ****** ****** ****** ****** ****** ******
   5  ****** ****** ****** ****** ****** ****** ****** ****** ****** ******
      ****** ****** ****** ****** ****** ****** ****** ****** ****** ******
      ****** ****** ****** ****** ****** ****** ****** ****** ****** ******
   6  ****** ****** ****** ****** ****** ****** ****** ****** ****** ******
      ****** ****** ****** ****** ****** ****** ****** ****** ****** ******
      ****** ****** ****** ****** ****** ****** ****** ****** ****** ******
   7  ****** ****** ****** ****** ****** ****** ****** ****** ****** ******
      ****** ****** ****** ****** ****** ****** ****** ****** ****** ******
      ****** ****** ****** ****** ****** ****** ****** ****** ****** ******
   8  ****** ****** ****** ****** ****** ****** ****** ****** ****** ******
      ****** ****** ****** ****** ****** ****** ****** ****** ****** ******
      ****** ****** ****** ****** ****** ****** ****** ****** ****** ******
   9  ****** ****** ****** ****** ****** ****** ****** ****** ****** ******
      ****** ****** ****** ****** ****** ****** ****** ****** ****** ******
      ****** ****** ****** ****** ****** ****** ****** ****** ****** ******
  10  ****** ****** ****** ****** ****** ****** ****** ****** ****** ******
      ****** ****** ****** ****** ****** ****** ****** ****** ****** ******
      ****** ****** ****** ****** ****** ****** ****** ****** ****** ******
  11  ****** ****** ****** ****** ****** ****** ****** ****** ****** ******
      ****** ****** ****** ****** ****** ****** ****** ****** ****** ******
      ****** ****** ****** ****** ****** ****** ****** ****** ****** ******
  12  ****** ****** ****** ****** ****** ****** ****** ****** ****** ******
      ****** ****** ****** ****** ****** ****** ****** ****** ****** ******
      ****** ****** ****** ****** ****** ****** ****** ****** ****** ******
  13  ****** ****** ****** ****** ****** ****** ****** ****** ****** ******
      ****** ****** ****** ****** ****** ****** ****** ****** ****** ******
      ****** ****** ****** ****** ****** ****** ****** ****** ****** ******
  14  ****** ****** ****** ****** ****** ****** ****** ****** ****** ******
      ****** ****** ****** ****** ****** ****** ****** ****** ****** ******
      ****** ****** ****** ****** ****** ****** ****** ****** ****** ******
  15  ****** ****** ****** ****** ****** ****** ****** ****** ****** ******
      ****** ****** ****** ****** ****** ****** ****** ****** ****** ******
      ****** ****** ****** ****** ****** ****** ****** ****** ****** ******
  16  ****** ****** ****** ****** ****** ****** ****** ****** ****** ******
      ****** ****** ****** ****** ****** ****** ****** ****** ****** ******
      ****** ****** ****** ****** ****** ****** ****** ****** ****** ******
  17  ****** ****** ****** ****** ****** ****** ****** ****** ****** ******
      ****** ****** ****** ****** ****** ****** ****** ****** ****** ******
      ****** ****** ****** ****** ****** ****** ****** ****** ****** ******
  18  ****** ****** ****** ****** ****** ****** ****** ****** ****** ******
      ****** ****** ****** ****** ****** ****** ****** ****** ****** ******
      ****** ****** ****** ****** ****** ****** ****** ****** ****** ******
  19  ****** ****** ****** ****** ****** ****** ****** ****** ****** ******
      ****** ****** ****** ****** ****** ****** ****** ****** ****** ******
      ****** ****** ****** ****** ****** ****** ****** ****** ****** ******
  20  ****** ****** ****** ****** ****** ****** ****** ****** ****** ******
      ****** ****** ****** ****** ****** ****** ****** ****** ****** ******
      ****** ****** ****** ****** ****** ****** ****** ****** ****** ******
  21  ****** ****** ****** ****** ****** ****** ****** ****** ****** ******
      ****** ****** ****** ****** ****** ****** ****** ****** ****** ******
      ****** ****** ****** ****** ****** ****** ****** ****** ****** ******
  22  ****** ****** ****** ****** ****** ****** ****** ****** ****** ******
      ****** ****** ****** ****** ****** ****** ****** ****** ****** ******
      ****** ****** ****** ****** ****** ****** ****** ****** ****** ******
  23  ****** ****** ****** ****** ****** ****** ****** ****** ****** ******
      ****** ****** ****** ****** ****** ****** ****** ****** ****** ******
      ****** ****** ****** ****** ****** ****** ****** ****** ****** ******
  24  ****** ****** ****** ****** ****** ****** ****** ****** ****** ******
      ****** ****** ****** ****** ****** ****** ****** ****** ****** ******
      ****** ****** ****** ****** ****** ****** ****** ****** ****** ******
  25  ****** ****** ****** ****** ****** ****** ****** ****** ****** ******
      ****** ****** ****** ****** ****** ****** ****** ****** ****** ******
      ****** ****** ****** ****** ****** ****** ****** ****** ****** ******

 HEAD WILL BE SAVED ON UNIT   51 AT END OF TIME STEP    1, STRESS PERIOD    9
1
  VOLUMETRIC BUDGET FOR ENTIRE MODEL AT END OF TIME STEP    1, STRESS PERIOD   9
  ------------------------------------------------------------------------------

     CUMULATIVE VOLUMES      L**3       RATES FOR THIS TIME STEP      L**3/T
     ------------------                 ------------------------

           IN:                                      IN:
           ---                                      ---
             STORAGE =    20847813.6989               STORAGE =        1583.3686
       CONSTANT HEAD =   987065786.3685         CONSTANT HEAD =     1205992.4771
               WELLS =           0.0000                 WELLS =           0.0000
            RECHARGE =    18878400.0000              RECHARGE =       13800.0000
      STREAM LEAKAGE =           0.0000        STREAM LEAKAGE =           0.0000

            TOTAL IN =  1026792000.0674              TOTAL IN =     1221375.8457

          OUT:                                     OUT:
          ----                                     ----
             STORAGE =      743081.8715               STORAGE =         237.1620
       CONSTANT HEAD =           0.0000         CONSTANT HEAD =           0.0000
               WELLS =    65704100.5301                 WELLS =       80000.0000
            RECHARGE =           0.0000              RECHARGE =           0.0000
      STREAM LEAKAGE =   960344829.8874        STREAM LEAKAGE =     1141138.7019

           TOTAL OUT =  1026792012.2889             TOTAL OUT =     1221375.8639

            IN - OUT =         -12.2216              IN - OUT =      -1.8223E-02

 PERCENT DISCREPANCY =          -0.00     PERCENT DISCREPANCY =          -0.00






         TIME SUMMARY AT END OF TIME STEP    1 IN STRESS PERIOD    9
                    SECONDS     MINUTES      HOURS       DAYS        YEARS
                    -----------------------------------------------------------
   TIME STEP LENGTH 7.94880E+06 1.32480E+05  2208.0      92.000     0.25188    
 STRESS PERIOD TIME 7.94880E+06 1.32480E+05  2208.0      92.000     0.25188    
         TOTAL TIME 7.10208E+07 1.18368E+06  19728.      822.00      2.2505    
1
1
                            STRESS PERIOD NO.   10, LENGTH =   91.00000    
                            -----------------------------------------------

                              NUMBER OF TIME STEPS =     1

                               MULTIPLIER FOR DELT =     1.500

                            INITIAL TIME STEP SIZE =   91.00000    

 WELL NO.  LAYER   ROW   COL   STRESS RATE         
 --------------------------------------------------
      1      1     23     18     -0.5000E+05
      2      1     18     17       0.000    
      3      1     23     16     -0.3000E+05

      3 WELLS

                 RECHARGE =  2.000000E-03

 REUSING STREAM SEGMENT DATA FROM LAST STRESS PERIOD
 
 SOLVING FOR HEAD 


     6 CALLS TO PCG ROUTINE FOR TIME STEP   1 IN STRESS PERIOD   10
    23 TOTAL ITERATIONS

 OUTPUT CONTROL FOR STRESS PERIOD   10   TIME STEP    1
    SAVE BUDGET
    SAVE HEAD FOR ALL LAYERS
    PRINT HEAD FOR ALL LAYERS
 UBDSV2 SAVING "STREAMFLOW OUT  " ON UNIT  50 AT TIME STEP  1, STRESS PERIOD  10



 STREAM LISTING     PERIOD     10   STEP        1

 LAYER ROW COL. STREAM  RCH.  FLOW INTO     FLOW TO   FLOW OUT OF   OVRLND.     DIRECT     STREAM       STREAM     STREAM     STREAM   STREAMBED  STREAMBED
                SEG.NO.  NO.  STRM. RCH.    AQUIFER    STRM. RCH.    RUNOFF     PRECIP       ET          HEAD       DEPTH      WIDTH   CONDCTNC.   GRADIENT

   1   13    1     1     1    1.0000E+05 -2.8332E+04   1.2833E+05  0.000E+00  0.000E+00  0.000E+00  4.84180E+01  1.566E-01  2.000E+01  2.000E+04 -1.417E+00
   1   13    2     1     2    1.2833E+05 -3.8176E+04   1.6651E+05  0.000E+00  0.000E+00  0.000E+00  4.79667E+01  1.826E-01  2.000E+01  2.000E+04 -1.909E+00
   1   14    3     1     3    1.6651E+05 -3.3619E+04   2.0013E+05  0.000E+00  0.000E+00  0.000E+00  4.75149E+01  2.081E-01  2.000E+01  2.000E+04 -1.681E+00
   1   15    4     1     4    2.0013E+05 -3.2802E+04   2.3293E+05  0.000E+00  0.000E+00  0.000E+00  4.70595E+01  2.299E-01  2.000E+01  2.000E+04 -1.640E+00
   1   16    5     1     5    2.3293E+05 -3.4203E+04   2.6713E+05  0.000E+00  0.000E+00  0.000E+00  4.66030E+01  2.507E-01  2.000E+01  2.000E+04 -1.710E+00
   1   16    6     1     6    2.6713E+05 -2.9857E+04   2.9699E+05  0.000E+00  0.000E+00  0.000E+00  4.61445E+01  2.695E-01  2.000E+01  2.000E+04 -1.493E+00
   1   16    7     1     7    2.9699E+05 -2.9635E+04   3.2662E+05  0.000E+00  0.000E+00  0.000E+00  4.56839E+01  2.862E-01  2.000E+01  2.000E+04 -1.482E+00
   1   16    8     1     8    3.2662E+05 -2.9758E+04   3.5638E+05  0.000E+00  0.000E+00  0.000E+00  4.52227E+01  3.022E-01  2.000E+01  2.000E+04 -1.488E+00
   1   16    9     1     9    3.5638E+05 -2.9748E+04   3.8613E+05  0.000E+00  0.000E+00  0.000E+00  4.47610E+01  3.178E-01  2.000E+01  2.000E+04 -1.487E+00
   1   16   10     1    10    3.8613E+05 -2.9640E+04   4.1577E+05  0.000E+00  0.000E+00  0.000E+00  4.42987E+01  3.328E-01  2.000E+01  2.000E+04 -1.482E+00
   1   16   11     1    11    4.1577E+05 -3.0025E+04   4.4579E+05  0.000E+00  0.000E+00  0.000E+00  4.38361E+01  3.474E-01  2.000E+01  2.000E+04 -1.501E+00
   1   16   12     1    12    4.4579E+05 -3.5052E+04   4.8084E+05  0.000E+00  0.000E+00  0.000E+00  4.33743E+01  3.630E-01  2.000E+01  2.000E+04 -1.753E+00
   1   15   13     1    13    4.8084E+05 -3.4041E+04   5.1488E+05  0.000E+00  0.000E+00  0.000E+00  4.29130E+01  3.790E-01  2.000E+01  2.000E+04 -1.702E+00
   1   14   14     1    14    5.1488E+05 -3.4868E+04   5.4975E+05  0.000E+00  0.000E+00  0.000E+00  4.24513E+01  3.945E-01  2.000E+01  2.000E+04 -1.743E+00
   1   13   15     1    15    5.4975E+05 -3.7356E+04   5.8711E+05  0.000E+00  0.000E+00  0.000E+00  4.19899E+01  4.103E-01  2.000E+01  2.000E+04 -1.868E+00
   1   12   16     1    16    5.8711E+05 -4.3719E+04   6.3083E+05  0.000E+00  0.000E+00  0.000E+00  4.15299E+01  4.276E-01  2.000E+01  2.000E+04 -2.186E+00
   1   12   17     1    17    6.3083E+05 -3.4103E+04   6.6493E+05  0.000E+00  0.000E+00  0.000E+00  4.10688E+01  4.438E-01  2.000E+01  2.000E+04 -1.705E+00
   1   12   18     1    18    6.6493E+05 -3.2468E+04   6.9740E+05  0.000E+00  0.000E+00  0.000E+00  4.06051E+01  4.574E-01  2.000E+01  2.000E+04 -1.623E+00
   1   12   19     1    19    6.9740E+05 -3.6644E+04   7.3404E+05  0.000E+00  0.000E+00  0.000E+00  4.01416E+01  4.712E-01  2.000E+01  2.000E+04 -1.832E+00
   1   13   20     1    20    7.3404E+05 -2.6589E+04   7.6063E+05  0.000E+00  0.000E+00  0.000E+00  3.96767E+01  4.835E-01  2.000E+01  2.000E+04 -1.329E+00
   1   14   21     1    21    7.6063E+05 -1.9187E+04   7.7982E+05  0.000E+00  0.000E+00  0.000E+00  3.92083E+01  4.924E-01  2.000E+01  2.000E+04 -9.594E-01
   1   14   22     1    22    7.7982E+05 -1.6496E+03   7.8147E+05  0.000E+00  0.000E+00  0.000E+00  3.87350E+01  4.964E-01  2.000E+01  2.000E+04 -8.248E-02
   1    9   30     2     1    5.0000E+04 -2.6926E+04   7.6926E+04  0.000E+00  0.000E+00  0.000E+00  4.02587E+01  1.337E-01  2.000E+01  2.000E+04 -1.346E+00
   1    9   29     2     2    7.6926E+04 -2.9394E+04   1.0632E+05  0.000E+00  0.000E+00  0.000E+00  4.00416E+01  1.666E-01  2.000E+01  2.000E+04 -1.470E+00
   1    9   28     2     3    1.0632E+05 -3.3698E+04   1.4002E+05  0.000E+00  0.000E+00  0.000E+00  3.98240E+01  1.990E-01  2.000E+01  2.000E+04 -1.685E+00
   1    9   27     2     4    1.4002E+05 -4.7916E+04   1.8793E+05  0.000E+00  0.000E+00  0.000E+00  3.96113E+01  2.363E-01  2.000E+01  2.000E+04 -2.396E+00
   1   10   26     2     5    1.8793E+05 -3.3904E+04   2.2184E+05  0.000E+00  0.000E+00  0.000E+00  3.93951E+01  2.701E-01  2.000E+01  2.000E+04 -1.695E+00
   1   11   25     2     6    2.2184E+05 -2.5531E+04   2.4737E+05  0.000E+00  0.000E+00  0.000E+00  3.91679E+01  2.929E-01  2.000E+01  2.000E+04 -1.277E+00
   1   12   24     2     7    2.4737E+05 -1.8890E+04   2.6626E+05  0.000E+00  0.000E+00  0.000E+00  3.89343E+01  3.093E-01  2.000E+01  2.000E+04 -9.445E-01
   1   13   23     2     8    2.6626E+05 -1.3392E+04   2.7965E+05  0.000E+00  0.000E+00  0.000E+00  3.86958E+01  3.208E-01  2.000E+01  2.000E+04 -6.696E-01
   1   14   22     2     9    2.7965E+05 -7.2889E+03   2.8694E+05  0.000E+00  0.000E+00  0.000E+00  3.84530E+01  3.280E-01  2.000E+01  2.000E+04 -3.644E-01
   1   14   22     3     1    1.0684E+06 -1.5252E+04   1.0837E+06  0.000E+00  0.000E+00  0.000E+00  3.80549E+01  4.993E-01  2.000E+01  2.000E+04 -7.626E-01
   1   15   23     3     2    1.0837E+06 -2.3168E+04   1.1068E+06  0.000E+00  0.000E+00  0.000E+00  3.71713E+01  5.047E-01  2.000E+01  2.000E+04 -1.158E+00
   1   15   24     3     3    1.1068E+06 -1.9516E+04   1.1263E+06  0.000E+00  0.000E+00  0.000E+00  3.62883E+01  5.105E-01  2.000E+01  2.000E+04 -9.758E-01
   1   15   25     3     4    1.1263E+06 -1.9282E+04   1.1456E+06  0.000E+00  0.000E+00  0.000E+00  3.54047E+01  5.159E-01  2.000E+01  2.000E+04 -9.641E-01
   1   15   26     3     5    1.1456E+06 -2.2202E+04   1.1678E+06  0.000E+00  0.000E+00  0.000E+00  3.45215E+01  5.215E-01  2.000E+01  2.000E+04 -1.110E+00
   1   16   27     3     6    1.1678E+06 -2.9328E+04   1.1972E+06  0.000E+00  0.000E+00  0.000E+00  3.36395E+01  5.284E-01  2.000E+01  2.000E+04 -1.466E+00
   1   17   28     3     7    1.1972E+06 -3.6400E+04   1.2336E+06  0.000E+00  0.000E+00  0.000E+00  3.27594E+01  5.372E-01  2.000E+01  2.000E+04 -1.820E+00
   1   18   29     3     8    1.2336E+06 -4.7395E+04   1.2810E+06  0.000E+00  0.000E+00  0.000E+00  3.18816E+01  5.482E-01  2.000E+01  2.000E+04 -2.370E+00
   1   18   30     3     9    1.2810E+06 -4.3886E+04   1.3248E+06  0.000E+00  0.000E+00  0.000E+00  3.10045E+01  5.601E-01  2.000E+01  2.000E+04 -2.194E+00



1
              HEAD IN LAYER   1 AT END OF TIME STEP   1 IN STRESS PERIOD   10
  ---------------------------------------------------------------------------

          1      2      3      4      5      6      7      8      9     10
         11     12     13     14     15     16     17     18     19     20
         21     22     23     24     25     26     27     28     29     30
 .........................................................................
   1  ****** ****** ****** ****** ****** ****** ****** ****** ****** ******
      ****** ****** ****** ****** ****** ****** ****** ****** ****** ******
      ****** ****** ****** ****** ****** ****** ****** ****** ****** ******
   2  ****** ****** ****** ****** ****** ****** ****** ****** ****** ******
      ****** ****** ****** ****** ****** ****** ****** ****** ****** ******
      ****** ****** ****** ****** ****** ****** ****** ****** ****** ******
   3  ****** ****** ****** ****** ****** ****** ****** ****** ****** ******
      ****** ****** ****** ****** ****** ****** ****** ****** ****** ******
      ****** ****** ****** ****** ****** ****** ****** ****** ****** ******
   4  ****** ****** ****** ****** ****** ****** ****** ****** ****** ******
      ****** ****** ****** ****** ****** ****** ****** ****** ****** ******
      ****** ****** ****** ****** ****** ****** ****** ****** ****** ******
   5  ****** ****** ****** ****** ****** ****** ****** ****** ****** ******
      ****** ****** ****** ****** ****** ****** ****** ****** ****** ******
      ****** ****** ****** ****** ****** ****** ****** ****** ****** ******
   6  ****** ****** ****** ****** ****** ****** ****** ****** ****** ******
      ****** ****** ****** ****** ****** ****** ****** ****** ****** ******
      ****** ****** ****** ****** ****** ****** ****** ****** ****** ******
   7  ****** ****** ****** ****** ****** ****** ****** ****** ****** ******
      ****** ****** ****** ****** ****** ****** ****** ****** ****** ******
      ****** ****** ****** ****** ****** ****** ****** ****** ****** ******
   8  ****** ****** ****** ****** ****** ****** ****** ****** ****** ******
      ****** ****** ****** ****** ****** ****** ****** ****** ****** ******
      ****** ****** ****** ****** ****** ****** ****** ****** ****** ******
   9  ****** ****** ****** ****** ****** ****** ****** ****** ****** ******
      ****** ****** ****** ****** ****** ****** ****** ****** ****** ******
      ****** ****** ****** ****** ****** ****** ****** ****** ****** ******
  10  ****** ****** ****** ****** ****** ****** ****** ****** ****** ******
      ****** ****** ****** ****** ****** ****** ****** ****** ****** ******
      ****** ****** ****** ****** ****** ****** ****** ****** ****** ******
  11  ****** ****** ****** ****** ****** ****** ****** ****** ****** ******
      ****** ****** ****** ****** ****** ****** ****** ****** ****** ******
      ****** ****** ****** ****** ****** ****** ****** ****** ****** ******
  12  ****** ****** ****** ****** ****** ****** ****** ****** ****** ******
      ****** ****** ****** ****** ****** ****** ****** ****** ****** ******
      ****** ****** ****** ****** ****** ****** ****** ****** ****** ******
  13  ****** ****** ****** ****** ****** ****** ****** ****** ****** ******
      ****** ****** ****** ****** ****** ****** ****** ****** ****** ******
      ****** ****** ****** ****** ****** ****** ****** ****** ****** ******
  14  ****** ****** ****** ****** ****** ****** ****** ****** ****** ******
      ****** ****** ****** ****** ****** ****** ****** ****** ****** ******
      ****** ****** ****** ****** ****** ****** ****** ****** ****** ******
  15  ****** ****** ****** ****** ****** ****** ****** ****** ****** ******
      ****** ****** ****** ****** ****** ****** ****** ****** ****** ******
      ****** ****** ****** ****** ****** ****** ****** ****** ****** ******
  16  ****** ****** ****** ****** ****** ****** ****** ****** ****** ******
      ****** ****** ****** ****** ****** ****** ****** ****** ****** ******
      ****** ****** ****** ****** ****** ****** ****** ****** ****** ******
  17  ****** ****** ****** ****** ****** ****** ****** ****** ****** ******
      ****** ****** ****** ****** ****** ****** ****** ****** ****** ******
      ****** ****** ****** ****** ****** ****** ****** ****** ****** ******
  18  ****** ****** ****** ****** ****** ****** ****** ****** ****** ******
      ****** ****** ****** ****** ****** ****** ****** ****** ****** ******
      ****** ****** ****** ****** ****** ****** ****** ****** ****** ******
  19  ****** ****** ****** ****** ****** ****** ****** ****** ****** ******
      ****** ****** ****** ****** ****** ****** ****** ****** ****** ******
      ****** ****** ****** ****** ****** ****** ****** ****** ****** ******
  20  ****** ****** ****** ****** ****** ****** ****** ****** ****** ******
      ****** ****** ****** ****** ****** ****** ****** ****** ****** ******
      ****** ****** ****** ****** ****** ****** ****** ****** ****** ******
  21  ****** ****** ****** ****** ****** ****** ****** ****** ****** ******
      ****** ****** ****** ****** ****** ****** ****** ****** ****** ******
      ****** ****** ****** ****** ****** ****** ****** ****** ****** ******
  22  ****** ****** ****** ****** ****** ****** ****** ****** ****** ******
      ****** ****** ****** ****** ****** ****** ****** ****** ****** ******
      ****** ****** ****** ****** ****** ****** ****** ****** ****** ******
  23  ****** ****** ****** ****** ****** ****** ****** ****** ****** ******
      ****** ****** ****** ****** ****** ****** ****** ****** ****** ******
      ****** ****** ****** ****** ****** ****** ****** ****** ****** ******
  24  ****** ****** ****** ****** ****** ****** ****** ****** ****** ******
      ****** ****** ****** ****** ****** ****** ****** ****** ****** ******
      ****** ****** ****** ****** ****** ****** ****** ****** ****** ******
  25  ****** ****** ****** ****** ****** ****** ****** ****** ****** ******
      ****** ****** ****** ****** ****** ****** ****** ****** ****** ******
      ****** ****** ****** ****** ****** ****** ****** ****** ****** ******

 HEAD WILL BE SAVED ON UNIT   51 AT END OF TIME STEP    1, STRESS PERIOD   10
1
  VOLUMETRIC BUDGET FOR ENTIRE MODEL AT END OF TIME STEP    1, STRESS PERIOD  10
  ------------------------------------------------------------------------------

     CUMULATIVE VOLUMES      L**3       RATES FOR THIS TIME STEP      L**3/T
     ------------------                 ------------------------

           IN:                                      IN:
           ---                                      ---
             STORAGE =    20866129.6522               STORAGE =         201.2742
       CONSTANT HEAD =  1096479259.2192         CONSTANT HEAD =     1202345.8555
               WELLS =           0.0000                 WELLS =           0.0000
            RECHARGE =    23901600.0000              RECHARGE =       55200.0000
      STREAM LEAKAGE =           0.0000        STREAM LEAKAGE =           0.0000

            TOTAL IN =  1141246988.8715              TOTAL IN =     1257747.1297

          OUT:                                     OUT:
          ----                                     ----
             STORAGE =     1007799.5927               STORAGE =        2908.9859
       CONSTANT HEAD =           0.0000         CONSTANT HEAD =           0.0000
               WELLS =    72984100.5301                 WELLS =       80000.0000
            RECHARGE =           0.0000              RECHARGE =           0.0000
      STREAM LEAKAGE =  1067255097.6979        STREAM LEAKAGE =     1174838.1078

           TOTAL OUT =  1141246997.8207             TOTAL OUT =     1257747.0938

            IN - OUT =          -8.9492              IN - OUT =       3.5960E-02

 PERCENT DISCREPANCY =          -0.00     PERCENT DISCREPANCY =           0.00






         TIME SUMMARY AT END OF TIME STEP    1 IN STRESS PERIOD   10
                    SECONDS     MINUTES      HOURS       DAYS        YEARS
                    -----------------------------------------------------------
   TIME STEP LENGTH 7.86240E+06 1.31040E+05  2184.0      91.000     0.24914    
 STRESS PERIOD TIME 7.86240E+06 1.31040E+05  2184.0      91.000     0.24914    
         TOTAL TIME 7.88832E+07 1.31472E+06  21912.      913.00      2.4997    
1
1
                            STRESS PERIOD NO.   11, LENGTH =   91.00000    
                            -----------------------------------------------

                              NUMBER OF TIME STEPS =     1

                               MULTIPLIER FOR DELT =     1.500

                            INITIAL TIME STEP SIZE =   91.00000    

 WELL NO.  LAYER   ROW   COL   STRESS RATE         
 --------------------------------------------------
      1      1     23     18     -0.5000E+05
      2      1     18     17     -0.2969E+05

      2 WELLS

                 RECHARGE =   0.00000    

 REUSING STREAM SEGMENT DATA FROM LAST STRESS PERIOD
 
 SOLVING FOR HEAD 


     6 CALLS TO PCG ROUTINE FOR TIME STEP   1 IN STRESS PERIOD   11
    23 TOTAL ITERATIONS

 OUTPUT CONTROL FOR STRESS PERIOD   11   TIME STEP    1
    SAVE BUDGET
    SAVE HEAD FOR ALL LAYERS
    PRINT HEAD FOR ALL LAYERS
 UBDSV2 SAVING "STREAMFLOW OUT  " ON UNIT  50 AT TIME STEP  1, STRESS PERIOD  11



 STREAM LISTING     PERIOD     11   STEP        1

 LAYER ROW COL. STREAM  RCH.  FLOW INTO     FLOW TO   FLOW OUT OF   OVRLND.     DIRECT     STREAM       STREAM     STREAM     STREAM   STREAMBED  STREAMBED
                SEG.NO.  NO.  STRM. RCH.    AQUIFER    STRM. RCH.    RUNOFF     PRECIP       ET          HEAD       DEPTH      WIDTH   CONDCTNC.   GRADIENT

   1   13    1     1     1    1.0000E+05 -2.7478E+04   1.2748E+05  0.000E+00  0.000E+00  0.000E+00  4.84176E+01  1.563E-01  2.000E+01  2.000E+04 -1.374E+00
   1   13    2     1     2    1.2748E+05 -3.7156E+04   1.6463E+05  0.000E+00  0.000E+00  0.000E+00  4.79657E+01  1.816E-01  2.000E+01  2.000E+04 -1.858E+00
   1   14    3     1     3    1.6463E+05 -3.2616E+04   1.9725E+05  0.000E+00  0.000E+00  0.000E+00  4.75133E+01  2.065E-01  2.000E+01  2.000E+04 -1.631E+00
   1   15    4     1     4    1.9725E+05 -3.1834E+04   2.2908E+05  0.000E+00  0.000E+00  0.000E+00  4.70573E+01  2.278E-01  2.000E+01  2.000E+04 -1.592E+00
   1   16    5     1     5    2.2908E+05 -3.3323E+04   2.6241E+05  0.000E+00  0.000E+00  0.000E+00  4.66004E+01  2.481E-01  2.000E+01  2.000E+04 -1.666E+00
   1   16    6     1     6    2.6241E+05 -2.9083E+04   2.9149E+05  0.000E+00  0.000E+00  0.000E+00  4.61415E+01  2.665E-01  2.000E+01  2.000E+04 -1.454E+00
   1   16    7     1     7    2.9149E+05 -2.8855E+04   3.2035E+05  0.000E+00  0.000E+00  0.000E+00  4.56807E+01  2.829E-01  2.000E+01  2.000E+04 -1.443E+00
   1   16    8     1     8    3.2035E+05 -2.8952E+04   3.4930E+05  0.000E+00  0.000E+00  0.000E+00  4.52191E+01  2.987E-01  2.000E+01  2.000E+04 -1.448E+00
   1   16    9     1     9    3.4930E+05 -2.8900E+04   3.7820E+05  0.000E+00  0.000E+00  0.000E+00  4.47571E+01  3.139E-01  2.000E+01  2.000E+04 -1.445E+00
   1   16   10     1    10    3.7820E+05 -2.8713E+04   4.0691E+05  0.000E+00  0.000E+00  0.000E+00  4.42945E+01  3.286E-01  2.000E+01  2.000E+04 -1.436E+00
   1   16   11     1    11    4.0691E+05 -2.8908E+04   4.3582E+05  0.000E+00  0.000E+00  0.000E+00  4.38315E+01  3.429E-01  2.000E+01  2.000E+04 -1.445E+00
   1   16   12     1    12    4.3582E+05 -3.3269E+04   4.6909E+05  0.000E+00  0.000E+00  0.000E+00  4.33692E+01  3.578E-01  2.000E+01  2.000E+04 -1.663E+00
   1   15   13     1    13    4.6909E+05 -3.1904E+04   5.0099E+05  0.000E+00  0.000E+00  0.000E+00  4.29072E+01  3.731E-01  2.000E+01  2.000E+04 -1.595E+00
   1   14   14     1    14    5.0099E+05 -3.2658E+04   5.3365E+05  0.000E+00  0.000E+00  0.000E+00  4.24446E+01  3.878E-01  2.000E+01  2.000E+04 -1.633E+00
   1   13   15     1    15    5.3365E+05 -3.5373E+04   5.6902E+05  0.000E+00  0.000E+00  0.000E+00  4.19824E+01  4.029E-01  2.000E+01  2.000E+04 -1.769E+00
   1   12   16     1    16    5.6902E+05 -4.2216E+04   6.1124E+05  0.000E+00  0.000E+00  0.000E+00  4.15219E+01  4.197E-01  2.000E+01  2.000E+04 -2.111E+00
   1   12   17     1    17    6.1124E+05 -3.2727E+04   6.4396E+05  0.000E+00  0.000E+00  0.000E+00  4.10604E+01  4.354E-01  2.000E+01  2.000E+04 -1.636E+00
   1   12   18     1    18    6.4396E+05 -3.1147E+04   6.7511E+05  0.000E+00  0.000E+00  0.000E+00  4.05963E+01  4.486E-01  2.000E+01  2.000E+04 -1.557E+00
   1   12   19     1    19    6.7511E+05 -3.5348E+04   7.1046E+05  0.000E+00  0.000E+00  0.000E+00  4.01325E+01  4.620E-01  2.000E+01  2.000E+04 -1.767E+00
   1   13   20     1    20    7.1046E+05 -2.4987E+04   7.3545E+05  0.000E+00  0.000E+00  0.000E+00  3.96672E+01  4.740E-01  2.000E+01  2.000E+04 -1.249E+00
   1   14   21     1    21    7.3545E+05 -1.7563E+04   7.5301E+05  0.000E+00  0.000E+00  0.000E+00  3.91982E+01  4.823E-01  2.000E+01  2.000E+04 -8.781E-01
   1   14   22     1    22    7.5301E+05 -1.2168E+03   7.5423E+05  0.000E+00  0.000E+00  0.000E+00  3.87246E+01  4.860E-01  2.000E+01  2.000E+04 -6.084E-02
   1    9   30     2     1    5.0000E+04 -2.6334E+04   7.6334E+04  0.000E+00  0.000E+00  0.000E+00  4.02583E+01  1.333E-01  2.000E+01  2.000E+04 -1.317E+00
   1    9   29     2     2    7.6334E+04 -2.8802E+04   1.0514E+05  0.000E+00  0.000E+00  0.000E+00  4.00407E+01  1.657E-01  2.000E+01  2.000E+04 -1.440E+00
   1    9   28     2     3    1.0514E+05 -3.3084E+04   1.3822E+05  0.000E+00  0.000E+00  0.000E+00  3.98226E+01  1.976E-01  2.000E+01  2.000E+04 -1.654E+00
   1    9   27     2     4    1.3822E+05 -4.7164E+04   1.8538E+05  0.000E+00  0.000E+00  0.000E+00  3.96094E+01  2.344E-01  2.000E+01  2.000E+04 -2.358E+00
   1   10   26     2     5    1.8538E+05 -3.3114E+04   2.1850E+05  0.000E+00  0.000E+00  0.000E+00  3.93927E+01  2.677E-01  2.000E+01  2.000E+04 -1.656E+00
   1   11   25     2     6    2.1850E+05 -2.4756E+04   2.4325E+05  0.000E+00  0.000E+00  0.000E+00  3.91651E+01  2.901E-01  2.000E+01  2.000E+04 -1.238E+00
   1   12   24     2     7    2.4325E+05 -1.8166E+04   2.6142E+05  0.000E+00  0.000E+00  0.000E+00  3.89310E+01  3.060E-01  2.000E+01  2.000E+04 -9.083E-01
   1   13   23     2     8    2.6142E+05 -1.2729E+04   2.7415E+05  0.000E+00  0.000E+00  0.000E+00  3.86921E+01  3.171E-01  2.000E+01  2.000E+04 -6.365E-01
   1   14   22     2     9    2.7415E+05 -6.7291E+03   2.8088E+05  0.000E+00  0.000E+00  0.000E+00  3.84490E+01  3.240E-01  2.000E+01  2.000E+04 -3.365E-01
   1   14   22     3     1    1.0351E+06 -1.4799E+04   1.0499E+06  0.000E+00  0.000E+00  0.000E+00  3.80455E+01  4.899E-01  2.000E+01  2.000E+04 -7.400E-01
   1   15   23     3     2    1.0499E+06 -2.1954E+04   1.0719E+06  0.000E+00  0.000E+00  0.000E+00  3.71618E+01  4.951E-01  2.000E+01  2.000E+04 -1.098E+00
   1   15   24     3     3    1.0719E+06 -1.8724E+04   1.0906E+06  0.000E+00  0.000E+00  0.000E+00  3.62786E+01  5.008E-01  2.000E+01  2.000E+04 -9.362E-01
   1   15   25     3     4    1.0906E+06 -1.8614E+04   1.1092E+06  0.000E+00  0.000E+00  0.000E+00  3.53948E+01  5.060E-01  2.000E+01  2.000E+04 -9.307E-01
   1   15   26     3     5    1.1092E+06 -2.1517E+04   1.1307E+06  0.000E+00  0.000E+00  0.000E+00  3.45115E+01  5.115E-01  2.000E+01  2.000E+04 -1.076E+00
   1   16   27     3     6    1.1307E+06 -2.8488E+04   1.1592E+06  0.000E+00  0.000E+00  0.000E+00  3.36294E+01  5.183E-01  2.000E+01  2.000E+04 -1.424E+00
   1   17   28     3     7    1.1592E+06 -3.5561E+04   1.1948E+06  0.000E+00  0.000E+00  0.000E+00  3.27492E+01  5.269E-01  2.000E+01  2.000E+04 -1.778E+00
   1   18   29     3     8    1.1948E+06 -4.6624E+04   1.2414E+06  0.000E+00  0.000E+00  0.000E+00  3.18712E+01  5.379E-01  2.000E+01  2.000E+04 -2.331E+00
   1   18   30     3     9    1.2414E+06 -4.3269E+04   1.2847E+06  0.000E+00  0.000E+00  0.000E+00  3.09942E+01  5.497E-01  2.000E+01  2.000E+04 -2.163E+00



1
              HEAD IN LAYER   1 AT END OF TIME STEP   1 IN STRESS PERIOD   11
  ---------------------------------------------------------------------------

          1      2      3      4      5      6      7      8      9     10
         11     12     13     14     15     16     17     18     19     20
         21     22     23     24     25     26     27     28     29     30
 .........................................................................
   1  ****** ****** ****** ****** ****** ****** ****** ****** ****** ******
      ****** ****** ****** ****** ****** ****** ****** ****** ****** ******
      ****** ****** ****** ****** ****** ****** ****** ****** ****** ******
   2  ****** ****** ****** ****** ****** ****** ****** ****** ****** ******
      ****** ****** ****** ****** ****** ****** ****** ****** ****** ******
      ****** ****** ****** ****** ****** ****** ****** ****** ****** ******
   3  ****** ****** ****** ****** ****** ****** ****** ****** ****** ******
      ****** ****** ****** ****** ****** ****** ****** ****** ****** ******
      ****** ****** ****** ****** ****** ****** ****** ****** ****** ******
   4  ****** ****** ****** ****** ****** ****** ****** ****** ****** ******
      ****** ****** ****** ****** ****** ****** ****** ****** ****** ******
      ****** ****** ****** ****** ****** ****** ****** ****** ****** ******
   5  ****** ****** ****** ****** ****** ****** ****** ****** ****** ******
      ****** ****** ****** ****** ****** ****** ****** ****** ****** ******
      ****** ****** ****** ****** ****** ****** ****** ****** ****** ******
   6  ****** ****** ****** ****** ****** ****** ****** ****** ****** ******
      ****** ****** ****** ****** ****** ****** ****** ****** ****** ******
      ****** ****** ****** ****** ****** ****** ****** ****** ****** ******
   7  ****** ****** ****** ****** ****** ****** ****** ****** ****** ******
      ****** ****** ****** ****** ****** ****** ****** ****** ****** ******
      ****** ****** ****** ****** ****** ****** ****** ****** ****** ******
   8  ****** ****** ****** ****** ****** ****** ****** ****** ****** ******
      ****** ****** ****** ****** ****** ****** ****** ****** ****** ******
      ****** ****** ****** ****** ****** ****** ****** ****** ****** ******
   9  ****** ****** ****** ****** ****** ****** ****** ****** ****** ******
      ****** ****** ****** ****** ****** ****** ****** ****** ****** ******
      ****** ****** ****** ****** ****** ****** ****** ****** ****** ******
  10  ****** ****** ****** ****** ****** ****** ****** ****** ****** ******
      ****** ****** ****** ****** ****** ****** ****** ****** ****** ******
      ****** ****** ****** ****** ****** ****** ****** ****** ****** ******
  11  ****** ****** ****** ****** ****** ****** ****** ****** ****** ******
      ****** ****** ****** ****** ****** ****** ****** ****** ****** ******
      ****** ****** ****** ****** ****** ****** ****** ****** ****** ******
  12  ****** ****** ****** ****** ****** ****** ****** ****** ****** ******
      ****** ****** ****** ****** ****** ****** ****** ****** ****** ******
      ****** ****** ****** ****** ****** ****** ****** ****** ****** ******
  13  ****** ****** ****** ****** ****** ****** ****** ****** ****** ******
      ****** ****** ****** ****** ****** ****** ****** ****** ****** ******
      ****** ****** ****** ****** ****** ****** ****** ****** ****** ******
  14  ****** ****** ****** ****** ****** ****** ****** ****** ****** ******
      ****** ****** ****** ****** ****** ****** ****** ****** ****** ******
      ****** ****** ****** ****** ****** ****** ****** ****** ****** ******
  15  ****** ****** ****** ****** ****** ****** ****** ****** ****** ******
      ****** ****** ****** ****** ****** ****** ****** ****** ****** ******
      ****** ****** ****** ****** ****** ****** ****** ****** ****** ******
  16  ****** ****** ****** ****** ****** ****** ****** ****** ****** ******
      ****** ****** ****** ****** ****** ****** ****** ****** ****** ******
      ****** ****** ****** ****** ****** ****** ****** ****** ****** ******
  17  ****** ****** ****** ****** ****** ****** ****** ****** ****** ******
      ****** ****** ****** ****** ****** ****** ****** ****** ****** ******
      ****** ****** ****** ****** ****** ****** ****** ****** ****** ******
  18  ****** ****** ****** ****** ****** ****** ****** ****** ****** ******
      ****** ****** ****** ****** ****** ****** ****** ****** ****** ******
      ****** ****** ****** ****** ****** ****** ****** ****** ****** ******
  19  ****** ****** ****** ****** ****** ****** ****** ****** ****** ******
      ****** ****** ****** ****** ****** ****** ****** ****** ****** ******
      ****** ****** ****** ****** ****** ****** ****** ****** ****** ******
  20  ****** ****** ****** ****** ****** ****** ****** ****** ****** ******
      ****** ****** ****** ****** ****** ****** ****** ****** ****** ******
      ****** ****** ****** ****** ****** ****** ****** ****** ****** ******
  21  ****** ****** ****** ****** ****** ****** ****** ****** ****** ******
      ****** ****** ****** ****** ****** ****** ****** ****** ****** ******
      ****** ****** ****** ****** ****** ****** ****** ****** ****** ******
  22  ****** ****** ****** ****** ****** ****** ****** ****** ****** ******
      ****** ****** ****** ****** ****** ****** ****** ****** ****** ******
      ****** ****** ****** ****** ****** ****** ****** ****** ****** ******
  23  ****** ****** ****** ****** ****** ****** ****** ****** ****** ******
      ****** ****** ****** ****** ****** ****** ****** ****** ****** ******
      ****** ****** ****** ****** ****** ****** ****** ****** ****** ******
  24  ****** ****** ****** ****** ****** ****** ****** ****** ****** ******
      ****** ****** ****** ****** ****** ****** ****** ****** ****** ******
      ****** ****** ****** ****** ****** ****** ****** ****** ****** ******
  25  ****** ****** ****** ****** ****** ****** ****** ****** ****** ******
      ****** ****** ****** ****** ****** ****** ****** ****** ****** ******
      ****** ****** ****** ****** ****** ****** ****** ****** ****** ******

 HEAD WILL BE SAVED ON UNIT   51 AT END OF TIME STEP    1, STRESS PERIOD   11
1
  VOLUMETRIC BUDGET FOR ENTIRE MODEL AT END OF TIME STEP    1, STRESS PERIOD  11
  ------------------------------------------------------------------------------

     CUMULATIVE VOLUMES      L**3       RATES FOR THIS TIME STEP      L**3/T
     ------------------                 ------------------------

           IN:                                      IN:
           ---                                      ---
             STORAGE =    21180556.3574               STORAGE =        3455.2385
       CONSTANT HEAD =  1206687699.8845         CONSTANT HEAD =     1211081.7656
               WELLS =           0.0000                 WELLS =           0.0000
            RECHARGE =    23901600.0000              RECHARGE =           0.0000
      STREAM LEAKAGE =           0.0000        STREAM LEAKAGE =           0.0000

            TOTAL IN =  1251769856.2419              TOTAL IN =     1214537.0041

          OUT:                                     OUT:
          ----                                     ----
             STORAGE =     1025039.4173               STORAGE =         189.4486
       CONSTANT HEAD =           0.0000         CONSTANT HEAD =           0.0000
               WELLS =    80236150.7951                 WELLS =       79692.8601
            RECHARGE =           0.0000              RECHARGE =           0.0000
      STREAM LEAKAGE =  1170508679.2781        STREAM LEAKAGE =     1134654.7426

           TOTAL OUT =  1251769869.4905             TOTAL OUT =     1214537.0513

            IN - OUT =         -13.2486              IN - OUT =      -4.7246E-02

 PERCENT DISCREPANCY =          -0.00     PERCENT DISCREPANCY =          -0.00






         TIME SUMMARY AT END OF TIME STEP    1 IN STRESS PERIOD   11
                    SECONDS     MINUTES      HOURS       DAYS        YEARS
                    -----------------------------------------------------------
   TIME STEP LENGTH 7.86240E+06 1.31040E+05  2184.0      91.000     0.24914    
 STRESS PERIOD TIME 7.86240E+06 1.31040E+05  2184.0      91.000     0.24914    
         TOTAL TIME 8.67456E+07 1.44576E+06  24096.      1004.0      2.7488    
1
1
                            STRESS PERIOD NO.   12, LENGTH =   91.00000    
                            -----------------------------------------------

                              NUMBER OF TIME STEPS =     1

                               MULTIPLIER FOR DELT =     1.500

                            INITIAL TIME STEP SIZE =   91.00000    

 WELL NO.  LAYER   ROW   COL   STRESS RATE         
 --------------------------------------------------
      1      1     23     18     -0.5000E+05
      2      1     18     17       0.000    
      3      1     23     16     -0.3000E+05

      3 WELLS

                 RECHARGE =  1.000000E-03

 REUSING STREAM SEGMENT DATA FROM LAST STRESS PERIOD
 
 SOLVING FOR HEAD 


     6 CALLS TO PCG ROUTINE FOR TIME STEP   1 IN STRESS PERIOD   12
    22 TOTAL ITERATIONS

 OUTPUT CONTROL FOR STRESS PERIOD   12   TIME STEP    1
    SAVE BUDGET
    SAVE HEAD FOR ALL LAYERS
    PRINT HEAD FOR ALL LAYERS
 UBDSV2 SAVING "STREAMFLOW OUT  " ON UNIT  50 AT TIME STEP  1, STRESS PERIOD  12



 STREAM LISTING     PERIOD     12   STEP        1

 LAYER ROW COL. STREAM  RCH.  FLOW INTO     FLOW TO   FLOW OUT OF   OVRLND.     DIRECT     STREAM       STREAM     STREAM     STREAM   STREAMBED  STREAMBED
                SEG.NO.  NO.  STRM. RCH.    AQUIFER    STRM. RCH.    RUNOFF     PRECIP       ET          HEAD       DEPTH      WIDTH   CONDCTNC.   GRADIENT

   1   13    1     1     1    1.0000E+05 -2.7878E+04   1.2788E+05  0.000E+00  0.000E+00  0.000E+00  4.84178E+01  1.564E-01  2.000E+01  2.000E+04 -1.394E+00
   1   13    2     1     2    1.2788E+05 -3.7633E+04   1.6551E+05  0.000E+00  0.000E+00  0.000E+00  4.79661E+01  1.820E-01  2.000E+01  2.000E+04 -1.882E+00
   1   14    3     1     3    1.6551E+05 -3.3090E+04   1.9860E+05  0.000E+00  0.000E+00  0.000E+00  4.75140E+01  2.072E-01  2.000E+01  2.000E+04 -1.654E+00
   1   15    4     1     4    1.9860E+05 -3.2295E+04   2.3090E+05  0.000E+00  0.000E+00  0.000E+00  4.70584E+01  2.288E-01  2.000E+01  2.000E+04 -1.615E+00
   1   16    5     1     5    2.3090E+05 -3.3746E+04   2.6464E+05  0.000E+00  0.000E+00  0.000E+00  4.66016E+01  2.493E-01  2.000E+01  2.000E+04 -1.687E+00
   1   16    6     1     6    2.6464E+05 -2.9459E+04   2.9410E+05  0.000E+00  0.000E+00  0.000E+00  4.61429E+01  2.679E-01  2.000E+01  2.000E+04 -1.473E+00
   1   16    7     1     7    2.9410E+05 -2.9241E+04   3.2334E+05  0.000E+00  0.000E+00  0.000E+00  4.56822E+01  2.845E-01  2.000E+01  2.000E+04 -1.462E+00
   1   16    8     1     8    3.2334E+05 -2.9363E+04   3.5271E+05  0.000E+00  0.000E+00  0.000E+00  4.52208E+01  3.004E-01  2.000E+01  2.000E+04 -1.468E+00
   1   16    9     1     9    3.5271E+05 -2.9353E+04   3.8206E+05  0.000E+00  0.000E+00  0.000E+00  4.47590E+01  3.158E-01  2.000E+01  2.000E+04 -1.468E+00
   1   16   10     1    10    3.8206E+05 -2.9247E+04   4.1131E+05  0.000E+00  0.000E+00  0.000E+00  4.42966E+01  3.307E-01  2.000E+01  2.000E+04 -1.462E+00
   1   16   11     1    11    4.1131E+05 -2.9627E+04   4.4093E+05  0.000E+00  0.000E+00  0.000E+00  4.38338E+01  3.452E-01  2.000E+01  2.000E+04 -1.481E+00
   1   16   12     1    12    4.4093E+05 -3.4588E+04   4.7552E+05  0.000E+00  0.000E+00  0.000E+00  4.33719E+01  3.606E-01  2.000E+01  2.000E+04 -1.729E+00
   1   15   13     1    13    4.7552E+05 -3.3528E+04   5.0905E+05  0.000E+00  0.000E+00  0.000E+00  4.29105E+01  3.764E-01  2.000E+01  2.000E+04 -1.676E+00
   1   14   14     1    14    5.0905E+05 -3.4338E+04   5.4339E+05  0.000E+00  0.000E+00  0.000E+00  4.24486E+01  3.918E-01  2.000E+01  2.000E+04 -1.717E+00
   1   13   15     1    15    5.4339E+05 -3.6829E+04   5.8021E+05  0.000E+00  0.000E+00  0.000E+00  4.19870E+01  4.074E-01  2.000E+01  2.000E+04 -1.841E+00
   1   12   16     1    16    5.8021E+05 -4.3209E+04   6.2342E+05  0.000E+00  0.000E+00  0.000E+00  4.15269E+01  4.246E-01  2.000E+01  2.000E+04 -2.160E+00
   1   12   17     1    17    6.2342E+05 -3.3694E+04   6.5712E+05  0.000E+00  0.000E+00  0.000E+00  4.10657E+01  4.407E-01  2.000E+01  2.000E+04 -1.685E+00
   1   12   18     1    18    6.5712E+05 -3.2078E+04   6.8920E+05  0.000E+00  0.000E+00  0.000E+00  4.06019E+01  4.541E-01  2.000E+01  2.000E+04 -1.604E+00
   1   12   19     1    19    6.8920E+05 -3.6218E+04   7.2541E+05  0.000E+00  0.000E+00  0.000E+00  4.01383E+01  4.678E-01  2.000E+01  2.000E+04 -1.811E+00
   1   13   20     1    20    7.2541E+05 -2.6193E+04   7.5161E+05  0.000E+00  0.000E+00  0.000E+00  3.96733E+01  4.801E-01  2.000E+01  2.000E+04 -1.310E+00
   1   14   21     1    21    7.5161E+05 -1.8846E+04   7.7045E+05  0.000E+00  0.000E+00  0.000E+00  3.92047E+01  4.888E-01  2.000E+01  2.000E+04 -9.423E-01
   1   14   22     1    22    7.7045E+05 -1.5306E+03   7.7198E+05  0.000E+00  0.000E+00  0.000E+00  3.87314E+01  4.928E-01  2.000E+01  2.000E+04 -7.653E-02
   1    9   30     2     1    5.0000E+04 -2.6622E+04   7.6622E+04  0.000E+00  0.000E+00  0.000E+00  4.02585E+01  1.335E-01  2.000E+01  2.000E+04 -1.331E+00
   1    9   29     2     2    7.6622E+04 -2.9090E+04   1.0571E+05  0.000E+00  0.000E+00  0.000E+00  4.00411E+01  1.661E-01  2.000E+01  2.000E+04 -1.455E+00
   1    9   28     2     3    1.0571E+05 -3.3383E+04   1.3910E+05  0.000E+00  0.000E+00  0.000E+00  3.98233E+01  1.983E-01  2.000E+01  2.000E+04 -1.669E+00
   1    9   27     2     4    1.3910E+05 -4.7529E+04   1.8662E+05  0.000E+00  0.000E+00  0.000E+00  3.96103E+01  2.353E-01  2.000E+01  2.000E+04 -2.376E+00
   1   10   26     2     5    1.8662E+05 -3.3502E+04   2.2013E+05  0.000E+00  0.000E+00  0.000E+00  3.93939E+01  2.689E-01  2.000E+01  2.000E+04 -1.675E+00
   1   11   25     2     6    2.2013E+05 -2.5144E+04   2.4527E+05  0.000E+00  0.000E+00  0.000E+00  3.91665E+01  2.915E-01  2.000E+01  2.000E+04 -1.257E+00
   1   12   24     2     7    2.4527E+05 -1.8544E+04   2.6382E+05  0.000E+00  0.000E+00  0.000E+00  3.89326E+01  3.076E-01  2.000E+01  2.000E+04 -9.272E-01
   1   13   23     2     8    2.6382E+05 -1.3111E+04   2.7693E+05  0.000E+00  0.000E+00  0.000E+00  3.86940E+01  3.190E-01  2.000E+01  2.000E+04 -6.556E-01
   1   14   22     2     9    2.7693E+05 -7.1367E+03   2.8406E+05  0.000E+00  0.000E+00  0.000E+00  3.84511E+01  3.261E-01  2.000E+01  2.000E+04 -3.568E-01
   1   14   22     3     1    1.0560E+06 -1.5130E+04   1.0712E+06  0.000E+00  0.000E+00  0.000E+00  3.80514E+01  4.959E-01  2.000E+01  2.000E+04 -7.565E-01
   1   15   23     3     2    1.0712E+06 -2.2852E+04   1.0940E+06  0.000E+00  0.000E+00  0.000E+00  3.71678E+01  5.012E-01  2.000E+01  2.000E+04 -1.143E+00
   1   15   24     3     3    1.0940E+06 -1.9255E+04   1.1133E+06  0.000E+00  0.000E+00  0.000E+00  3.62848E+01  5.070E-01  2.000E+01  2.000E+04 -9.627E-01
   1   15   25     3     4    1.1133E+06 -1.9023E+04   1.1323E+06  0.000E+00  0.000E+00  0.000E+00  3.54011E+01  5.122E-01  2.000E+01  2.000E+04 -9.512E-01
   1   15   26     3     5    1.1323E+06 -2.1901E+04   1.1542E+06  0.000E+00  0.000E+00  0.000E+00  3.45178E+01  5.178E-01  2.000E+01  2.000E+04 -1.095E+00
   1   16   27     3     6    1.1542E+06 -2.8965E+04   1.1832E+06  0.000E+00  0.000E+00  0.000E+00  3.36358E+01  5.247E-01  2.000E+01  2.000E+04 -1.448E+00
   1   17   28     3     7    1.1832E+06 -3.6028E+04   1.2192E+06  0.000E+00  0.000E+00  0.000E+00  3.27556E+01  5.334E-01  2.000E+01  2.000E+04 -1.801E+00
   1   18   29     3     8    1.2192E+06 -4.7045E+04   1.2662E+06  0.000E+00  0.000E+00  0.000E+00  3.18777E+01  5.444E-01  2.000E+01  2.000E+04 -2.352E+00
   1   18   30     3     9    1.2662E+06 -4.3595E+04   1.3098E+06  0.000E+00  0.000E+00  0.000E+00  3.10007E+01  5.562E-01  2.000E+01  2.000E+04 -2.180E+00



1
              HEAD IN LAYER   1 AT END OF TIME STEP   1 IN STRESS PERIOD   12
  ---------------------------------------------------------------------------

          1      2      3      4      5      6      7      8      9     10
         11     12     13     14     15     16     17     18     19     20
         21     22     23     24     25     26     27     28     29     30
 .........................................................................
   1  ****** ****** ****** ****** ****** ****** ****** ****** ****** ******
      ****** ****** ****** ****** ****** ****** ****** ****** ****** ******
      ****** ****** ****** ****** ****** ****** ****** ****** ****** ******
   2  ****** ****** ****** ****** ****** ****** ****** ****** ****** ******
      ****** ****** ****** ****** ****** ****** ****** ****** ****** ******
      ****** ****** ****** ****** ****** ****** ****** ****** ****** ******
   3  ****** ****** ****** ****** ****** ****** ****** ****** ****** ******
      ****** ****** ****** ****** ****** ****** ****** ****** ****** ******
      ****** ****** ****** ****** ****** ****** ****** ****** ****** ******
   4  ****** ****** ****** ****** ****** ****** ****** ****** ****** ******
      ****** ****** ****** ****** ****** ****** ****** ****** ****** ******
      ****** ****** ****** ****** ****** ****** ****** ****** ****** ******
   5  ****** ****** ****** ****** ****** ****** ****** ****** ****** ******
      ****** ****** ****** ****** ****** ****** ****** ****** ****** ******
      ****** ****** ****** ****** ****** ****** ****** ****** ****** ******
   6  ****** ****** ****** ****** ****** ****** ****** ****** ****** ******
      ****** ****** ****** ****** ****** ****** ****** ****** ****** ******
      ****** ****** ****** ****** ****** ****** ****** ****** ****** ******
   7  ****** ****** ****** ****** ****** ****** ****** ****** ****** ******
      ****** ****** ****** ****** ****** ****** ****** ****** ****** ******
      ****** ****** ****** ****** ****** ****** ****** ****** ****** ******
   8  ****** ****** ****** ****** ****** ****** ****** ****** ****** ******
      ****** ****** ****** ****** ****** ****** ****** ****** ****** ******
      ****** ****** ****** ****** ****** ****** ****** ****** ****** ******
   9  ****** ****** ****** ****** ****** ****** ****** ****** ****** ******
      ****** ****** ****** ****** ****** ****** ****** ****** ****** ******
      ****** ****** ****** ****** ****** ****** ****** ****** ****** ******
  10  ****** ****** ****** ****** ****** ****** ****** ****** ****** ******
      ****** ****** ****** ****** ****** ****** ****** ****** ****** ******
      ****** ****** ****** ****** ****** ****** ****** ****** ****** ******
  11  ****** ****** ****** ****** ****** ****** ****** ****** ****** ******
      ****** ****** ****** ****** ****** ****** ****** ****** ****** ******
      ****** ****** ****** ****** ****** ****** ****** ****** ****** ******
  12  ****** ****** ****** ****** ****** ****** ****** ****** ****** ******
      ****** ****** ****** ****** ****** ****** ****** ****** ****** ******
      ****** ****** ****** ****** ****** ****** ****** ****** ****** ******
  13  ****** ****** ****** ****** ****** ****** ****** ****** ****** ******
      ****** ****** ****** ****** ****** ****** ****** ****** ****** ******
      ****** ****** ****** ****** ****** ****** ****** ****** ****** ******
  14  ****** ****** ****** ****** ****** ****** ****** ****** ****** ******
      ****** ****** ****** ****** ****** ****** ****** ****** ****** ******
      ****** ****** ****** ****** ****** ****** ****** ****** ****** ******
  15  ****** ****** ****** ****** ****** ****** ****** ****** ****** ******
      ****** ****** ****** ****** ****** ****** ****** ****** ****** ******
      ****** ****** ****** ****** ****** ****** ****** ****** ****** ******
  16  ****** ****** ****** ****** ****** ****** ****** ****** ****** ******
      ****** ****** ****** ****** ****** ****** ****** ****** ****** ******
      ****** ****** ****** ****** ****** ****** ****** ****** ****** ******
  17  ****** ****** ****** ****** ****** ****** ****** ****** ****** ******
      ****** ****** ****** ****** ****** ****** ****** ****** ****** ******
      ****** ****** ****** ****** ****** ****** ****** ****** ****** ******
  18  ****** ****** ****** ****** ****** ****** ****** ****** ****** ******
      ****** ****** ****** ****** ****** ****** ****** ****** ****** ******
      ****** ****** ****** ****** ****** ****** ****** ****** ****** ******
  19  ****** ****** ****** ****** ****** ****** ****** ****** ****** ******
      ****** ****** ****** ****** ****** ****** ****** ****** ****** ******
      ****** ****** ****** ****** ****** ****** ****** ****** ****** ******
  20  ****** ****** ****** ****** ****** ****** ****** ****** ****** ******
      ****** ****** ****** ****** ****** ****** ****** ****** ****** ******
      ****** ****** ****** ****** ****** ****** ****** ****** ****** ******
  21  ****** ****** ****** ****** ****** ****** ****** ****** ****** ******
      ****** ****** ****** ****** ****** ****** ****** ****** ****** ******
      ****** ****** ****** ****** ****** ****** ****** ****** ****** ******
  22  ****** ****** ****** ****** ****** ****** ****** ****** ****** ******
      ****** ****** ****** ****** ****** ****** ****** ****** ****** ******
      ****** ****** ****** ****** ****** ****** ****** ****** ****** ******
  23  ****** ****** ****** ****** ****** ****** ****** ****** ****** ******
      ****** ****** ****** ****** ****** ****** ****** ****** ****** ******
      ****** ****** ****** ****** ****** ****** ****** ****** ****** ******
  24  ****** ****** ****** ****** ****** ****** ****** ****** ****** ******
      ****** ****** ****** ****** ****** ****** ****** ****** ****** ******
      ****** ****** ****** ****** ****** ****** ****** ****** ****** ******
  25  ****** ****** ****** ****** ****** ****** ****** ****** ****** ******
      ****** ****** ****** ****** ****** ****** ****** ****** ****** ******
      ****** ****** ****** ****** ****** ****** ****** ****** ****** ******

 HEAD WILL BE SAVED ON UNIT   51 AT END OF TIME STEP    1, STRESS PERIOD   12
1
  VOLUMETRIC BUDGET FOR ENTIRE MODEL AT END OF TIME STEP    1, STRESS PERIOD  12
  ------------------------------------------------------------------------------

     CUMULATIVE VOLUMES      L**3       RATES FOR THIS TIME STEP      L**3/T
     ------------------                 ------------------------

           IN:                                      IN:
           ---                                      ---
             STORAGE =    21200858.7940               STORAGE =         223.1037
       CONSTANT HEAD =  1317176280.5894         CONSTANT HEAD =     1214160.2275
               WELLS =           0.0000                 WELLS =           0.0000
            RECHARGE =    26413200.0000              RECHARGE =       27600.0000
      STREAM LEAKAGE =           0.0000        STREAM LEAKAGE =           0.0000

            TOTAL IN =  1364790339.3834              TOTAL IN =     1241983.3312

          OUT:                                     OUT:
          ----                                     ----
             STORAGE =     1219977.9659               STORAGE =        2142.1819
       CONSTANT HEAD =           0.0000         CONSTANT HEAD =           0.0000
               WELLS =    87516150.7951                 WELLS =       80000.0000
            RECHARGE =           0.0000              RECHARGE =           0.0000
      STREAM LEAKAGE =  1276054221.3929        STREAM LEAKAGE =     1159841.1221

           TOTAL OUT =  1364790350.1538             TOTAL OUT =     1241983.3040

            IN - OUT =         -10.7704              IN - OUT =       2.7233E-02

 PERCENT DISCREPANCY =          -0.00     PERCENT DISCREPANCY =           0.00






         TIME SUMMARY AT END OF TIME STEP    1 IN STRESS PERIOD   12
                    SECONDS     MINUTES      HOURS       DAYS        YEARS
                    -----------------------------------------------------------
   TIME STEP LENGTH 7.86240E+06 1.31040E+05  2184.0      91.000     0.24914    
 STRESS PERIOD TIME 7.86240E+06 1.31040E+05  2184.0      91.000     0.24914    
         TOTAL TIME 9.46080E+07 1.57680E+06  26280.      1095.0      2.9979    
1

 Run end date and time (yyyy/mm/dd hh:mm:ss): 2018/09/26 17:07:37
 Elapsed run time:  0.057 Seconds

