                                  MODFLOW-2005     
      U.S. GEOLOGICAL SURVEY MODULAR FINITE-DIFFERENCE GROUND-WATER FLOW MODEL
                            VERSION 1.11.00 8/8/2013

 LIST FILE: supply2.lst
                         UNIT   10

 OPENING ..\data\supply.dis
 FILE TYPE:DIS   UNIT   11   STATUS:OLD    
 FORMAT:FORMATTED              ACCESS:SEQUENTIAL          

 OPENING ..\data\supply.ba6
 FILE TYPE:BAS6   UNIT   12   STATUS:OLD    
 FORMAT:FORMATTED              ACCESS:SEQUENTIAL          

 OPENING ..\data\supply.bc6
 FILE TYPE:BCF6   UNIT   13   STATUS:OLD    
 FORMAT:FORMATTED              ACCESS:SEQUENTIAL          

 OPENING ..\data\supply.rch
 FILE TYPE:RCH   UNIT   15   STATUS:OLD    
 FORMAT:FORMATTED              ACCESS:SEQUENTIAL          

 OPENING ..\data\supply2.sfr
 FILE TYPE:SFR   UNIT   16   STATUS:OLD    
 FORMAT:FORMATTED              ACCESS:SEQUENTIAL          

 OPENING ..\data\supply.oc
 FILE TYPE:OC   UNIT   17   STATUS:OLD    
 FORMAT:FORMATTED              ACCESS:SEQUENTIAL          

 OPENING ..\data\supply.pcg
 FILE TYPE:PCG   UNIT   18   STATUS:OLD    
 FORMAT:FORMATTED              ACCESS:SEQUENTIAL          

 OPENING supply2.wel
 FILE TYPE:WEL   UNIT   19   STATUS:OLD    
 FORMAT:FORMATTED              ACCESS:SEQUENTIAL          

 OPENING supply2sf.bin
 FILE TYPE:DATA(BINARY)   UNIT   50   STATUS:UNKNOWN
 FORMAT:BINARY                 ACCESS:SEQUENTIAL          

 OPENING supply2hd.bin
 FILE TYPE:DATA(BINARY)   UNIT   51   STATUS:UNKNOWN
 FORMAT:BINARY                 ACCESS:SEQUENTIAL          

 BAS -- BASIC PACKAGE, VERSION 7, 5/2/2005 INPUT READ FROM UNIT   12
 
 MODFLOW was compiled using uniform precision
 Precision of REAL and DOUBLE PRECISION variables:          15

 DISCRETIZATION INPUT DATA READ FROM UNIT   11
    1 LAYERS        25 ROWS        30 COLUMNS
   12 STRESS PERIOD(S) IN SIMULATION
 MODEL TIME UNIT IS DAYS
 MODEL LENGTH UNIT IS UNDEFINED
  Confining bed flag for each layer:
   0

                     DELR =   200.000    

                     DELC =   200.000    

 TOP ELEVATION OF LAYER 1 =  100.0000    

   MODEL LAYER BOTTOM EL. =   0.00000     FOR LAYER   1


 STRESS PERIOD     LENGTH       TIME STEPS     MULTIPLIER FOR DELT    SS FLAG
 ----------------------------------------------------------------------------
        1         92.00000          1                    1.500         TR
        2         91.00000          1                    1.500         TR
        3         91.00000          1                    1.500         TR
        4         91.00000          1                    1.500         TR
        5         92.00000          1                    1.500         TR
        6         91.00000          1                    1.500         TR
        7         91.00000          1                    1.500         TR
        8         91.00000          1                    1.500         TR
        9         92.00000          1                    1.500         TR
       10         91.00000          1                    1.500         TR
       11         91.00000          1                    1.500         TR
       12         91.00000          1                    1.500         TR

 TRANSIENT SIMULATION



 
 #MODOFC transient water supply sample problem                                   
 #                                                                               
 THE FREE FORMAT OPTION HAS BEEN SELECTED



                     BOUNDARY ARRAY FOR LAYER   1
 READING ON UNIT   12 WITH FORMAT: (20I4)              

 AQUIFER HEAD WILL BE SET TO   0.0000     AT ALL NO-FLOW NODES (IBOUND=0).



                       INITIAL HEAD FOR LAYER   1
 READING ON UNIT   12 WITH FORMAT: (10F13.0)           

 OUTPUT CONTROL IS SPECIFIED ONLY AT TIME STEPS FOR WHICH OUTPUT IS DESIRED
 COMPACT CELL-BY-CELL BUDGET FILES WILL BE WRITTEN
 HEAD PRINT FORMAT CODE IS  18    DRAWDOWN PRINT FORMAT CODE IS   0
 HEADS WILL BE SAVED ON UNIT   51    DRAWDOWNS WILL BE SAVED ON UNIT    0

 BCF -- BLOCK-CENTERED FLOW PACKAGE, VERSION 7, 5/2/2005
         INPUT READ FROM UNIT 13
 TRANSIENT SIMULATION
 HEAD AT CELLS THAT CONVERT TO DRY=   0.0000    
 WETTING CAPABILITY IS NOT ACTIVE
      LAYER  LAYER-TYPE CODE     INTERBLOCK T
      --------------------------------------------
         1            0          0 -- HARMONIC    

 COLUMN TO ROW ANISOTROPY =  1.000000    

     PRIMARY STORAGE COEF =  5.000000E-02 FOR LAYER   1

     TRANSMIS. ALONG ROWS =   5000.00     FOR LAYER   1

 WEL -- WELL PACKAGE, VERSION 7, 5/2/2005 INPUT READ FROM UNIT   19
 # Well package input file written by MMProc
 No named parameters
 MAXIMUM OF      7 ACTIVE WELLS AT ONE TIME


     0 Well parameters

 RCH -- RECHARGE PACKAGE, VERSION 7, 5/2/2005 INPUT READ FROM UNIT   15
 No named parameters
 OPTION 1 -- RECHARGE TO TOP LAYER


     0 Recharge parameters

 SFR7 -- STREAMFLOW ROUTING PACKAGE, VERSION 1.0.7, 2013-01-15
         INPUT READ FROM UNIT  16
 #  Supply2 test problem for GWM-VI
 #  The eighth entry in the first data line is ISTCB2 -
 #    Setting this to a negative number indicates that
 #    streamflows out of the reach will be saved to a
 #    binary file.  The absolute value of ISTCB2 is the
 #    unit to which unformatted flows will be written.
 #
 No named parameters
 Segment information will not be 
 read by reach
 No named parameters
 No specifed inflow files


 NUMBER OF STREAM REACHES IS   40

 NUMBER OF STREAM SEGMENTS IS    3

 NUMBER OF STREAM PARAMETERS IS    0

 NUMBER OF STREAM SEGMENTS DEFINED USING PARAMETERS IS              0

 MAXIMUM ERROR FOR STREAM LEAKAGE RATES IS  1.00E-04

 CONSTANT FOR MANNINGS EQUATION IS  1.2839E+05





   STREAM NETWORK DESCRIPTION: 

   LAYER    ROW    COL   SEGMENT   REACH     LENGTH
                          NUMBER   NUMBER    IN CELL        
   --------------------------------------------------
      1     13      1       1        1    2.0000E+02
      1     13      2       1        2    2.0000E+02
      1     14      3       1        3    2.0000E+02
      1     15      4       1        4    2.0000E+02
      1     16      5       1        5    2.0000E+02
      1     16      6       1        6    2.0000E+02
      1     16      7       1        7    2.0000E+02
      1     16      8       1        8    2.0000E+02
      1     16      9       1        9    2.0000E+02
      1     16     10       1       10    2.0000E+02
      1     16     11       1       11    2.0000E+02
      1     16     12       1       12    2.0000E+02
      1     15     13       1       13    2.0000E+02
      1     14     14       1       14    2.0000E+02
      1     13     15       1       15    2.0000E+02
      1     12     16       1       16    2.0000E+02
      1     12     17       1       17    2.0000E+02
      1     12     18       1       18    2.0000E+02
      1     12     19       1       19    2.0000E+02
      1     13     20       1       20    2.0000E+02
      1     14     21       1       21    2.0000E+02
      1     14     22       1       22    2.0000E+02
      1      9     30       2        1    2.0000E+02
      1      9     29       2        2    2.0000E+02
      1      9     28       2        3    2.0000E+02
      1      9     27       2        4    2.0000E+02
      1     10     26       2        5    2.0000E+02
      1     11     25       2        6    2.0000E+02
      1     12     24       2        7    2.0000E+02
      1     13     23       2        8    2.0000E+02
      1     14     22       2        9    2.0000E+02
      1     14     22       3        1    2.0000E+02
      1     15     23       3        2    2.0000E+02
      1     15     24       3        3    2.0000E+02
      1     15     25       3        4    2.0000E+02
      1     15     26       3        5    2.0000E+02
      1     16     27       3        6    2.0000E+02
      1     17     28       3        7    2.0000E+02
      1     18     29       3        8    2.0000E+02
      1     18     30       3        9    2.0000E+02




 PCG -- CONJUGATE-GRADIENT SOLUTION PACKAGE, VERSION 7, 5/2/2005
 MAXIMUM OF    500 CALLS OF SOLUTION ROUTINE
 MAXIMUM OF      5 INTERNAL ITERATIONS PER CALL TO SOLUTION ROUTINE
 MATRIX PRECONDITIONING TYPE :    1



                                    SOLUTION BY THE CONJUGATE-GRADIENT METHOD
                                   -------------------------------------------
                    MAXIMUM NUMBER OF CALLS TO PCG ROUTINE =      500
                        MAXIMUM ITERATIONS PER CALL TO PCG =        5
                               MATRIX PRECONDITIONING TYPE =        1
        RELAXATION FACTOR (ONLY USED WITH PRECOND. TYPE 1) =    0.10000E+01
 PARAMETER OF POLYNOMIAL PRECOND. = 2 (2) OR IS CALCULATED :        0
                         HEAD CHANGE CRITERION FOR CLOSURE =    0.10000E-05
                     RESIDUAL CHANGE CRITERION FOR CLOSURE =    0.10000E+01
            PCG HEAD AND RESIDUAL CHANGE PRINTOUT INTERVAL =        1
     PRINTING FROM SOLVER IS LIMITED(1) OR SUPPRESSED (>1) =        1
                            STEADY-STATE DAMPING PARAMETER =    0.10000E+01
                               TRANSIENT DAMPING PARAMETER =    0.10000E+01
1
                            STRESS PERIOD NO.    1, LENGTH =   92.00000    
                            -----------------------------------------------

                              NUMBER OF TIME STEPS =     1

                               MULTIPLIER FOR DELT =     1.500

                            INITIAL TIME STEP SIZE =   92.00000    

 WELL NO.  LAYER   ROW   COL   STRESS RATE         
 --------------------------------------------------
      1      1      2     21     -0.4767E+05
      2      1     23     19     -0.3233E+05

      2 WELLS

                 RECHARGE =  5.000000E-04



 CLASSIFICATION & COUNT OF STREAM SEGMENTS BASED ON SOURCE OF INFLOW:

                HEADWATER     DIVERSION     RECEIVES TRIBUTARY FLOW
                ---------     ---------     -----------------------
                     2              0               1



                    INPUT DATA FOR EACH STREAM SEGMENT
 ---------------------------------------------------------------------------------------------

 SEGMENT    SEG.     INFLOW   OVERLAND   STREAM    STREAM   ICALC  OUTFLOW  DIVERSION PRIORITY
    NO.    LENGTH     RATE     RUNOFF      ET       PPT.    METH.  TO SEG.  FROM SEG.    NO.

      1  4.400E+03 1.000E+05 0.000E+00 0.000E+00 0.000E+00    1        3        0        0
      2  1.800E+03 5.000E+04 0.000E+00 0.000E+00 0.000E+00    1        3        0        0
      3  1.800E+03 0.000E+00 0.000E+00 0.000E+00 0.000E+00    1        0        0        0


         STREAMBED PROPERTIES AND STREAM DIMENSIONS

 SEGMENT     BED HYD. COND.      BED THICKNESS     ELEV.-TOP OF BED     WIDTH OF STREAM     DEPTH OF STREAM    STREAM ROUGHNESS
    No.     UPPER     LOWER     UPPER     LOWER     UPPER     LOWER     UPPER     LOWER     UPPER     LOWER   CHANNEL      BANK

     1  5.000E+00 5.000E+00 1.000E+00 1.000E+00 4.850E+01 3.800E+01 2.000E+01 2.000E+01                     5.000E-02
     2  5.000E+00 5.000E+00 1.000E+00 1.000E+00 4.025E+01 3.800E+01 2.000E+01 2.000E+01                     5.000E-02
     3  5.000E+00 5.000E+00 1.000E+00 1.000E+00 3.800E+01 3.000E+01 2.000E+01 2.000E+01                     5.000E-02



 
 SOLVING FOR HEAD 


     8 CALLS TO PCG ROUTINE FOR TIME STEP   1 IN STRESS PERIOD    1
    32 TOTAL ITERATIONS

 OUTPUT CONTROL FOR STRESS PERIOD    1   TIME STEP    1
    SAVE BUDGET
    SAVE HEAD FOR ALL LAYERS
    PRINT HEAD FOR ALL LAYERS
 UBDSV2 SAVING "STREAMFLOW OUT  " ON UNIT  50 AT TIME STEP  1, STRESS PERIOD   1



 STREAM LISTING     PERIOD      1   STEP        1

 LAYER ROW COL. STREAM  RCH.  FLOW INTO     FLOW TO   FLOW OUT OF   OVRLND.     DIRECT     STREAM       STREAM     STREAM     STREAM   STREAMBED  STREAMBED
                SEG.NO.  NO.  STRM. RCH.    AQUIFER    STRM. RCH.    RUNOFF     PRECIP       ET          HEAD       DEPTH      WIDTH   CONDCTNC.   GRADIENT

   1   13    1     1     1    1.0000E+05 -3.1677E+04   1.3168E+05  0.000E+00  0.000E+00  0.000E+00  4.84194E+01  1.580E-01  2.000E+01  2.000E+04 -1.584E+00
   1   13    2     1     2    1.3168E+05 -4.2142E+04   1.7382E+05  0.000E+00  0.000E+00  0.000E+00  4.79706E+01  1.865E-01  2.000E+01  2.000E+04 -2.107E+00
   1   14    3     1     3    1.7382E+05 -3.7678E+04   2.1150E+05  0.000E+00  0.000E+00  0.000E+00  4.75212E+01  2.144E-01  2.000E+01  2.000E+04 -1.884E+00
   1   15    4     1     4    2.1150E+05 -3.6728E+04   2.4822E+05  0.000E+00  0.000E+00  0.000E+00  4.70679E+01  2.383E-01  2.000E+01  2.000E+04 -1.836E+00
   1   16    5     1     5    2.4822E+05 -3.7657E+04   2.8588E+05  0.000E+00  0.000E+00  0.000E+00  4.66131E+01  2.608E-01  2.000E+01  2.000E+04 -1.883E+00
   1   16    6     1     6    2.8588E+05 -3.2928E+04   3.1881E+05  0.000E+00  0.000E+00  0.000E+00  4.61559E+01  2.809E-01  2.000E+01  2.000E+04 -1.646E+00
   1   16    7     1     7    3.1881E+05 -3.2736E+04   3.5155E+05  0.000E+00  0.000E+00  0.000E+00  4.56966E+01  2.989E-01  2.000E+01  2.000E+04 -1.637E+00
   1   16    8     1     8    3.5155E+05 -3.2937E+04   3.8448E+05  0.000E+00  0.000E+00  0.000E+00  4.52366E+01  3.161E-01  2.000E+01  2.000E+04 -1.647E+00
   1   16    9     1     9    3.8448E+05 -3.3017E+04   4.1750E+05  0.000E+00  0.000E+00  0.000E+00  4.47760E+01  3.328E-01  2.000E+01  2.000E+04 -1.651E+00
   1   16   10     1    10    4.1750E+05 -3.3023E+04   4.5052E+05  0.000E+00  0.000E+00  0.000E+00  4.43149E+01  3.490E-01  2.000E+01  2.000E+04 -1.651E+00
   1   16   11     1    11    4.5052E+05 -3.3632E+04   4.8416E+05  0.000E+00  0.000E+00  0.000E+00  4.38535E+01  3.648E-01  2.000E+01  2.000E+04 -1.682E+00
   1   16   12     1    12    4.8416E+05 -3.9571E+04   5.2373E+05  0.000E+00  0.000E+00  0.000E+00  4.33931E+01  3.817E-01  2.000E+01  2.000E+04 -1.979E+00
   1   15   13     1    13    5.2373E+05 -3.8957E+04   5.6268E+05  0.000E+00  0.000E+00  0.000E+00  4.29334E+01  3.993E-01  2.000E+01  2.000E+04 -1.948E+00
   1   14   14     1    14    5.6268E+05 -3.9790E+04   6.0247E+05  0.000E+00  0.000E+00  0.000E+00  4.24732E+01  4.164E-01  2.000E+01  2.000E+04 -1.990E+00
   1   13   15     1    15    6.0247E+05 -4.1989E+04   6.4446E+05  0.000E+00  0.000E+00  0.000E+00  4.20133E+01  4.337E-01  2.000E+01  2.000E+04 -2.099E+00
   1   12   16     1    16    6.4446E+05 -4.7713E+04   6.9218E+05  0.000E+00  0.000E+00  0.000E+00  4.15545E+01  4.522E-01  2.000E+01  2.000E+04 -2.386E+00
   1   12   17     1    17    6.9218E+05 -3.7442E+04   7.2962E+05  0.000E+00  0.000E+00  0.000E+00  4.10943E+01  4.693E-01  2.000E+01  2.000E+04 -1.872E+00
   1   12   18     1    18    7.2962E+05 -3.5661E+04   7.6528E+05  0.000E+00  0.000E+00  0.000E+00  4.06313E+01  4.836E-01  2.000E+01  2.000E+04 -1.783E+00
   1   12   19     1    19    7.6528E+05 -4.0022E+04   8.0530E+05  0.000E+00  0.000E+00  0.000E+00  4.01686E+01  4.981E-01  2.000E+01  2.000E+04 -2.001E+00
   1   13   20     1    20    8.0530E+05 -3.0237E+04   8.3554E+05  0.000E+00  0.000E+00  0.000E+00  3.97046E+01  5.114E-01  2.000E+01  2.000E+04 -1.512E+00
   1   14   21     1    21    8.3554E+05 -2.2559E+04   8.5810E+05  0.000E+00  0.000E+00  0.000E+00  3.92371E+01  5.212E-01  2.000E+01  2.000E+04 -1.128E+00
   1   14   22     1    22    8.5810E+05 -2.8231E+03   8.6092E+05  0.000E+00  0.000E+00  0.000E+00  3.87645E+01  5.259E-01  2.000E+01  2.000E+04 -1.412E-01
   1    9   30     2     1    5.0000E+04 -2.9527E+04   7.9527E+04  0.000E+00  0.000E+00  0.000E+00  4.02603E+01  1.353E-01  2.000E+01  2.000E+04 -1.476E+00
   1    9   29     2     2    7.9527E+04 -3.1946E+04   1.1147E+05  0.000E+00  0.000E+00  0.000E+00  4.00458E+01  1.708E-01  2.000E+01  2.000E+04 -1.597E+00
   1    9   28     2     3    1.1147E+05 -3.6212E+04   1.4768E+05  0.000E+00  0.000E+00  0.000E+00  3.98302E+01  2.052E-01  2.000E+01  2.000E+04 -1.811E+00
   1    9   27     2     4    1.4768E+05 -5.0680E+04   1.9836E+05  0.000E+00  0.000E+00  0.000E+00  3.96190E+01  2.440E-01  2.000E+01  2.000E+04 -2.534E+00
   1   10   26     2     5    1.9836E+05 -3.7123E+04   2.3549E+05  0.000E+00  0.000E+00  0.000E+00  3.94045E+01  2.795E-01  2.000E+01  2.000E+04 -1.856E+00
   1   11   25     2     6    2.3549E+05 -2.8781E+04   2.6427E+05  0.000E+00  0.000E+00  0.000E+00  3.91792E+01  3.042E-01  2.000E+01  2.000E+04 -1.439E+00
   1   12   24     2     7    2.6427E+05 -2.1891E+04   2.8616E+05  0.000E+00  0.000E+00  0.000E+00  3.89474E+01  3.224E-01  2.000E+01  2.000E+04 -1.095E+00
   1   13   23     2     8    2.8616E+05 -1.5922E+04   3.0208E+05  0.000E+00  0.000E+00  0.000E+00  3.87105E+01  3.355E-01  2.000E+01  2.000E+04 -7.961E-01
   1   14   22     2     9    3.0208E+05 -8.7358E+03   3.1082E+05  0.000E+00  0.000E+00  0.000E+00  3.84689E+01  3.439E-01  2.000E+01  2.000E+04 -4.368E-01
   1   14   22     3     1    1.1717E+06 -1.6447E+04   1.1882E+06  0.000E+00  0.000E+00  0.000E+00  3.80833E+01  5.277E-01  2.000E+01  2.000E+04 -8.224E-01
   1   15   23     3     2    1.1882E+06 -2.6283E+04   1.2145E+06  0.000E+00  0.000E+00  0.000E+00  3.72001E+01  5.335E-01  2.000E+01  2.000E+04 -1.314E+00
   1   15   24     3     3    1.2145E+06 -2.2093E+04   1.2366E+06  0.000E+00  0.000E+00  0.000E+00  3.63176E+01  5.399E-01  2.000E+01  2.000E+04 -1.105E+00
   1   15   25     3     4    1.2366E+06 -2.1897E+04   1.2585E+06  0.000E+00  0.000E+00  0.000E+00  3.54346E+01  5.457E-01  2.000E+01  2.000E+04 -1.095E+00
   1   15   26     3     5    1.2585E+06 -2.5376E+04   1.2838E+06  0.000E+00  0.000E+00  0.000E+00  3.45518E+01  5.518E-01  2.000E+01  2.000E+04 -1.269E+00
   1   16   27     3     6    1.2838E+06 -3.3035E+04   1.3169E+06  0.000E+00  0.000E+00  0.000E+00  3.36705E+01  5.594E-01  2.000E+01  2.000E+04 -1.652E+00
   1   17   28     3     7    1.3169E+06 -4.0042E+04   1.3569E+06  0.000E+00  0.000E+00  0.000E+00  3.27910E+01  5.688E-01  2.000E+01  2.000E+04 -2.002E+00
   1   18   29     3     8    1.3569E+06 -5.0507E+04   1.4074E+06  0.000E+00  0.000E+00  0.000E+00  3.19136E+01  5.803E-01  2.000E+01  2.000E+04 -2.525E+00
   1   18   30     3     9    1.4074E+06 -4.6585E+04   1.4540E+06  0.000E+00  0.000E+00  0.000E+00  3.10369E+01  5.924E-01  2.000E+01  2.000E+04 -2.329E+00



1
              HEAD IN LAYER   1 AT END OF TIME STEP   1 IN STRESS PERIOD    1
  ---------------------------------------------------------------------------

          1      2      3      4      5      6      7      8      9     10
         11     12     13     14     15     16     17     18     19     20
         21     22     23     24     25     26     27     28     29     30
 .........................................................................
   1  ****** ****** ****** ****** ****** ****** ****** ****** ****** ******
      ****** ****** ****** ****** ****** ****** ****** ****** ****** ******
      ****** ****** ****** ****** ****** ****** ****** ****** ****** ******
   2  ****** ****** ****** ****** ****** ****** ****** ****** ****** ******
      ****** ****** ****** ****** ****** ****** ****** ****** ****** ******
      ****** ****** ****** ****** ****** ****** ****** ****** ****** ******
   3  ****** ****** ****** ****** ****** ****** ****** ****** ****** ******
      ****** ****** ****** ****** ****** ****** ****** ****** ****** ******
      ****** ****** ****** ****** ****** ****** ****** ****** ****** ******
   4  ****** ****** ****** ****** ****** ****** ****** ****** ****** ******
      ****** ****** ****** ****** ****** ****** ****** ****** ****** ******
      ****** ****** ****** ****** ****** ****** ****** ****** ****** ******
   5  ****** ****** ****** ****** ****** ****** ****** ****** ****** ******
      ****** ****** ****** ****** ****** ****** ****** ****** ****** ******
      ****** ****** ****** ****** ****** ****** ****** ****** ****** ******
   6  ****** ****** ****** ****** ****** ****** ****** ****** ****** ******
      ****** ****** ****** ****** ****** ****** ****** ****** ****** ******
      ****** ****** ****** ****** ****** ****** ****** ****** ****** ******
   7  ****** ****** ****** ****** ****** ****** ****** ****** ****** ******
      ****** ****** ****** ****** ****** ****** ****** ****** ****** ******
      ****** ****** ****** ****** ****** ****** ****** ****** ****** ******
   8  ****** ****** ****** ****** ****** ****** ****** ****** ****** ******
      ****** ****** ****** ****** ****** ****** ****** ****** ****** ******
      ****** ****** ****** ****** ****** ****** ****** ****** ****** ******
   9  ****** ****** ****** ****** ****** ****** ****** ****** ****** ******
      ****** ****** ****** ****** ****** ****** ****** ****** ****** ******
      ****** ****** ****** ****** ****** ****** ****** ****** ****** ******
  10  ****** ****** ****** ****** ****** ****** ****** ****** ****** ******
      ****** ****** ****** ****** ****** ****** ****** ****** ****** ******
      ****** ****** ****** ****** ****** ****** ****** ****** ****** ******
  11  ****** ****** ****** ****** ****** ****** ****** ****** ****** ******
      ****** ****** ****** ****** ****** ****** ****** ****** ****** ******
      ****** ****** ****** ****** ****** ****** ****** ****** ****** ******
  12  ****** ****** ****** ****** ****** ****** ****** ****** ****** ******
      ****** ****** ****** ****** ****** ****** ****** ****** ****** ******
      ****** ****** ****** ****** ****** ****** ****** ****** ****** ******
  13  ****** ****** ****** ****** ****** ****** ****** ****** ****** ******
      ****** ****** ****** ****** ****** ****** ****** ****** ****** ******
      ****** ****** ****** ****** ****** ****** ****** ****** ****** ******
  14  ****** ****** ****** ****** ****** ****** ****** ****** ****** ******
      ****** ****** ****** ****** ****** ****** ****** ****** ****** ******
      ****** ****** ****** ****** ****** ****** ****** ****** ****** ******
  15  ****** ****** ****** ****** ****** ****** ****** ****** ****** ******
      ****** ****** ****** ****** ****** ****** ****** ****** ****** ******
      ****** ****** ****** ****** ****** ****** ****** ****** ****** ******
  16  ****** ****** ****** ****** ****** ****** ****** ****** ****** ******
      ****** ****** ****** ****** ****** ****** ****** ****** ****** ******
      ****** ****** ****** ****** ****** ****** ****** ****** ****** ******
  17  ****** ****** ****** ****** ****** ****** ****** ****** ****** ******
      ****** ****** ****** ****** ****** ****** ****** ****** ****** ******
      ****** ****** ****** ****** ****** ****** ****** ****** ****** ******
  18  ****** ****** ****** ****** ****** ****** ****** ****** ****** ******
      ****** ****** ****** ****** ****** ****** ****** ****** ****** ******
      ****** ****** ****** ****** ****** ****** ****** ****** ****** ******
  19  ****** ****** ****** ****** ****** ****** ****** ****** ****** ******
      ****** ****** ****** ****** ****** ****** ****** ****** ****** ******
      ****** ****** ****** ****** ****** ****** ****** ****** ****** ******
  20  ****** ****** ****** ****** ****** ****** ****** ****** ****** ******
      ****** ****** ****** ****** ****** ****** ****** ****** ****** ******
      ****** ****** ****** ****** ****** ****** ****** ****** ****** ******
  21  ****** ****** ****** ****** ****** ****** ****** ****** ****** ******
      ****** ****** ****** ****** ****** ****** ****** ****** ****** ******
      ****** ****** ****** ****** ****** ****** ****** ****** ****** ******
  22  ****** ****** ****** ****** ****** ****** ****** ****** ****** ******
      ****** ****** ****** ****** ****** ****** ****** ****** ****** ******
      ****** ****** ****** ****** ****** ****** ****** ****** ****** ******
  23  ****** ****** ****** ****** ****** ****** ****** ****** ****** ******
      ****** ****** ****** ****** ****** ****** ****** ****** ****** ******
      ****** ****** ****** ****** ****** ****** ****** ****** ****** ******
  24  ****** ****** ****** ****** ****** ****** ****** ****** ****** ******
      ****** ****** ****** ****** ****** ****** ****** ****** ****** ******
      ****** ****** ****** ****** ****** ****** ****** ****** ****** ******
  25  ****** ****** ****** ****** ****** ****** ****** ****** ****** ******
      ****** ****** ****** ****** ****** ****** ****** ****** ****** ******
      ****** ****** ****** ****** ****** ****** ****** ****** ****** ******

 HEAD WILL BE SAVED ON UNIT   51 AT END OF TIME STEP    1, STRESS PERIOD    1
1
  VOLUMETRIC BUDGET FOR ENTIRE MODEL AT END OF TIME STEP    1, STRESS PERIOD   1
  ------------------------------------------------------------------------------

     CUMULATIVE VOLUMES      L**3       RATES FOR THIS TIME STEP      L**3/T
     ------------------                 ------------------------

           IN:                                      IN:
           ---                                      ---
             STORAGE =    19055381.5198               STORAGE =      207123.7122
       CONSTANT HEAD =   107003206.8410         CONSTANT HEAD =     1163078.3352
               WELLS =           0.0000                 WELLS =           0.0000
            RECHARGE =     1269600.0000              RECHARGE =       13800.0000
      STREAM LEAKAGE =           0.0000        STREAM LEAKAGE =           0.0000

            TOTAL IN =   127328188.3607              TOTAL IN =     1384002.0474

          OUT:                                     OUT:
          ----                                     ----
             STORAGE =           0.0000               STORAGE =           0.0000
       CONSTANT HEAD =           0.0000         CONSTANT HEAD =           0.0000
               WELLS =     7360000.0000                 WELLS =       80000.0000
            RECHARGE =           0.0000              RECHARGE =           0.0000
      STREAM LEAKAGE =   119968190.0531        STREAM LEAKAGE =     1304002.0658

           TOTAL OUT =   127328190.0531             TOTAL OUT =     1384002.0658

            IN - OUT =          -1.6924              IN - OUT =      -1.8396E-02

 PERCENT DISCREPANCY =          -0.00     PERCENT DISCREPANCY =          -0.00






         TIME SUMMARY AT END OF TIME STEP    1 IN STRESS PERIOD    1
                    SECONDS     MINUTES      HOURS       DAYS        YEARS
                    -----------------------------------------------------------
   TIME STEP LENGTH 7.94880E+06 1.32480E+05  2208.0      92.000     0.25188    
 STRESS PERIOD TIME 7.94880E+06 1.32480E+05  2208.0      92.000     0.25188    
         TOTAL TIME 7.94880E+06 1.32480E+05  2208.0      92.000     0.25188    
1
1
                            STRESS PERIOD NO.    2, LENGTH =   91.00000    
                            -----------------------------------------------

                              NUMBER OF TIME STEPS =     1

                               MULTIPLIER FOR DELT =     1.500

                            INITIAL TIME STEP SIZE =   91.00000    

 WELL NO.  LAYER   ROW   COL   STRESS RATE         
 --------------------------------------------------
      1      1      2     21     -0.4767E+05
      2      1     23     19       0.000    
      3      1     20      2     -0.3233E+05

      3 WELLS

                 RECHARGE =  2.000000E-03

 REUSING STREAM SEGMENT DATA FROM LAST STRESS PERIOD
 
 SOLVING FOR HEAD 


     6 CALLS TO PCG ROUTINE FOR TIME STEP   1 IN STRESS PERIOD    2
    25 TOTAL ITERATIONS

 OUTPUT CONTROL FOR STRESS PERIOD    2   TIME STEP    1
    SAVE BUDGET
    SAVE HEAD FOR ALL LAYERS
    PRINT HEAD FOR ALL LAYERS
 UBDSV2 SAVING "STREAMFLOW OUT  " ON UNIT  50 AT TIME STEP  1, STRESS PERIOD   2



 STREAM LISTING     PERIOD      2   STEP        1

 LAYER ROW COL. STREAM  RCH.  FLOW INTO     FLOW TO   FLOW OUT OF   OVRLND.     DIRECT     STREAM       STREAM     STREAM     STREAM   STREAMBED  STREAMBED
                SEG.NO.  NO.  STRM. RCH.    AQUIFER    STRM. RCH.    RUNOFF     PRECIP       ET          HEAD       DEPTH      WIDTH   CONDCTNC.   GRADIENT

   1   13    1     1     1    1.0000E+05 -2.7401E+04   1.2740E+05  0.000E+00  0.000E+00  0.000E+00  4.84176E+01  1.562E-01  2.000E+01  2.000E+04 -1.370E+00
   1   13    2     1     2    1.2740E+05 -3.7395E+04   1.6480E+05  0.000E+00  0.000E+00  0.000E+00  4.79657E+01  1.816E-01  2.000E+01  2.000E+04 -1.870E+00
   1   14    3     1     3    1.6480E+05 -3.1983E+04   1.9678E+05  0.000E+00  0.000E+00  0.000E+00  4.75132E+01  2.064E-01  2.000E+01  2.000E+04 -1.599E+00
   1   15    4     1     4    1.9678E+05 -3.0564E+04   2.2734E+05  0.000E+00  0.000E+00  0.000E+00  4.70566E+01  2.271E-01  2.000E+01  2.000E+04 -1.528E+00
   1   16    5     1     5    2.2734E+05 -3.1574E+04   2.5892E+05  0.000E+00  0.000E+00  0.000E+00  4.65988E+01  2.465E-01  2.000E+01  2.000E+04 -1.579E+00
   1   16    6     1     6    2.5892E+05 -2.8559E+04   2.8747E+05  0.000E+00  0.000E+00  0.000E+00  4.61394E+01  2.644E-01  2.000E+01  2.000E+04 -1.428E+00
   1   16    7     1     7    2.8747E+05 -2.8933E+04   3.1641E+05  0.000E+00  0.000E+00  0.000E+00  4.56785E+01  2.807E-01  2.000E+01  2.000E+04 -1.447E+00
   1   16    8     1     8    3.1641E+05 -2.9454E+04   3.4586E+05  0.000E+00  0.000E+00  0.000E+00  4.52172E+01  2.967E-01  2.000E+01  2.000E+04 -1.473E+00
   1   16    9     1     9    3.4586E+05 -2.9763E+04   3.7562E+05  0.000E+00  0.000E+00  0.000E+00  4.47555E+01  3.124E-01  2.000E+01  2.000E+04 -1.488E+00
   1   16   10     1    10    3.7562E+05 -2.9952E+04   4.0558E+05  0.000E+00  0.000E+00  0.000E+00  4.42935E+01  3.276E-01  2.000E+01  2.000E+04 -1.498E+00
   1   16   11     1    11    4.0558E+05 -3.0685E+04   4.3626E+05  0.000E+00  0.000E+00  0.000E+00  4.38313E+01  3.426E-01  2.000E+01  2.000E+04 -1.534E+00
   1   16   12     1    12    4.3626E+05 -3.6387E+04   4.7265E+05  0.000E+00  0.000E+00  0.000E+00  4.33701E+01  3.588E-01  2.000E+01  2.000E+04 -1.819E+00
   1   15   13     1    13    4.7265E+05 -3.5312E+04   5.0796E+05  0.000E+00  0.000E+00  0.000E+00  4.29096E+01  3.755E-01  2.000E+01  2.000E+04 -1.766E+00
   1   14   14     1    14    5.0796E+05 -3.5958E+04   5.4392E+05  0.000E+00  0.000E+00  0.000E+00  4.24485E+01  3.916E-01  2.000E+01  2.000E+04 -1.798E+00
   1   13   15     1    15    5.4392E+05 -3.8154E+04   5.8207E+05  0.000E+00  0.000E+00  0.000E+00  4.19875E+01  4.080E-01  2.000E+01  2.000E+04 -1.908E+00
   1   12   16     1    16    5.8207E+05 -4.4078E+04   6.2615E+05  0.000E+00  0.000E+00  0.000E+00  4.15279E+01  4.256E-01  2.000E+01  2.000E+04 -2.204E+00
   1   12   17     1    17    6.2615E+05 -3.4457E+04   6.6061E+05  0.000E+00  0.000E+00  0.000E+00  4.10670E+01  4.420E-01  2.000E+01  2.000E+04 -1.723E+00
   1   12   18     1    18    6.6061E+05 -3.2776E+04   6.9338E+05  0.000E+00  0.000E+00  0.000E+00  4.06034E+01  4.557E-01  2.000E+01  2.000E+04 -1.639E+00
   1   12   19     1    19    6.9338E+05 -3.6826E+04   7.3021E+05  0.000E+00  0.000E+00  0.000E+00  4.01401E+01  4.696E-01  2.000E+01  2.000E+04 -1.841E+00
   1   13   20     1    20    7.3021E+05 -2.7232E+04   7.5744E+05  0.000E+00  0.000E+00  0.000E+00  3.96754E+01  4.822E-01  2.000E+01  2.000E+04 -1.362E+00
   1   14   21     1    21    7.5744E+05 -2.0183E+04   7.7762E+05  0.000E+00  0.000E+00  0.000E+00  3.92072E+01  4.913E-01  2.000E+01  2.000E+04 -1.009E+00
   1   14   22     1    22    7.7762E+05 -1.9249E+03   7.7955E+05  0.000E+00  0.000E+00  0.000E+00  3.87342E+01  4.956E-01  2.000E+01  2.000E+04 -9.625E-02
   1    9   30     2     1    5.0000E+04 -2.6866E+04   7.6866E+04  0.000E+00  0.000E+00  0.000E+00  4.02586E+01  1.336E-01  2.000E+01  2.000E+04 -1.343E+00
   1    9   29     2     2    7.6866E+04 -2.9311E+04   1.0618E+05  0.000E+00  0.000E+00  0.000E+00  4.00415E+01  1.665E-01  2.000E+01  2.000E+04 -1.466E+00
   1    9   28     2     3    1.0618E+05 -3.3558E+04   1.3973E+05  0.000E+00  0.000E+00  0.000E+00  3.98238E+01  1.988E-01  2.000E+01  2.000E+04 -1.678E+00
   1    9   27     2     4    1.3973E+05 -4.7622E+04   1.8736E+05  0.000E+00  0.000E+00  0.000E+00  3.96109E+01  2.359E-01  2.000E+01  2.000E+04 -2.381E+00
   1   10   26     2     5    1.8736E+05 -3.3661E+04   2.2102E+05  0.000E+00  0.000E+00  0.000E+00  3.93945E+01  2.695E-01  2.000E+01  2.000E+04 -1.683E+00
   1   11   25     2     6    2.2102E+05 -2.5349E+04   2.4637E+05  0.000E+00  0.000E+00  0.000E+00  3.91673E+01  2.923E-01  2.000E+01  2.000E+04 -1.267E+00
   1   12   24     2     7    2.4637E+05 -1.8795E+04   2.6516E+05  0.000E+00  0.000E+00  0.000E+00  3.89335E+01  3.085E-01  2.000E+01  2.000E+04 -9.397E-01
   1   13   23     2     8    2.6516E+05 -1.3436E+04   2.7860E+05  0.000E+00  0.000E+00  0.000E+00  3.86950E+01  3.200E-01  2.000E+01  2.000E+04 -6.718E-01
   1   14   22     2     9    2.7860E+05 -7.5613E+03   2.8616E+05  0.000E+00  0.000E+00  0.000E+00  3.84524E+01  3.274E-01  2.000E+01  2.000E+04 -3.781E-01
   1   14   22     3     1    1.0657E+06 -1.5526E+04   1.0812E+06  0.000E+00  0.000E+00  0.000E+00  3.80542E+01  4.986E-01  2.000E+01  2.000E+04 -7.763E-01
   1   15   23     3     2    1.0812E+06 -2.4173E+04   1.1054E+06  0.000E+00  0.000E+00  0.000E+00  3.71708E+01  5.041E-01  2.000E+01  2.000E+04 -1.209E+00
   1   15   24     3     3    1.1054E+06 -2.0117E+04   1.1255E+06  0.000E+00  0.000E+00  0.000E+00  3.62880E+01  5.102E-01  2.000E+01  2.000E+04 -1.006E+00
   1   15   25     3     4    1.1255E+06 -1.9709E+04   1.1452E+06  0.000E+00  0.000E+00  0.000E+00  3.54046E+01  5.157E-01  2.000E+01  2.000E+04 -9.855E-01
   1   15   26     3     5    1.1452E+06 -2.2530E+04   1.1678E+06  0.000E+00  0.000E+00  0.000E+00  3.45214E+01  5.214E-01  2.000E+01  2.000E+04 -1.126E+00
   1   16   27     3     6    1.1678E+06 -2.9809E+04   1.1976E+06  0.000E+00  0.000E+00  0.000E+00  3.36396E+01  5.285E-01  2.000E+01  2.000E+04 -1.490E+00
   1   17   28     3     7    1.1976E+06 -3.6886E+04   1.2345E+06  0.000E+00  0.000E+00  0.000E+00  3.27596E+01  5.374E-01  2.000E+01  2.000E+04 -1.844E+00
   1   18   29     3     8    1.2345E+06 -4.7843E+04   1.2823E+06  0.000E+00  0.000E+00  0.000E+00  3.18818E+01  5.485E-01  2.000E+01  2.000E+04 -2.392E+00
   1   18   30     3     9    1.2823E+06 -4.4177E+04   1.3265E+06  0.000E+00  0.000E+00  0.000E+00  3.10049E+01  5.605E-01  2.000E+01  2.000E+04 -2.209E+00



1
              HEAD IN LAYER   1 AT END OF TIME STEP   1 IN STRESS PERIOD    2
  ---------------------------------------------------------------------------

          1      2      3      4      5      6      7      8      9     10
         11     12     13     14     15     16     17     18     19     20
         21     22     23     24     25     26     27     28     29     30
 .........................................................................
   1  ****** ****** ****** ****** ****** ****** ****** ****** ****** ******
      ****** ****** ****** ****** ****** ****** ****** ****** ****** ******
      ****** ****** ****** ****** ****** ****** ****** ****** ****** ******
   2  ****** ****** ****** ****** ****** ****** ****** ****** ****** ******
      ****** ****** ****** ****** ****** ****** ****** ****** ****** ******
      ****** ****** ****** ****** ****** ****** ****** ****** ****** ******
   3  ****** ****** ****** ****** ****** ****** ****** ****** ****** ******
      ****** ****** ****** ****** ****** ****** ****** ****** ****** ******
      ****** ****** ****** ****** ****** ****** ****** ****** ****** ******
   4  ****** ****** ****** ****** ****** ****** ****** ****** ****** ******
      ****** ****** ****** ****** ****** ****** ****** ****** ****** ******
      ****** ****** ****** ****** ****** ****** ****** ****** ****** ******
   5  ****** ****** ****** ****** ****** ****** ****** ****** ****** ******
      ****** ****** ****** ****** ****** ****** ****** ****** ****** ******
      ****** ****** ****** ****** ****** ****** ****** ****** ****** ******
   6  ****** ****** ****** ****** ****** ****** ****** ****** ****** ******
      ****** ****** ****** ****** ****** ****** ****** ****** ****** ******
      ****** ****** ****** ****** ****** ****** ****** ****** ****** ******
   7  ****** ****** ****** ****** ****** ****** ****** ****** ****** ******
      ****** ****** ****** ****** ****** ****** ****** ****** ****** ******
      ****** ****** ****** ****** ****** ****** ****** ****** ****** ******
   8  ****** ****** ****** ****** ****** ****** ****** ****** ****** ******
      ****** ****** ****** ****** ****** ****** ****** ****** ****** ******
      ****** ****** ****** ****** ****** ****** ****** ****** ****** ******
   9  ****** ****** ****** ****** ****** ****** ****** ****** ****** ******
      ****** ****** ****** ****** ****** ****** ****** ****** ****** ******
      ****** ****** ****** ****** ****** ****** ****** ****** ****** ******
  10  ****** ****** ****** ****** ****** ****** ****** ****** ****** ******
      ****** ****** ****** ****** ****** ****** ****** ****** ****** ******
      ****** ****** ****** ****** ****** ****** ****** ****** ****** ******
  11  ****** ****** ****** ****** ****** ****** ****** ****** ****** ******
      ****** ****** ****** ****** ****** ****** ****** ****** ****** ******
      ****** ****** ****** ****** ****** ****** ****** ****** ****** ******
  12  ****** ****** ****** ****** ****** ****** ****** ****** ****** ******
      ****** ****** ****** ****** ****** ****** ****** ****** ****** ******
      ****** ****** ****** ****** ****** ****** ****** ****** ****** ******
  13  ****** ****** ****** ****** ****** ****** ****** ****** ****** ******
      ****** ****** ****** ****** ****** ****** ****** ****** ****** ******
      ****** ****** ****** ****** ****** ****** ****** ****** ****** ******
  14  ****** ****** ****** ****** ****** ****** ****** ****** ****** ******
      ****** ****** ****** ****** ****** ****** ****** ****** ****** ******
      ****** ****** ****** ****** ****** ****** ****** ****** ****** ******
  15  ****** ****** ****** ****** ****** ****** ****** ****** ****** ******
      ****** ****** ****** ****** ****** ****** ****** ****** ****** ******
      ****** ****** ****** ****** ****** ****** ****** ****** ****** ******
  16  ****** ****** ****** ****** ****** ****** ****** ****** ****** ******
      ****** ****** ****** ****** ****** ****** ****** ****** ****** ******
      ****** ****** ****** ****** ****** ****** ****** ****** ****** ******
  17  ****** ****** ****** ****** ****** ****** ****** ****** ****** ******
      ****** ****** ****** ****** ****** ****** ****** ****** ****** ******
      ****** ****** ****** ****** ****** ****** ****** ****** ****** ******
  18  ****** ****** ****** ****** ****** ****** ****** ****** ****** ******
      ****** ****** ****** ****** ****** ****** ****** ****** ****** ******
      ****** ****** ****** ****** ****** ****** ****** ****** ****** ******
  19  ****** ****** ****** ****** ****** ****** ****** ****** ****** ******
      ****** ****** ****** ****** ****** ****** ****** ****** ****** ******
      ****** ****** ****** ****** ****** ****** ****** ****** ****** ******
  20  ****** ****** ****** ****** ****** ****** ****** ****** ****** ******
      ****** ****** ****** ****** ****** ****** ****** ****** ****** ******
      ****** ****** ****** ****** ****** ****** ****** ****** ****** ******
  21  ****** ****** ****** ****** ****** ****** ****** ****** ****** ******
      ****** ****** ****** ****** ****** ****** ****** ****** ****** ******
      ****** ****** ****** ****** ****** ****** ****** ****** ****** ******
  22  ****** ****** ****** ****** ****** ****** ****** ****** ****** ******
      ****** ****** ****** ****** ****** ****** ****** ****** ****** ******
      ****** ****** ****** ****** ****** ****** ****** ****** ****** ******
  23  ****** ****** ****** ****** ****** ****** ****** ****** ****** ******
      ****** ****** ****** ****** ****** ****** ****** ****** ****** ******
      ****** ****** ****** ****** ****** ****** ****** ****** ****** ******
  24  ****** ****** ****** ****** ****** ****** ****** ****** ****** ******
      ****** ****** ****** ****** ****** ****** ****** ****** ****** ******
      ****** ****** ****** ****** ****** ****** ****** ****** ****** ******
  25  ****** ****** ****** ****** ****** ****** ****** ****** ****** ******
      ****** ****** ****** ****** ****** ****** ****** ****** ****** ******
      ****** ****** ****** ****** ****** ****** ****** ****** ****** ******

 HEAD WILL BE SAVED ON UNIT   51 AT END OF TIME STEP    1, STRESS PERIOD    2
1
  VOLUMETRIC BUDGET FOR ENTIRE MODEL AT END OF TIME STEP    1, STRESS PERIOD   2
  ------------------------------------------------------------------------------

     CUMULATIVE VOLUMES      L**3       RATES FOR THIS TIME STEP      L**3/T
     ------------------                 ------------------------

           IN:                                      IN:
           ---                                      ---
             STORAGE =    19821659.2019               STORAGE =        8420.6339
       CONSTANT HEAD =   215581772.3175         CONSTANT HEAD =     1193171.0492
               WELLS =           0.0000                 WELLS =           0.0000
            RECHARGE =     6292800.0000              RECHARGE =       55200.0000
      STREAM LEAKAGE =           0.0000        STREAM LEAKAGE =           0.0000

            TOTAL IN =   241696231.5194              TOTAL IN =     1256791.6831

          OUT:                                     OUT:
          ----                                     ----
             STORAGE =       28630.9412               STORAGE =         314.6257
       CONSTANT HEAD =           0.0000         CONSTANT HEAD =           0.0000
               WELLS =    14640000.0000                 WELLS =       80000.0000
            RECHARGE =           0.0000              RECHARGE =           0.0000
      STREAM LEAKAGE =   227027604.7089        STREAM LEAKAGE =     1176477.0841

           TOTAL OUT =   241696235.6501             TOTAL OUT =     1256791.7099

            IN - OUT =          -4.1308              IN - OUT =      -2.6795E-02

 PERCENT DISCREPANCY =          -0.00     PERCENT DISCREPANCY =          -0.00






         TIME SUMMARY AT END OF TIME STEP    1 IN STRESS PERIOD    2
                    SECONDS     MINUTES      HOURS       DAYS        YEARS
                    -----------------------------------------------------------
   TIME STEP LENGTH 7.86240E+06 1.31040E+05  2184.0      91.000     0.24914    
 STRESS PERIOD TIME 7.86240E+06 1.31040E+05  2184.0      91.000     0.24914    
         TOTAL TIME 1.58112E+07 2.63520E+05  4392.0      183.00     0.50103    
1
1
                            STRESS PERIOD NO.    3, LENGTH =   91.00000    
                            -----------------------------------------------

                              NUMBER OF TIME STEPS =     1

                               MULTIPLIER FOR DELT =     1.500

                            INITIAL TIME STEP SIZE =   91.00000    

 WELL NO.  LAYER   ROW   COL   STRESS RATE         
 --------------------------------------------------
      1      1      2     21     -0.4767E+05
      2      1     23     19     -0.3233E+05

      2 WELLS

                 RECHARGE =   0.00000    

 REUSING STREAM SEGMENT DATA FROM LAST STRESS PERIOD
 
 SOLVING FOR HEAD 


     5 CALLS TO PCG ROUTINE FOR TIME STEP   1 IN STRESS PERIOD    3
    20 TOTAL ITERATIONS

 OUTPUT CONTROL FOR STRESS PERIOD    3   TIME STEP    1
    SAVE BUDGET
    SAVE HEAD FOR ALL LAYERS
    PRINT HEAD FOR ALL LAYERS
 UBDSV2 SAVING "STREAMFLOW OUT  " ON UNIT  50 AT TIME STEP  1, STRESS PERIOD   3



 STREAM LISTING     PERIOD      3   STEP        1

 LAYER ROW COL. STREAM  RCH.  FLOW INTO     FLOW TO   FLOW OUT OF   OVRLND.     DIRECT     STREAM       STREAM     STREAM     STREAM   STREAMBED  STREAMBED
                SEG.NO.  NO.  STRM. RCH.    AQUIFER    STRM. RCH.    RUNOFF     PRECIP       ET          HEAD       DEPTH      WIDTH   CONDCTNC.   GRADIENT

   1   13    1     1     1    1.0000E+05 -2.7439E+04   1.2744E+05  0.000E+00  0.000E+00  0.000E+00  4.84176E+01  1.563E-01  2.000E+01  2.000E+04 -1.372E+00
   1   13    2     1     2    1.2744E+05 -3.7124E+04   1.6456E+05  0.000E+00  0.000E+00  0.000E+00  4.79656E+01  1.815E-01  2.000E+01  2.000E+04 -1.856E+00
   1   14    3     1     3    1.6456E+05 -3.2560E+04   1.9712E+05  0.000E+00  0.000E+00  0.000E+00  4.75132E+01  2.064E-01  2.000E+01  2.000E+04 -1.628E+00
   1   15    4     1     4    1.9712E+05 -3.1778E+04   2.2890E+05  0.000E+00  0.000E+00  0.000E+00  4.70572E+01  2.277E-01  2.000E+01  2.000E+04 -1.589E+00
   1   16    5     1     5    2.2890E+05 -3.3303E+04   2.6220E+05  0.000E+00  0.000E+00  0.000E+00  4.66002E+01  2.480E-01  2.000E+01  2.000E+04 -1.665E+00
   1   16    6     1     6    2.6220E+05 -2.9141E+04   2.9134E+05  0.000E+00  0.000E+00  0.000E+00  4.61414E+01  2.664E-01  2.000E+01  2.000E+04 -1.457E+00
   1   16    7     1     7    2.9134E+05 -2.8989E+04   3.2033E+05  0.000E+00  0.000E+00  0.000E+00  4.56806E+01  2.829E-01  2.000E+01  2.000E+04 -1.449E+00
   1   16    8     1     8    3.2033E+05 -2.9182E+04   3.4951E+05  0.000E+00  0.000E+00  0.000E+00  4.52192E+01  2.987E-01  2.000E+01  2.000E+04 -1.459E+00
   1   16    9     1     9    3.4951E+05 -2.9263E+04   3.7878E+05  0.000E+00  0.000E+00  0.000E+00  4.47573E+01  3.141E-01  2.000E+01  2.000E+04 -1.463E+00
   1   16   10     1    10    3.7878E+05 -2.9281E+04   4.0806E+05  0.000E+00  0.000E+00  0.000E+00  4.42949E+01  3.290E-01  2.000E+01  2.000E+04 -1.464E+00
   1   16   11     1    11    4.0806E+05 -2.9848E+04   4.3791E+05  0.000E+00  0.000E+00  0.000E+00  4.38323E+01  3.437E-01  2.000E+01  2.000E+04 -1.492E+00
   1   16   12     1    12    4.3791E+05 -3.5201E+04   4.7311E+05  0.000E+00  0.000E+00  0.000E+00  4.33706E+01  3.593E-01  2.000E+01  2.000E+04 -1.760E+00
   1   15   13     1    13    4.7311E+05 -3.3927E+04   5.0703E+05  0.000E+00  0.000E+00  0.000E+00  4.29095E+01  3.754E-01  2.000E+01  2.000E+04 -1.696E+00
   1   14   14     1    14    5.0703E+05 -3.4522E+04   5.4156E+05  0.000E+00  0.000E+00  0.000E+00  4.24477E+01  3.909E-01  2.000E+01  2.000E+04 -1.726E+00
   1   13   15     1    15    5.4156E+05 -3.6763E+04   5.7832E+05  0.000E+00  0.000E+00  0.000E+00  4.19862E+01  4.066E-01  2.000E+01  2.000E+04 -1.838E+00
   1   12   16     1    16    5.7832E+05 -4.2806E+04   6.2112E+05  0.000E+00  0.000E+00  0.000E+00  4.15260E+01  4.237E-01  2.000E+01  2.000E+04 -2.140E+00
   1   12   17     1    17    6.2112E+05 -3.3399E+04   6.5452E+05  0.000E+00  0.000E+00  0.000E+00  4.10647E+01  4.397E-01  2.000E+01  2.000E+04 -1.670E+00
   1   12   18     1    18    6.5452E+05 -3.1756E+04   6.8628E+05  0.000E+00  0.000E+00  0.000E+00  4.06008E+01  4.530E-01  2.000E+01  2.000E+04 -1.588E+00
   1   12   19     1    19    6.8628E+05 -3.5734E+04   7.2201E+05  0.000E+00  0.000E+00  0.000E+00  4.01370E+01  4.666E-01  2.000E+01  2.000E+04 -1.787E+00
   1   13   20     1    20    7.2201E+05 -2.6084E+04   7.4810E+05  0.000E+00  0.000E+00  0.000E+00  3.96719E+01  4.788E-01  2.000E+01  2.000E+04 -1.304E+00
   1   14   21     1    21    7.4810E+05 -1.9036E+04   7.6713E+05  0.000E+00  0.000E+00  0.000E+00  3.92034E+01  4.875E-01  2.000E+01  2.000E+04 -9.518E-01
   1   14   22     1    22    7.6713E+05 -1.5144E+03   7.6865E+05  0.000E+00  0.000E+00  0.000E+00  3.87301E+01  4.915E-01  2.000E+01  2.000E+04 -7.572E-02
   1    9   30     2     1    5.0000E+04 -2.6194E+04   7.6194E+04  0.000E+00  0.000E+00  0.000E+00  4.02582E+01  1.332E-01  2.000E+01  2.000E+04 -1.310E+00
   1    9   29     2     2    7.6194E+04 -2.8639E+04   1.0483E+05  0.000E+00  0.000E+00  0.000E+00  4.00404E+01  1.654E-01  2.000E+01  2.000E+04 -1.432E+00
   1    9   28     2     3    1.0483E+05 -3.2861E+04   1.3769E+05  0.000E+00  0.000E+00  0.000E+00  3.98222E+01  1.972E-01  2.000E+01  2.000E+04 -1.643E+00
   1    9   27     2     4    1.3769E+05 -4.6764E+04   1.8446E+05  0.000E+00  0.000E+00  0.000E+00  3.96088E+01  2.338E-01  2.000E+01  2.000E+04 -2.338E+00
   1   10   26     2     5    1.8446E+05 -3.2763E+04   2.1722E+05  0.000E+00  0.000E+00  0.000E+00  3.93919E+01  2.669E-01  2.000E+01  2.000E+04 -1.638E+00
   1   11   25     2     6    2.1722E+05 -2.4478E+04   2.4170E+05  0.000E+00  0.000E+00  0.000E+00  3.91641E+01  2.891E-01  2.000E+01  2.000E+04 -1.224E+00
   1   12   24     2     7    2.4170E+05 -1.8008E+04   2.5971E+05  0.000E+00  0.000E+00  0.000E+00  3.89298E+01  3.048E-01  2.000E+01  2.000E+04 -9.004E-01
   1   13   23     2     8    2.5971E+05 -1.2774E+04   2.7248E+05  0.000E+00  0.000E+00  0.000E+00  3.86909E+01  3.159E-01  2.000E+01  2.000E+04 -6.387E-01
   1   14   22     2     9    2.7248E+05 -7.1571E+03   2.7964E+05  0.000E+00  0.000E+00  0.000E+00  3.84480E+01  3.230E-01  2.000E+01  2.000E+04 -3.579E-01
   1   14   22     3     1    1.0483E+06 -1.5132E+04   1.0634E+06  0.000E+00  0.000E+00  0.000E+00  3.80493E+01  4.937E-01  2.000E+01  2.000E+04 -7.566E-01
   1   15   23     3     2    1.0634E+06 -2.3048E+04   1.0865E+06  0.000E+00  0.000E+00  0.000E+00  3.71657E+01  4.990E-01  2.000E+01  2.000E+04 -1.152E+00
   1   15   24     3     3    1.0865E+06 -1.9278E+04   1.1057E+06  0.000E+00  0.000E+00  0.000E+00  3.62827E+01  5.049E-01  2.000E+01  2.000E+04 -9.639E-01
   1   15   25     3     4    1.1057E+06 -1.8952E+04   1.1247E+06  0.000E+00  0.000E+00  0.000E+00  3.53991E+01  5.102E-01  2.000E+01  2.000E+04 -9.476E-01
   1   15   26     3     5    1.1247E+06 -2.1728E+04   1.1464E+06  0.000E+00  0.000E+00  0.000E+00  3.45157E+01  5.157E-01  2.000E+01  2.000E+04 -1.086E+00
   1   16   27     3     6    1.1464E+06 -2.8801E+04   1.1752E+06  0.000E+00  0.000E+00  0.000E+00  3.36337E+01  5.226E-01  2.000E+01  2.000E+04 -1.440E+00
   1   17   28     3     7    1.1752E+06 -3.5856E+04   1.2111E+06  0.000E+00  0.000E+00  0.000E+00  3.27535E+01  5.313E-01  2.000E+01  2.000E+04 -1.793E+00
   1   18   29     3     8    1.2111E+06 -4.6880E+04   1.2580E+06  0.000E+00  0.000E+00  0.000E+00  3.18756E+01  5.422E-01  2.000E+01  2.000E+04 -2.344E+00
   1   18   30     3     9    1.2580E+06 -4.3419E+04   1.3014E+06  0.000E+00  0.000E+00  0.000E+00  3.09985E+01  5.541E-01  2.000E+01  2.000E+04 -2.171E+00



1
              HEAD IN LAYER   1 AT END OF TIME STEP   1 IN STRESS PERIOD    3
  ---------------------------------------------------------------------------

          1      2      3      4      5      6      7      8      9     10
         11     12     13     14     15     16     17     18     19     20
         21     22     23     24     25     26     27     28     29     30
 .........................................................................
   1  ****** ****** ****** ****** ****** ****** ****** ****** ****** ******
      ****** ****** ****** ****** ****** ****** ****** ****** ****** ******
      ****** ****** ****** ****** ****** ****** ****** ****** ****** ******
   2  ****** ****** ****** ****** ****** ****** ****** ****** ****** ******
      ****** ****** ****** ****** ****** ****** ****** ****** ****** ******
      ****** ****** ****** ****** ****** ****** ****** ****** ****** ******
   3  ****** ****** ****** ****** ****** ****** ****** ****** ****** ******
      ****** ****** ****** ****** ****** ****** ****** ****** ****** ******
      ****** ****** ****** ****** ****** ****** ****** ****** ****** ******
   4  ****** ****** ****** ****** ****** ****** ****** ****** ****** ******
      ****** ****** ****** ****** ****** ****** ****** ****** ****** ******
      ****** ****** ****** ****** ****** ****** ****** ****** ****** ******
   5  ****** ****** ****** ****** ****** ****** ****** ****** ****** ******
      ****** ****** ****** ****** ****** ****** ****** ****** ****** ******
      ****** ****** ****** ****** ****** ****** ****** ****** ****** ******
   6  ****** ****** ****** ****** ****** ****** ****** ****** ****** ******
      ****** ****** ****** ****** ****** ****** ****** ****** ****** ******
      ****** ****** ****** ****** ****** ****** ****** ****** ****** ******
   7  ****** ****** ****** ****** ****** ****** ****** ****** ****** ******
      ****** ****** ****** ****** ****** ****** ****** ****** ****** ******
      ****** ****** ****** ****** ****** ****** ****** ****** ****** ******
   8  ****** ****** ****** ****** ****** ****** ****** ****** ****** ******
      ****** ****** ****** ****** ****** ****** ****** ****** ****** ******
      ****** ****** ****** ****** ****** ****** ****** ****** ****** ******
   9  ****** ****** ****** ****** ****** ****** ****** ****** ****** ******
      ****** ****** ****** ****** ****** ****** ****** ****** ****** ******
      ****** ****** ****** ****** ****** ****** ****** ****** ****** ******
  10  ****** ****** ****** ****** ****** ****** ****** ****** ****** ******
      ****** ****** ****** ****** ****** ****** ****** ****** ****** ******
      ****** ****** ****** ****** ****** ****** ****** ****** ****** ******
  11  ****** ****** ****** ****** ****** ****** ****** ****** ****** ******
      ****** ****** ****** ****** ****** ****** ****** ****** ****** ******
      ****** ****** ****** ****** ****** ****** ****** ****** ****** ******
  12  ****** ****** ****** ****** ****** ****** ****** ****** ****** ******
      ****** ****** ****** ****** ****** ****** ****** ****** ****** ******
      ****** ****** ****** ****** ****** ****** ****** ****** ****** ******
  13  ****** ****** ****** ****** ****** ****** ****** ****** ****** ******
      ****** ****** ****** ****** ****** ****** ****** ****** ****** ******
      ****** ****** ****** ****** ****** ****** ****** ****** ****** ******
  14  ****** ****** ****** ****** ****** ****** ****** ****** ****** ******
      ****** ****** ****** ****** ****** ****** ****** ****** ****** ******
      ****** ****** ****** ****** ****** ****** ****** ****** ****** ******
  15  ****** ****** ****** ****** ****** ****** ****** ****** ****** ******
      ****** ****** ****** ****** ****** ****** ****** ****** ****** ******
      ****** ****** ****** ****** ****** ****** ****** ****** ****** ******
  16  ****** ****** ****** ****** ****** ****** ****** ****** ****** ******
      ****** ****** ****** ****** ****** ****** ****** ****** ****** ******
      ****** ****** ****** ****** ****** ****** ****** ****** ****** ******
  17  ****** ****** ****** ****** ****** ****** ****** ****** ****** ******
      ****** ****** ****** ****** ****** ****** ****** ****** ****** ******
      ****** ****** ****** ****** ****** ****** ****** ****** ****** ******
  18  ****** ****** ****** ****** ****** ****** ****** ****** ****** ******
      ****** ****** ****** ****** ****** ****** ****** ****** ****** ******
      ****** ****** ****** ****** ****** ****** ****** ****** ****** ******
  19  ****** ****** ****** ****** ****** ****** ****** ****** ****** ******
      ****** ****** ****** ****** ****** ****** ****** ****** ****** ******
      ****** ****** ****** ****** ****** ****** ****** ****** ****** ******
  20  ****** ****** ****** ****** ****** ****** ****** ****** ****** ******
      ****** ****** ****** ****** ****** ****** ****** ****** ****** ******
      ****** ****** ****** ****** ****** ****** ****** ****** ****** ******
  21  ****** ****** ****** ****** ****** ****** ****** ****** ****** ******
      ****** ****** ****** ****** ****** ****** ****** ****** ****** ******
      ****** ****** ****** ****** ****** ****** ****** ****** ****** ******
  22  ****** ****** ****** ****** ****** ****** ****** ****** ****** ******
      ****** ****** ****** ****** ****** ****** ****** ****** ****** ******
      ****** ****** ****** ****** ****** ****** ****** ****** ****** ******
  23  ****** ****** ****** ****** ****** ****** ****** ****** ****** ******
      ****** ****** ****** ****** ****** ****** ****** ****** ****** ******
      ****** ****** ****** ****** ****** ****** ****** ****** ****** ******
  24  ****** ****** ****** ****** ****** ****** ****** ****** ****** ******
      ****** ****** ****** ****** ****** ****** ****** ****** ****** ******
      ****** ****** ****** ****** ****** ****** ****** ****** ****** ******
  25  ****** ****** ****** ****** ****** ****** ****** ****** ****** ******
      ****** ****** ****** ****** ****** ****** ****** ****** ****** ******
      ****** ****** ****** ****** ****** ****** ****** ****** ****** ******

 HEAD WILL BE SAVED ON UNIT   51 AT END OF TIME STEP    1, STRESS PERIOD    3
1
  VOLUMETRIC BUDGET FOR ENTIRE MODEL AT END OF TIME STEP    1, STRESS PERIOD   3
  ------------------------------------------------------------------------------

     CUMULATIVE VOLUMES      L**3       RATES FOR THIS TIME STEP      L**3/T
     ------------------                 ------------------------

           IN:                                      IN:
           ---                                      ---
             STORAGE =    20155423.9046               STORAGE =        3667.7440
       CONSTANT HEAD =   327421097.7849         CONSTANT HEAD =     1229003.5766
               WELLS =           0.0000                 WELLS =           0.0000
            RECHARGE =     6292800.0000              RECHARGE =           0.0000
      STREAM LEAKAGE =           0.0000        STREAM LEAKAGE =           0.0000

            TOTAL IN =   353869321.6895              TOTAL IN =     1232671.3206

          OUT:                                     OUT:
          ----                                     ----
             STORAGE =      146063.4164               STORAGE =        1290.4668
       CONSTANT HEAD =           0.0000         CONSTANT HEAD =           0.0000
               WELLS =    21920000.0000                 WELLS =       80000.0000
            RECHARGE =           0.0000              RECHARGE =           0.0000
      STREAM LEAKAGE =   331803260.7726        STREAM LEAKAGE =     1151380.8359

           TOTAL OUT =   353869324.1890             TOTAL OUT =     1232671.3026

            IN - OUT =          -2.4995              IN - OUT =       1.7926E-02

 PERCENT DISCREPANCY =          -0.00     PERCENT DISCREPANCY =           0.00






         TIME SUMMARY AT END OF TIME STEP    1 IN STRESS PERIOD    3
                    SECONDS     MINUTES      HOURS       DAYS        YEARS
                    -----------------------------------------------------------
   TIME STEP LENGTH 7.86240E+06 1.31040E+05  2184.0      91.000     0.24914    
 STRESS PERIOD TIME 7.86240E+06 1.31040E+05  2184.0      91.000     0.24914    
         TOTAL TIME 2.36736E+07 3.94560E+05  6576.0      274.00     0.75017    
1
1
                            STRESS PERIOD NO.    4, LENGTH =   91.00000    
                            -----------------------------------------------

                              NUMBER OF TIME STEPS =     1

                               MULTIPLIER FOR DELT =     1.500

                            INITIAL TIME STEP SIZE =   91.00000    

 WELL NO.  LAYER   ROW   COL   STRESS RATE         
 --------------------------------------------------
      1      1      2     21     -0.4767E+05
      2      1     23     19       0.000    
      3      1     20      2     -0.3233E+05

      3 WELLS

                 RECHARGE =  1.000000E-03

 REUSING STREAM SEGMENT DATA FROM LAST STRESS PERIOD
 
 SOLVING FOR HEAD 


     6 CALLS TO PCG ROUTINE FOR TIME STEP   1 IN STRESS PERIOD    4
    23 TOTAL ITERATIONS

 OUTPUT CONTROL FOR STRESS PERIOD    4   TIME STEP    1
    SAVE BUDGET
    SAVE HEAD FOR ALL LAYERS
    PRINT HEAD FOR ALL LAYERS
 UBDSV2 SAVING "STREAMFLOW OUT  " ON UNIT  50 AT TIME STEP  1, STRESS PERIOD   4



 STREAM LISTING     PERIOD      4   STEP        1

 LAYER ROW COL. STREAM  RCH.  FLOW INTO     FLOW TO   FLOW OUT OF   OVRLND.     DIRECT     STREAM       STREAM     STREAM     STREAM   STREAMBED  STREAMBED
                SEG.NO.  NO.  STRM. RCH.    AQUIFER    STRM. RCH.    RUNOFF     PRECIP       ET          HEAD       DEPTH      WIDTH   CONDCTNC.   GRADIENT

   1   13    1     1     1    1.0000E+05 -2.6746E+04   1.2675E+05  0.000E+00  0.000E+00  0.000E+00  4.84173E+01  1.560E-01  2.000E+01  2.000E+04 -1.337E+00
   1   13    2     1     2    1.2675E+05 -3.6602E+04   1.6335E+05  0.000E+00  0.000E+00  0.000E+00  4.79649E+01  1.808E-01  2.000E+01  2.000E+04 -1.830E+00
   1   14    3     1     3    1.6335E+05 -3.1227E+04   1.9458E+05  0.000E+00  0.000E+00  0.000E+00  4.75119E+01  2.051E-01  2.000E+01  2.000E+04 -1.561E+00
   1   15    4     1     4    1.9458E+05 -2.9851E+04   2.2443E+05  0.000E+00  0.000E+00  0.000E+00  4.70550E+01  2.254E-01  2.000E+01  2.000E+04 -1.493E+00
   1   16    5     1     5    2.2443E+05 -3.0945E+04   2.5537E+05  0.000E+00  0.000E+00  0.000E+00  4.65968E+01  2.445E-01  2.000E+01  2.000E+04 -1.547E+00
   1   16    6     1     6    2.5537E+05 -2.8009E+04   2.8338E+05  0.000E+00  0.000E+00  0.000E+00  4.61371E+01  2.621E-01  2.000E+01  2.000E+04 -1.400E+00
   1   16    7     1     7    2.8338E+05 -2.8387E+04   3.1177E+05  0.000E+00  0.000E+00  0.000E+00  4.56760E+01  2.783E-01  2.000E+01  2.000E+04 -1.419E+00
   1   16    8     1     8    3.1177E+05 -2.8905E+04   3.4067E+05  0.000E+00  0.000E+00  0.000E+00  4.52145E+01  2.941E-01  2.000E+01  2.000E+04 -1.445E+00
   1   16    9     1     9    3.4067E+05 -2.9214E+04   3.6989E+05  0.000E+00  0.000E+00  0.000E+00  4.47527E+01  3.095E-01  2.000E+01  2.000E+04 -1.461E+00
   1   16   10     1    10    3.6989E+05 -2.9407E+04   3.9929E+05  0.000E+00  0.000E+00  0.000E+00  4.42905E+01  3.246E-01  2.000E+01  2.000E+04 -1.470E+00
   1   16   11     1    11    3.9929E+05 -3.0134E+04   4.2943E+05  0.000E+00  0.000E+00  0.000E+00  4.38281E+01  3.394E-01  2.000E+01  2.000E+04 -1.507E+00
   1   16   12     1    12    4.2943E+05 -3.5747E+04   4.6517E+05  0.000E+00  0.000E+00  0.000E+00  4.33667E+01  3.554E-01  2.000E+01  2.000E+04 -1.787E+00
   1   15   13     1    13    4.6517E+05 -3.4591E+04   4.9976E+05  0.000E+00  0.000E+00  0.000E+00  4.29060E+01  3.719E-01  2.000E+01  2.000E+04 -1.730E+00
   1   14   14     1    14    4.9976E+05 -3.5205E+04   5.3497E+05  0.000E+00  0.000E+00  0.000E+00  4.24446E+01  3.878E-01  2.000E+01  2.000E+04 -1.760E+00
   1   13   15     1    15    5.3497E+05 -3.7403E+04   5.7237E+05  0.000E+00  0.000E+00  0.000E+00  4.19834E+01  4.039E-01  2.000E+01  2.000E+04 -1.870E+00
   1   12   16     1    16    5.7237E+05 -4.3346E+04   6.1572E+05  0.000E+00  0.000E+00  0.000E+00  4.15236E+01  4.213E-01  2.000E+01  2.000E+04 -2.167E+00
   1   12   17     1    17    6.1572E+05 -3.3882E+04   6.4960E+05  0.000E+00  0.000E+00  0.000E+00  4.10625E+01  4.375E-01  2.000E+01  2.000E+04 -1.694E+00
   1   12   18     1    18    6.4960E+05 -3.2234E+04   6.8183E+05  0.000E+00  0.000E+00  0.000E+00  4.05989E+01  4.511E-01  2.000E+01  2.000E+04 -1.612E+00
   1   12   19     1    19    6.8183E+05 -3.6238E+04   7.1807E+05  0.000E+00  0.000E+00  0.000E+00  4.01354E+01  4.649E-01  2.000E+01  2.000E+04 -1.812E+00
   1   13   20     1    20    7.1807E+05 -2.6695E+04   7.4477E+05  0.000E+00  0.000E+00  0.000E+00  3.96705E+01  4.773E-01  2.000E+01  2.000E+04 -1.335E+00
   1   14   21     1    21    7.4477E+05 -1.9725E+04   7.6449E+05  0.000E+00  0.000E+00  0.000E+00  3.92023E+01  4.864E-01  2.000E+01  2.000E+04 -9.863E-01
   1   14   22     1    22    7.6449E+05 -1.7717E+03   7.6626E+05  0.000E+00  0.000E+00  0.000E+00  3.87291E+01  4.905E-01  2.000E+01  2.000E+04 -8.859E-02
   1    9   30     2     1    5.0000E+04 -2.6476E+04   7.6476E+04  0.000E+00  0.000E+00  0.000E+00  4.02584E+01  1.334E-01  2.000E+01  2.000E+04 -1.324E+00
   1    9   29     2     2    7.6476E+04 -2.8921E+04   1.0540E+05  0.000E+00  0.000E+00  0.000E+00  4.00409E+01  1.659E-01  2.000E+01  2.000E+04 -1.446E+00
   1    9   28     2     3    1.0540E+05 -3.3151E+04   1.3855E+05  0.000E+00  0.000E+00  0.000E+00  3.98228E+01  1.978E-01  2.000E+01  2.000E+04 -1.658E+00
   1    9   27     2     4    1.3855E+05 -4.7115E+04   1.8566E+05  0.000E+00  0.000E+00  0.000E+00  3.96097E+01  2.347E-01  2.000E+01  2.000E+04 -2.356E+00
   1   10   26     2     5    1.8566E+05 -3.3132E+04   2.1879E+05  0.000E+00  0.000E+00  0.000E+00  3.93930E+01  2.680E-01  2.000E+01  2.000E+04 -1.657E+00
   1   11   25     2     6    2.1879E+05 -2.4838E+04   2.4363E+05  0.000E+00  0.000E+00  0.000E+00  3.91654E+01  2.904E-01  2.000E+01  2.000E+04 -1.242E+00
   1   12   24     2     7    2.4363E+05 -1.8340E+04   2.6197E+05  0.000E+00  0.000E+00  0.000E+00  3.89314E+01  3.064E-01  2.000E+01  2.000E+04 -9.170E-01
   1   13   23     2     8    2.6197E+05 -1.3070E+04   2.7504E+05  0.000E+00  0.000E+00  0.000E+00  3.86926E+01  3.176E-01  2.000E+01  2.000E+04 -6.535E-01
   1   14   22     2     9    2.7504E+05 -7.3578E+03   2.8240E+05  0.000E+00  0.000E+00  0.000E+00  3.84498E+01  3.248E-01  2.000E+01  2.000E+04 -3.679E-01
   1   14   22     3     1    1.0487E+06 -1.5367E+04   1.0640E+06  0.000E+00  0.000E+00  0.000E+00  3.80494E+01  4.938E-01  2.000E+01  2.000E+04 -7.683E-01
   1   15   23     3     2    1.0640E+06 -2.3755E+04   1.0878E+06  0.000E+00  0.000E+00  0.000E+00  3.71660E+01  4.993E-01  2.000E+01  2.000E+04 -1.188E+00
   1   15   24     3     3    1.0878E+06 -1.9779E+04   1.1076E+06  0.000E+00  0.000E+00  0.000E+00  3.62831E+01  5.053E-01  2.000E+01  2.000E+04 -9.890E-01
   1   15   25     3     4    1.1076E+06 -1.9377E+04   1.1269E+06  0.000E+00  0.000E+00  0.000E+00  3.53996E+01  5.107E-01  2.000E+01  2.000E+04 -9.688E-01
   1   15   26     3     5    1.1269E+06 -2.2141E+04   1.1491E+06  0.000E+00  0.000E+00  0.000E+00  3.45164E+01  5.164E-01  2.000E+01  2.000E+04 -1.107E+00
   1   16   27     3     6    1.1491E+06 -2.9336E+04   1.1784E+06  0.000E+00  0.000E+00  0.000E+00  3.36345E+01  5.234E-01  2.000E+01  2.000E+04 -1.467E+00
   1   17   28     3     7    1.1784E+06 -3.6403E+04   1.2148E+06  0.000E+00  0.000E+00  0.000E+00  3.27544E+01  5.322E-01  2.000E+01  2.000E+04 -1.820E+00
   1   18   29     3     8    1.2148E+06 -4.7395E+04   1.2622E+06  0.000E+00  0.000E+00  0.000E+00  3.18766E+01  5.433E-01  2.000E+01  2.000E+04 -2.370E+00
   1   18   30     3     9    1.2622E+06 -4.3806E+04   1.3060E+06  0.000E+00  0.000E+00  0.000E+00  3.09997E+01  5.552E-01  2.000E+01  2.000E+04 -2.190E+00



1
              HEAD IN LAYER   1 AT END OF TIME STEP   1 IN STRESS PERIOD    4
  ---------------------------------------------------------------------------

          1      2      3      4      5      6      7      8      9     10
         11     12     13     14     15     16     17     18     19     20
         21     22     23     24     25     26     27     28     29     30
 .........................................................................
   1  ****** ****** ****** ****** ****** ****** ****** ****** ****** ******
      ****** ****** ****** ****** ****** ****** ****** ****** ****** ******
      ****** ****** ****** ****** ****** ****** ****** ****** ****** ******
   2  ****** ****** ****** ****** ****** ****** ****** ****** ****** ******
      ****** ****** ****** ****** ****** ****** ****** ****** ****** ******
      ****** ****** ****** ****** ****** ****** ****** ****** ****** ******
   3  ****** ****** ****** ****** ****** ****** ****** ****** ****** ******
      ****** ****** ****** ****** ****** ****** ****** ****** ****** ******
      ****** ****** ****** ****** ****** ****** ****** ****** ****** ******
   4  ****** ****** ****** ****** ****** ****** ****** ****** ****** ******
      ****** ****** ****** ****** ****** ****** ****** ****** ****** ******
      ****** ****** ****** ****** ****** ****** ****** ****** ****** ******
   5  ****** ****** ****** ****** ****** ****** ****** ****** ****** ******
      ****** ****** ****** ****** ****** ****** ****** ****** ****** ******
      ****** ****** ****** ****** ****** ****** ****** ****** ****** ******
   6  ****** ****** ****** ****** ****** ****** ****** ****** ****** ******
      ****** ****** ****** ****** ****** ****** ****** ****** ****** ******
      ****** ****** ****** ****** ****** ****** ****** ****** ****** ******
   7  ****** ****** ****** ****** ****** ****** ****** ****** ****** ******
      ****** ****** ****** ****** ****** ****** ****** ****** ****** ******
      ****** ****** ****** ****** ****** ****** ****** ****** ****** ******
   8  ****** ****** ****** ****** ****** ****** ****** ****** ****** ******
      ****** ****** ****** ****** ****** ****** ****** ****** ****** ******
      ****** ****** ****** ****** ****** ****** ****** ****** ****** ******
   9  ****** ****** ****** ****** ****** ****** ****** ****** ****** ******
      ****** ****** ****** ****** ****** ****** ****** ****** ****** ******
      ****** ****** ****** ****** ****** ****** ****** ****** ****** ******
  10  ****** ****** ****** ****** ****** ****** ****** ****** ****** ******
      ****** ****** ****** ****** ****** ****** ****** ****** ****** ******
      ****** ****** ****** ****** ****** ****** ****** ****** ****** ******
  11  ****** ****** ****** ****** ****** ****** ****** ****** ****** ******
      ****** ****** ****** ****** ****** ****** ****** ****** ****** ******
      ****** ****** ****** ****** ****** ****** ****** ****** ****** ******
  12  ****** ****** ****** ****** ****** ****** ****** ****** ****** ******
      ****** ****** ****** ****** ****** ****** ****** ****** ****** ******
      ****** ****** ****** ****** ****** ****** ****** ****** ****** ******
  13  ****** ****** ****** ****** ****** ****** ****** ****** ****** ******
      ****** ****** ****** ****** ****** ****** ****** ****** ****** ******
      ****** ****** ****** ****** ****** ****** ****** ****** ****** ******
  14  ****** ****** ****** ****** ****** ****** ****** ****** ****** ******
      ****** ****** ****** ****** ****** ****** ****** ****** ****** ******
      ****** ****** ****** ****** ****** ****** ****** ****** ****** ******
  15  ****** ****** ****** ****** ****** ****** ****** ****** ****** ******
      ****** ****** ****** ****** ****** ****** ****** ****** ****** ******
      ****** ****** ****** ****** ****** ****** ****** ****** ****** ******
  16  ****** ****** ****** ****** ****** ****** ****** ****** ****** ******
      ****** ****** ****** ****** ****** ****** ****** ****** ****** ******
      ****** ****** ****** ****** ****** ****** ****** ****** ****** ******
  17  ****** ****** ****** ****** ****** ****** ****** ****** ****** ******
      ****** ****** ****** ****** ****** ****** ****** ****** ****** ******
      ****** ****** ****** ****** ****** ****** ****** ****** ****** ******
  18  ****** ****** ****** ****** ****** ****** ****** ****** ****** ******
      ****** ****** ****** ****** ****** ****** ****** ****** ****** ******
      ****** ****** ****** ****** ****** ****** ****** ****** ****** ******
  19  ****** ****** ****** ****** ****** ****** ****** ****** ****** ******
      ****** ****** ****** ****** ****** ****** ****** ****** ****** ******
      ****** ****** ****** ****** ****** ****** ****** ****** ****** ******
  20  ****** ****** ****** ****** ****** ****** ****** ****** ****** ******
      ****** ****** ****** ****** ****** ****** ****** ****** ****** ******
      ****** ****** ****** ****** ****** ****** ****** ****** ****** ******
  21  ****** ****** ****** ****** ****** ****** ****** ****** ****** ******
      ****** ****** ****** ****** ****** ****** ****** ****** ****** ******
      ****** ****** ****** ****** ****** ****** ****** ****** ****** ******
  22  ****** ****** ****** ****** ****** ****** ****** ****** ****** ******
      ****** ****** ****** ****** ****** ****** ****** ****** ****** ******
      ****** ****** ****** ****** ****** ****** ****** ****** ****** ******
  23  ****** ****** ****** ****** ****** ****** ****** ****** ****** ******
      ****** ****** ****** ****** ****** ****** ****** ****** ****** ******
      ****** ****** ****** ****** ****** ****** ****** ****** ****** ******
  24  ****** ****** ****** ****** ****** ****** ****** ****** ****** ******
      ****** ****** ****** ****** ****** ****** ****** ****** ****** ******
      ****** ****** ****** ****** ****** ****** ****** ****** ****** ******
  25  ****** ****** ****** ****** ****** ****** ****** ****** ****** ******
      ****** ****** ****** ****** ****** ****** ****** ****** ****** ******
      ****** ****** ****** ****** ****** ****** ****** ****** ****** ******

 HEAD WILL BE SAVED ON UNIT   51 AT END OF TIME STEP    1, STRESS PERIOD    4
1
  VOLUMETRIC BUDGET FOR ENTIRE MODEL AT END OF TIME STEP    1, STRESS PERIOD   4
  ------------------------------------------------------------------------------

     CUMULATIVE VOLUMES      L**3       RATES FOR THIS TIME STEP      L**3/T
     ------------------                 ------------------------

           IN:                                      IN:
           ---                                      ---
             STORAGE =    20291108.7911               STORAGE =        1491.0427
       CONSTANT HEAD =   437429866.3567         CONSTANT HEAD =     1208887.5667
               WELLS =           0.0000                 WELLS =           0.0000
            RECHARGE =     8804400.0000              RECHARGE =       27600.0000
      STREAM LEAKAGE =           0.0000        STREAM LEAKAGE =           0.0000

            TOTAL IN =   466525375.1478              TOTAL IN =     1237978.6094

          OUT:                                     OUT:
          ----                                     ----
             STORAGE =      323876.7015               STORAGE =        1953.9921
       CONSTANT HEAD =           0.0000         CONSTANT HEAD =           0.0000
               WELLS =    29200000.0000                 WELLS =       80000.0000
            RECHARGE =           0.0000              RECHARGE =           0.0000
      STREAM LEAKAGE =   437001504.4429        STREAM LEAKAGE =     1156024.6557

           TOTAL OUT =   466525381.1445             TOTAL OUT =     1237978.6479

            IN - OUT =          -5.9966              IN - OUT =      -3.8430E-02

 PERCENT DISCREPANCY =          -0.00     PERCENT DISCREPANCY =          -0.00






         TIME SUMMARY AT END OF TIME STEP    1 IN STRESS PERIOD    4
                    SECONDS     MINUTES      HOURS       DAYS        YEARS
                    -----------------------------------------------------------
   TIME STEP LENGTH 7.86240E+06 1.31040E+05  2184.0      91.000     0.24914    
 STRESS PERIOD TIME 7.86240E+06 1.31040E+05  2184.0      91.000     0.24914    
         TOTAL TIME 3.15360E+07 5.25600E+05  8760.0      365.00     0.99932    
1
1
                            STRESS PERIOD NO.    5, LENGTH =   92.00000    
                            -----------------------------------------------

                              NUMBER OF TIME STEPS =     1

                               MULTIPLIER FOR DELT =     1.500

                            INITIAL TIME STEP SIZE =   92.00000    

 WELL NO.  LAYER   ROW   COL   STRESS RATE         
 --------------------------------------------------
      1      1      2     21     -0.4767E+05
      2      1     23     19     -0.3233E+05

      2 WELLS

                 RECHARGE =  5.000000E-04

 REUSING STREAM SEGMENT DATA FROM LAST STRESS PERIOD
 
 SOLVING FOR HEAD 


     6 CALLS TO PCG ROUTINE FOR TIME STEP   1 IN STRESS PERIOD    5
    23 TOTAL ITERATIONS

 OUTPUT CONTROL FOR STRESS PERIOD    5   TIME STEP    1
    SAVE BUDGET
    SAVE HEAD FOR ALL LAYERS
    PRINT HEAD FOR ALL LAYERS
 UBDSV2 SAVING "STREAMFLOW OUT  " ON UNIT  50 AT TIME STEP  1, STRESS PERIOD   5



 STREAM LISTING     PERIOD      5   STEP        1

 LAYER ROW COL. STREAM  RCH.  FLOW INTO     FLOW TO   FLOW OUT OF   OVRLND.     DIRECT     STREAM       STREAM     STREAM     STREAM   STREAMBED  STREAMBED
                SEG.NO.  NO.  STRM. RCH.    AQUIFER    STRM. RCH.    RUNOFF     PRECIP       ET          HEAD       DEPTH      WIDTH   CONDCTNC.   GRADIENT

   1   13    1     1     1    1.0000E+05 -2.7620E+04   1.2762E+05  0.000E+00  0.000E+00  0.000E+00  4.84177E+01  1.563E-01  2.000E+01  2.000E+04 -1.381E+00
   1   13    2     1     2    1.2762E+05 -3.7338E+04   1.6496E+05  0.000E+00  0.000E+00  0.000E+00  4.79658E+01  1.817E-01  2.000E+01  2.000E+04 -1.867E+00
   1   14    3     1     3    1.6496E+05 -3.2776E+04   1.9773E+05  0.000E+00  0.000E+00  0.000E+00  4.75136E+01  2.067E-01  2.000E+01  2.000E+04 -1.639E+00
   1   15    4     1     4    1.9773E+05 -3.1988E+04   2.2972E+05  0.000E+00  0.000E+00  0.000E+00  4.70577E+01  2.282E-01  2.000E+01  2.000E+04 -1.599E+00
   1   16    5     1     5    2.2972E+05 -3.3496E+04   2.6322E+05  0.000E+00  0.000E+00  0.000E+00  4.66008E+01  2.485E-01  2.000E+01  2.000E+04 -1.675E+00
   1   16    6     1     6    2.6322E+05 -2.9308E+04   2.9253E+05  0.000E+00  0.000E+00  0.000E+00  4.61421E+01  2.671E-01  2.000E+01  2.000E+04 -1.465E+00
   1   16    7     1     7    2.9253E+05 -2.9153E+04   3.2168E+05  0.000E+00  0.000E+00  0.000E+00  4.56813E+01  2.836E-01  2.000E+01  2.000E+04 -1.458E+00
   1   16    8     1     8    3.2168E+05 -2.9346E+04   3.5102E+05  0.000E+00  0.000E+00  0.000E+00  4.52200E+01  2.995E-01  2.000E+01  2.000E+04 -1.467E+00
   1   16    9     1     9    3.5102E+05 -2.9427E+04   3.8045E+05  0.000E+00  0.000E+00  0.000E+00  4.47581E+01  3.149E-01  2.000E+01  2.000E+04 -1.471E+00
   1   16   10     1    10    3.8045E+05 -2.9445E+04   4.0990E+05  0.000E+00  0.000E+00  0.000E+00  4.42958E+01  3.299E-01  2.000E+01  2.000E+04 -1.472E+00
   1   16   11     1    11    4.0990E+05 -3.0014E+04   4.3991E+05  0.000E+00  0.000E+00  0.000E+00  4.38332E+01  3.446E-01  2.000E+01  2.000E+04 -1.501E+00
   1   16   12     1    12    4.3991E+05 -3.5396E+04   4.7531E+05  0.000E+00  0.000E+00  0.000E+00  4.33716E+01  3.603E-01  2.000E+01  2.000E+04 -1.770E+00
   1   15   13     1    13    4.7531E+05 -3.4139E+04   5.0945E+05  0.000E+00  0.000E+00  0.000E+00  4.29105E+01  3.764E-01  2.000E+01  2.000E+04 -1.707E+00
   1   14   14     1    14    5.0945E+05 -3.4740E+04   5.4418E+05  0.000E+00  0.000E+00  0.000E+00  4.24488E+01  3.920E-01  2.000E+01  2.000E+04 -1.737E+00
   1   13   15     1    15    5.4418E+05 -3.6979E+04   5.8116E+05  0.000E+00  0.000E+00  0.000E+00  4.19874E+01  4.078E-01  2.000E+01  2.000E+04 -1.849E+00
   1   12   16     1    16    5.8116E+05 -4.3012E+04   6.2418E+05  0.000E+00  0.000E+00  0.000E+00  4.15273E+01  4.250E-01  2.000E+01  2.000E+04 -2.151E+00
   1   12   17     1    17    6.2418E+05 -3.3568E+04   6.5774E+05  0.000E+00  0.000E+00  0.000E+00  4.10660E+01  4.410E-01  2.000E+01  2.000E+04 -1.678E+00
   1   12   18     1    18    6.5774E+05 -3.1919E+04   6.8966E+05  0.000E+00  0.000E+00  0.000E+00  4.06021E+01  4.544E-01  2.000E+01  2.000E+04 -1.596E+00
   1   12   19     1    19    6.8966E+05 -3.5913E+04   7.2558E+05  0.000E+00  0.000E+00  0.000E+00  4.01384E+01  4.680E-01  2.000E+01  2.000E+04 -1.796E+00
   1   13   20     1    20    7.2558E+05 -2.6254E+04   7.5183E+05  0.000E+00  0.000E+00  0.000E+00  3.96734E+01  4.802E-01  2.000E+01  2.000E+04 -1.313E+00
   1   14   21     1    21    7.5183E+05 -1.9183E+04   7.7101E+05  0.000E+00  0.000E+00  0.000E+00  3.92049E+01  4.890E-01  2.000E+01  2.000E+04 -9.592E-01
   1   14   22     1    22    7.7101E+05 -1.5676E+03   7.7258E+05  0.000E+00  0.000E+00  0.000E+00  3.87316E+01  4.930E-01  2.000E+01  2.000E+04 -7.838E-02
   1    9   30     2     1    5.0000E+04 -2.6331E+04   7.6331E+04  0.000E+00  0.000E+00  0.000E+00  4.02583E+01  1.333E-01  2.000E+01  2.000E+04 -1.317E+00
   1    9   29     2     2    7.6331E+04 -2.8776E+04   1.0511E+05  0.000E+00  0.000E+00  0.000E+00  4.00406E+01  1.656E-01  2.000E+01  2.000E+04 -1.439E+00
   1    9   28     2     3    1.0511E+05 -3.3002E+04   1.3811E+05  0.000E+00  0.000E+00  0.000E+00  3.98225E+01  1.975E-01  2.000E+01  2.000E+04 -1.650E+00
   1    9   27     2     4    1.3811E+05 -4.6934E+04   1.8504E+05  0.000E+00  0.000E+00  0.000E+00  3.96092E+01  2.342E-01  2.000E+01  2.000E+04 -2.347E+00
   1   10   26     2     5    1.8504E+05 -3.2940E+04   2.1798E+05  0.000E+00  0.000E+00  0.000E+00  3.93924E+01  2.674E-01  2.000E+01  2.000E+04 -1.647E+00
   1   11   25     2     6    2.1798E+05 -2.4649E+04   2.4263E+05  0.000E+00  0.000E+00  0.000E+00  3.91647E+01  2.897E-01  2.000E+01  2.000E+04 -1.232E+00
   1   12   24     2     7    2.4263E+05 -1.8161E+04   2.6079E+05  0.000E+00  0.000E+00  0.000E+00  3.89306E+01  3.056E-01  2.000E+01  2.000E+04 -9.080E-01
   1   13   23     2     8    2.6079E+05 -1.2898E+04   2.7369E+05  0.000E+00  0.000E+00  0.000E+00  3.86917E+01  3.167E-01  2.000E+01  2.000E+04 -6.449E-01
   1   14   22     2     9    2.7369E+05 -7.2229E+03   2.8091E+05  0.000E+00  0.000E+00  0.000E+00  3.84489E+01  3.239E-01  2.000E+01  2.000E+04 -3.611E-01
   1   14   22     3     1    1.0535E+06 -1.5185E+04   1.0687E+06  0.000E+00  0.000E+00  0.000E+00  3.80507E+01  4.952E-01  2.000E+01  2.000E+04 -7.593E-01
   1   15   23     3     2    1.0687E+06 -2.3186E+04   1.0919E+06  0.000E+00  0.000E+00  0.000E+00  3.71672E+01  5.005E-01  2.000E+01  2.000E+04 -1.159E+00
   1   15   24     3     3    1.0919E+06 -1.9394E+04   1.1113E+06  0.000E+00  0.000E+00  0.000E+00  3.62842E+01  5.064E-01  2.000E+01  2.000E+04 -9.697E-01
   1   15   25     3     4    1.1113E+06 -1.9068E+04   1.1303E+06  0.000E+00  0.000E+00  0.000E+00  3.54006E+01  5.117E-01  2.000E+01  2.000E+04 -9.534E-01
   1   15   26     3     5    1.1303E+06 -2.1864E+04   1.1522E+06  0.000E+00  0.000E+00  0.000E+00  3.45173E+01  5.173E-01  2.000E+01  2.000E+04 -1.093E+00
   1   16   27     3     6    1.1522E+06 -2.8964E+04   1.1812E+06  0.000E+00  0.000E+00  0.000E+00  3.36353E+01  5.242E-01  2.000E+01  2.000E+04 -1.448E+00
   1   17   28     3     7    1.1812E+06 -3.6023E+04   1.2172E+06  0.000E+00  0.000E+00  0.000E+00  3.27551E+01  5.329E-01  2.000E+01  2.000E+04 -1.801E+00
   1   18   29     3     8    1.2172E+06 -4.7037E+04   1.2642E+06  0.000E+00  0.000E+00  0.000E+00  3.18772E+01  5.439E-01  2.000E+01  2.000E+04 -2.352E+00
   1   18   30     3     9    1.2642E+06 -4.3551E+04   1.3078E+06  0.000E+00  0.000E+00  0.000E+00  3.10001E+01  5.557E-01  2.000E+01  2.000E+04 -2.178E+00



1
              HEAD IN LAYER   1 AT END OF TIME STEP   1 IN STRESS PERIOD    5
  ---------------------------------------------------------------------------

          1      2      3      4      5      6      7      8      9     10
         11     12     13     14     15     16     17     18     19     20
         21     22     23     24     25     26     27     28     29     30
 .........................................................................
   1  ****** ****** ****** ****** ****** ****** ****** ****** ****** ******
      ****** ****** ****** ****** ****** ****** ****** ****** ****** ******
      ****** ****** ****** ****** ****** ****** ****** ****** ****** ******
   2  ****** ****** ****** ****** ****** ****** ****** ****** ****** ******
      ****** ****** ****** ****** ****** ****** ****** ****** ****** ******
      ****** ****** ****** ****** ****** ****** ****** ****** ****** ******
   3  ****** ****** ****** ****** ****** ****** ****** ****** ****** ******
      ****** ****** ****** ****** ****** ****** ****** ****** ****** ******
      ****** ****** ****** ****** ****** ****** ****** ****** ****** ******
   4  ****** ****** ****** ****** ****** ****** ****** ****** ****** ******
      ****** ****** ****** ****** ****** ****** ****** ****** ****** ******
      ****** ****** ****** ****** ****** ****** ****** ****** ****** ******
   5  ****** ****** ****** ****** ****** ****** ****** ****** ****** ******
      ****** ****** ****** ****** ****** ****** ****** ****** ****** ******
      ****** ****** ****** ****** ****** ****** ****** ****** ****** ******
   6  ****** ****** ****** ****** ****** ****** ****** ****** ****** ******
      ****** ****** ****** ****** ****** ****** ****** ****** ****** ******
      ****** ****** ****** ****** ****** ****** ****** ****** ****** ******
   7  ****** ****** ****** ****** ****** ****** ****** ****** ****** ******
      ****** ****** ****** ****** ****** ****** ****** ****** ****** ******
      ****** ****** ****** ****** ****** ****** ****** ****** ****** ******
   8  ****** ****** ****** ****** ****** ****** ****** ****** ****** ******
      ****** ****** ****** ****** ****** ****** ****** ****** ****** ******
      ****** ****** ****** ****** ****** ****** ****** ****** ****** ******
   9  ****** ****** ****** ****** ****** ****** ****** ****** ****** ******
      ****** ****** ****** ****** ****** ****** ****** ****** ****** ******
      ****** ****** ****** ****** ****** ****** ****** ****** ****** ******
  10  ****** ****** ****** ****** ****** ****** ****** ****** ****** ******
      ****** ****** ****** ****** ****** ****** ****** ****** ****** ******
      ****** ****** ****** ****** ****** ****** ****** ****** ****** ******
  11  ****** ****** ****** ****** ****** ****** ****** ****** ****** ******
      ****** ****** ****** ****** ****** ****** ****** ****** ****** ******
      ****** ****** ****** ****** ****** ****** ****** ****** ****** ******
  12  ****** ****** ****** ****** ****** ****** ****** ****** ****** ******
      ****** ****** ****** ****** ****** ****** ****** ****** ****** ******
      ****** ****** ****** ****** ****** ****** ****** ****** ****** ******
  13  ****** ****** ****** ****** ****** ****** ****** ****** ****** ******
      ****** ****** ****** ****** ****** ****** ****** ****** ****** ******
      ****** ****** ****** ****** ****** ****** ****** ****** ****** ******
  14  ****** ****** ****** ****** ****** ****** ****** ****** ****** ******
      ****** ****** ****** ****** ****** ****** ****** ****** ****** ******
      ****** ****** ****** ****** ****** ****** ****** ****** ****** ******
  15  ****** ****** ****** ****** ****** ****** ****** ****** ****** ******
      ****** ****** ****** ****** ****** ****** ****** ****** ****** ******
      ****** ****** ****** ****** ****** ****** ****** ****** ****** ******
  16  ****** ****** ****** ****** ****** ****** ****** ****** ****** ******
      ****** ****** ****** ****** ****** ****** ****** ****** ****** ******
      ****** ****** ****** ****** ****** ****** ****** ****** ****** ******
  17  ****** ****** ****** ****** ****** ****** ****** ****** ****** ******
      ****** ****** ****** ****** ****** ****** ****** ****** ****** ******
      ****** ****** ****** ****** ****** ****** ****** ****** ****** ******
  18  ****** ****** ****** ****** ****** ****** ****** ****** ****** ******
      ****** ****** ****** ****** ****** ****** ****** ****** ****** ******
      ****** ****** ****** ****** ****** ****** ****** ****** ****** ******
  19  ****** ****** ****** ****** ****** ****** ****** ****** ****** ******
      ****** ****** ****** ****** ****** ****** ****** ****** ****** ******
      ****** ****** ****** ****** ****** ****** ****** ****** ****** ******
  20  ****** ****** ****** ****** ****** ****** ****** ****** ****** ******
      ****** ****** ****** ****** ****** ****** ****** ****** ****** ******
      ****** ****** ****** ****** ****** ****** ****** ****** ****** ******
  21  ****** ****** ****** ****** ****** ****** ****** ****** ****** ******
      ****** ****** ****** ****** ****** ****** ****** ****** ****** ******
      ****** ****** ****** ****** ****** ****** ****** ****** ****** ******
  22  ****** ****** ****** ****** ****** ****** ****** ****** ****** ******
      ****** ****** ****** ****** ****** ****** ****** ****** ****** ******
      ****** ****** ****** ****** ****** ****** ****** ****** ****** ******
  23  ****** ****** ****** ****** ****** ****** ****** ****** ****** ******
      ****** ****** ****** ****** ****** ****** ****** ****** ****** ******
      ****** ****** ****** ****** ****** ****** ****** ****** ****** ******
  24  ****** ****** ****** ****** ****** ****** ****** ****** ****** ******
      ****** ****** ****** ****** ****** ****** ****** ****** ****** ******
      ****** ****** ****** ****** ****** ****** ****** ****** ****** ******
  25  ****** ****** ****** ****** ****** ****** ****** ****** ****** ******
      ****** ****** ****** ****** ****** ****** ****** ****** ****** ******
      ****** ****** ****** ****** ****** ****** ****** ****** ****** ******

 HEAD WILL BE SAVED ON UNIT   51 AT END OF TIME STEP    1, STRESS PERIOD    5
1
  VOLUMETRIC BUDGET FOR ENTIRE MODEL AT END OF TIME STEP    1, STRESS PERIOD   5
  ------------------------------------------------------------------------------

     CUMULATIVE VOLUMES      L**3       RATES FOR THIS TIME STEP      L**3/T
     ------------------                 ------------------------

           IN:                                      IN:
           ---                                      ---
             STORAGE =    20426187.6502               STORAGE =        1468.2485
       CONSTANT HEAD =   550042257.0207         CONSTANT HEAD =     1224047.7246
               WELLS =           0.0000                 WELLS =           0.0000
            RECHARGE =    10074000.0000              RECHARGE =       13800.0000
      STREAM LEAKAGE =           0.0000        STREAM LEAKAGE =           0.0000

            TOTAL IN =   580542444.6709              TOTAL IN =     1239315.9731

          OUT:                                     OUT:
          ----                                     ----
             STORAGE =      466303.1494               STORAGE =        1548.1136
       CONSTANT HEAD =           0.0000         CONSTANT HEAD =           0.0000
               WELLS =    36560000.0000                 WELLS =       80000.0000
            RECHARGE =           0.0000              RECHARGE =           0.0000
      STREAM LEAKAGE =   543516143.4302        STREAM LEAKAGE =     1157767.8151

           TOTAL OUT =   580542446.5796             TOTAL OUT =     1239315.9286

            IN - OUT =          -1.9086              IN - OUT =       4.4435E-02

 PERCENT DISCREPANCY =          -0.00     PERCENT DISCREPANCY =           0.00






         TIME SUMMARY AT END OF TIME STEP    1 IN STRESS PERIOD    5
                    SECONDS     MINUTES      HOURS       DAYS        YEARS
                    -----------------------------------------------------------
   TIME STEP LENGTH 7.94880E+06 1.32480E+05  2208.0      92.000     0.25188    
 STRESS PERIOD TIME 7.94880E+06 1.32480E+05  2208.0      92.000     0.25188    
         TOTAL TIME 3.94848E+07 6.58080E+05  10968.      457.00      1.2512    
1
1
                            STRESS PERIOD NO.    6, LENGTH =   91.00000    
                            -----------------------------------------------

                              NUMBER OF TIME STEPS =     1

                               MULTIPLIER FOR DELT =     1.500

                            INITIAL TIME STEP SIZE =   91.00000    

 WELL NO.  LAYER   ROW   COL   STRESS RATE         
 --------------------------------------------------
      1      1      2     21     -0.4767E+05
      2      1     23     19       0.000    
      3      1     20      2     -0.3233E+05

      3 WELLS

                 RECHARGE =  2.000000E-03

 REUSING STREAM SEGMENT DATA FROM LAST STRESS PERIOD
 
 SOLVING FOR HEAD 


     6 CALLS TO PCG ROUTINE FOR TIME STEP   1 IN STRESS PERIOD    6
    22 TOTAL ITERATIONS

 OUTPUT CONTROL FOR STRESS PERIOD    6   TIME STEP    1
    SAVE BUDGET
    SAVE HEAD FOR ALL LAYERS
    PRINT HEAD FOR ALL LAYERS
 UBDSV2 SAVING "STREAMFLOW OUT  " ON UNIT  50 AT TIME STEP  1, STRESS PERIOD   6



 STREAM LISTING     PERIOD      6   STEP        1

 LAYER ROW COL. STREAM  RCH.  FLOW INTO     FLOW TO   FLOW OUT OF   OVRLND.     DIRECT     STREAM       STREAM     STREAM     STREAM   STREAMBED  STREAMBED
                SEG.NO.  NO.  STRM. RCH.    AQUIFER    STRM. RCH.    RUNOFF     PRECIP       ET          HEAD       DEPTH      WIDTH   CONDCTNC.   GRADIENT

   1   13    1     1     1    1.0000E+05 -2.7199E+04   1.2720E+05  0.000E+00  0.000E+00  0.000E+00  4.84175E+01  1.562E-01  2.000E+01  2.000E+04 -1.360E+00
   1   13    2     1     2    1.2720E+05 -3.7144E+04   1.6434E+05  0.000E+00  0.000E+00  0.000E+00  4.79654E+01  1.814E-01  2.000E+01  2.000E+04 -1.857E+00
   1   14    3     1     3    1.6434E+05 -3.1755E+04   1.9610E+05  0.000E+00  0.000E+00  0.000E+00  4.75128E+01  2.060E-01  2.000E+01  2.000E+04 -1.588E+00
   1   15    4     1     4    1.9610E+05 -3.0357E+04   2.2646E+05  0.000E+00  0.000E+00  0.000E+00  4.70561E+01  2.266E-01  2.000E+01  2.000E+04 -1.518E+00
   1   16    5     1     5    2.2646E+05 -3.1401E+04   2.5786E+05  0.000E+00  0.000E+00  0.000E+00  4.65982E+01  2.459E-01  2.000E+01  2.000E+04 -1.570E+00
   1   16    6     1     6    2.5786E+05 -2.8406E+04   2.8626E+05  0.000E+00  0.000E+00  0.000E+00  4.61387E+01  2.637E-01  2.000E+01  2.000E+04 -1.420E+00
   1   16    7     1     7    2.8626E+05 -2.8780E+04   3.1504E+05  0.000E+00  0.000E+00  0.000E+00  4.56777E+01  2.800E-01  2.000E+01  2.000E+04 -1.439E+00
   1   16    8     1     8    3.1504E+05 -2.9299E+04   3.4434E+05  0.000E+00  0.000E+00  0.000E+00  4.52164E+01  2.959E-01  2.000E+01  2.000E+04 -1.465E+00
   1   16    9     1     9    3.4434E+05 -2.9608E+04   3.7395E+05  0.000E+00  0.000E+00  0.000E+00  4.47547E+01  3.115E-01  2.000E+01  2.000E+04 -1.480E+00
   1   16   10     1    10    3.7395E+05 -2.9800E+04   4.0375E+05  0.000E+00  0.000E+00  0.000E+00  4.42926E+01  3.267E-01  2.000E+01  2.000E+04 -1.490E+00
   1   16   11     1    11    4.0375E+05 -3.0532E+04   4.3428E+05  0.000E+00  0.000E+00  0.000E+00  4.38304E+01  3.417E-01  2.000E+01  2.000E+04 -1.527E+00
   1   16   12     1    12    4.3428E+05 -3.6211E+04   4.7049E+05  0.000E+00  0.000E+00  0.000E+00  4.33692E+01  3.578E-01  2.000E+01  2.000E+04 -1.811E+00
   1   15   13     1    13    4.7049E+05 -3.5103E+04   5.0560E+05  0.000E+00  0.000E+00  0.000E+00  4.29085E+01  3.745E-01  2.000E+01  2.000E+04 -1.755E+00
   1   14   14     1    14    5.0560E+05 -3.5735E+04   5.4133E+05  0.000E+00  0.000E+00  0.000E+00  4.24473E+01  3.905E-01  2.000E+01  2.000E+04 -1.787E+00
   1   13   15     1    15    5.4133E+05 -3.7929E+04   5.7926E+05  0.000E+00  0.000E+00  0.000E+00  4.19863E+01  4.068E-01  2.000E+01  2.000E+04 -1.896E+00
   1   12   16     1    16    5.7926E+05 -4.3855E+04   6.2311E+05  0.000E+00  0.000E+00  0.000E+00  4.15266E+01  4.244E-01  2.000E+01  2.000E+04 -2.193E+00
   1   12   17     1    17    6.2311E+05 -3.4291E+04   6.5741E+05  0.000E+00  0.000E+00  0.000E+00  4.10657E+01  4.407E-01  2.000E+01  2.000E+04 -1.715E+00
   1   12   18     1    18    6.5741E+05 -3.2624E+04   6.9003E+05  0.000E+00  0.000E+00  0.000E+00  4.06021E+01  4.544E-01  2.000E+01  2.000E+04 -1.631E+00
   1   12   19     1    19    6.9003E+05 -3.6664E+04   7.2669E+05  0.000E+00  0.000E+00  0.000E+00  4.01387E+01  4.682E-01  2.000E+01  2.000E+04 -1.833E+00
   1   13   20     1    20    7.2669E+05 -2.7092E+04   7.5378E+05  0.000E+00  0.000E+00  0.000E+00  3.96740E+01  4.808E-01  2.000E+01  2.000E+04 -1.355E+00
   1   14   21     1    21    7.5378E+05 -2.0067E+04   7.7385E+05  0.000E+00  0.000E+00  0.000E+00  3.92058E+01  4.899E-01  2.000E+01  2.000E+04 -1.003E+00
   1   14   22     1    22    7.7385E+05 -1.8908E+03   7.7574E+05  0.000E+00  0.000E+00  0.000E+00  3.87328E+01  4.941E-01  2.000E+01  2.000E+04 -9.454E-02
   1    9   30     2     1    5.0000E+04 -2.6780E+04   7.6780E+04  0.000E+00  0.000E+00  0.000E+00  4.02586E+01  1.336E-01  2.000E+01  2.000E+04 -1.339E+00
   1    9   29     2     2    7.6780E+04 -2.9224E+04   1.0600E+05  0.000E+00  0.000E+00  0.000E+00  4.00414E+01  1.664E-01  2.000E+01  2.000E+04 -1.461E+00
   1    9   28     2     3    1.0600E+05 -3.3466E+04   1.3947E+05  0.000E+00  0.000E+00  0.000E+00  3.98236E+01  1.986E-01  2.000E+01  2.000E+04 -1.673E+00
   1    9   27     2     4    1.3947E+05 -4.7502E+04   1.8697E+05  0.000E+00  0.000E+00  0.000E+00  3.96106E+01  2.356E-01  2.000E+01  2.000E+04 -2.375E+00
   1   10   26     2     5    1.8697E+05 -3.3533E+04   2.2051E+05  0.000E+00  0.000E+00  0.000E+00  3.93942E+01  2.692E-01  2.000E+01  2.000E+04 -1.677E+00
   1   11   25     2     6    2.2051E+05 -2.5225E+04   2.4573E+05  0.000E+00  0.000E+00  0.000E+00  3.91668E+01  2.918E-01  2.000E+01  2.000E+04 -1.261E+00
   1   12   24     2     7    2.4573E+05 -1.8686E+04   2.6442E+05  0.000E+00  0.000E+00  0.000E+00  3.89330E+01  3.080E-01  2.000E+01  2.000E+04 -9.343E-01
   1   13   23     2     8    2.6442E+05 -1.3351E+04   2.7777E+05  0.000E+00  0.000E+00  0.000E+00  3.86945E+01  3.195E-01  2.000E+01  2.000E+04 -6.676E-01
   1   14   22     2     9    2.7777E+05 -7.5101E+03   2.8528E+05  0.000E+00  0.000E+00  0.000E+00  3.84518E+01  3.268E-01  2.000E+01  2.000E+04 -3.755E-01
   1   14   22     3     1    1.0610E+06 -1.5489E+04   1.0765E+06  0.000E+00  0.000E+00  0.000E+00  3.80529E+01  4.973E-01  2.000E+01  2.000E+04 -7.744E-01
   1   15   23     3     2    1.0765E+06 -2.4072E+04   1.1006E+06  0.000E+00  0.000E+00  0.000E+00  3.71695E+01  5.028E-01  2.000E+01  2.000E+04 -1.204E+00
   1   15   24     3     3    1.1006E+06 -2.0040E+04   1.1206E+06  0.000E+00  0.000E+00  0.000E+00  3.62867E+01  5.089E-01  2.000E+01  2.000E+04 -1.002E+00
   1   15   25     3     4    1.1206E+06 -1.9635E+04   1.1403E+06  0.000E+00  0.000E+00  0.000E+00  3.54032E+01  5.143E-01  2.000E+01  2.000E+04 -9.818E-01
   1   15   26     3     5    1.1403E+06 -2.2442E+04   1.1627E+06  0.000E+00  0.000E+00  0.000E+00  3.45201E+01  5.201E-01  2.000E+01  2.000E+04 -1.122E+00
   1   16   27     3     6    1.1627E+06 -2.9700E+04   1.1924E+06  0.000E+00  0.000E+00  0.000E+00  3.36382E+01  5.271E-01  2.000E+01  2.000E+04 -1.485E+00
   1   17   28     3     7    1.1924E+06 -3.6776E+04   1.2292E+06  0.000E+00  0.000E+00  0.000E+00  3.27582E+01  5.360E-01  2.000E+01  2.000E+04 -1.839E+00
   1   18   29     3     8    1.2292E+06 -4.7745E+04   1.2769E+06  0.000E+00  0.000E+00  0.000E+00  3.18805E+01  5.471E-01  2.000E+01  2.000E+04 -2.387E+00
   1   18   30     3     9    1.2769E+06 -4.4098E+04   1.3210E+06  0.000E+00  0.000E+00  0.000E+00  3.10035E+01  5.591E-01  2.000E+01  2.000E+04 -2.205E+00



1
              HEAD IN LAYER   1 AT END OF TIME STEP   1 IN STRESS PERIOD    6
  ---------------------------------------------------------------------------

          1      2      3      4      5      6      7      8      9     10
         11     12     13     14     15     16     17     18     19     20
         21     22     23     24     25     26     27     28     29     30
 .........................................................................
   1  ****** ****** ****** ****** ****** ****** ****** ****** ****** ******
      ****** ****** ****** ****** ****** ****** ****** ****** ****** ******
      ****** ****** ****** ****** ****** ****** ****** ****** ****** ******
   2  ****** ****** ****** ****** ****** ****** ****** ****** ****** ******
      ****** ****** ****** ****** ****** ****** ****** ****** ****** ******
      ****** ****** ****** ****** ****** ****** ****** ****** ****** ******
   3  ****** ****** ****** ****** ****** ****** ****** ****** ****** ******
      ****** ****** ****** ****** ****** ****** ****** ****** ****** ******
      ****** ****** ****** ****** ****** ****** ****** ****** ****** ******
   4  ****** ****** ****** ****** ****** ****** ****** ****** ****** ******
      ****** ****** ****** ****** ****** ****** ****** ****** ****** ******
      ****** ****** ****** ****** ****** ****** ****** ****** ****** ******
   5  ****** ****** ****** ****** ****** ****** ****** ****** ****** ******
      ****** ****** ****** ****** ****** ****** ****** ****** ****** ******
      ****** ****** ****** ****** ****** ****** ****** ****** ****** ******
   6  ****** ****** ****** ****** ****** ****** ****** ****** ****** ******
      ****** ****** ****** ****** ****** ****** ****** ****** ****** ******
      ****** ****** ****** ****** ****** ****** ****** ****** ****** ******
   7  ****** ****** ****** ****** ****** ****** ****** ****** ****** ******
      ****** ****** ****** ****** ****** ****** ****** ****** ****** ******
      ****** ****** ****** ****** ****** ****** ****** ****** ****** ******
   8  ****** ****** ****** ****** ****** ****** ****** ****** ****** ******
      ****** ****** ****** ****** ****** ****** ****** ****** ****** ******
      ****** ****** ****** ****** ****** ****** ****** ****** ****** ******
   9  ****** ****** ****** ****** ****** ****** ****** ****** ****** ******
      ****** ****** ****** ****** ****** ****** ****** ****** ****** ******
      ****** ****** ****** ****** ****** ****** ****** ****** ****** ******
  10  ****** ****** ****** ****** ****** ****** ****** ****** ****** ******
      ****** ****** ****** ****** ****** ****** ****** ****** ****** ******
      ****** ****** ****** ****** ****** ****** ****** ****** ****** ******
  11  ****** ****** ****** ****** ****** ****** ****** ****** ****** ******
      ****** ****** ****** ****** ****** ****** ****** ****** ****** ******
      ****** ****** ****** ****** ****** ****** ****** ****** ****** ******
  12  ****** ****** ****** ****** ****** ****** ****** ****** ****** ******
      ****** ****** ****** ****** ****** ****** ****** ****** ****** ******
      ****** ****** ****** ****** ****** ****** ****** ****** ****** ******
  13  ****** ****** ****** ****** ****** ****** ****** ****** ****** ******
      ****** ****** ****** ****** ****** ****** ****** ****** ****** ******
      ****** ****** ****** ****** ****** ****** ****** ****** ****** ******
  14  ****** ****** ****** ****** ****** ****** ****** ****** ****** ******
      ****** ****** ****** ****** ****** ****** ****** ****** ****** ******
      ****** ****** ****** ****** ****** ****** ****** ****** ****** ******
  15  ****** ****** ****** ****** ****** ****** ****** ****** ****** ******
      ****** ****** ****** ****** ****** ****** ****** ****** ****** ******
      ****** ****** ****** ****** ****** ****** ****** ****** ****** ******
  16  ****** ****** ****** ****** ****** ****** ****** ****** ****** ******
      ****** ****** ****** ****** ****** ****** ****** ****** ****** ******
      ****** ****** ****** ****** ****** ****** ****** ****** ****** ******
  17  ****** ****** ****** ****** ****** ****** ****** ****** ****** ******
      ****** ****** ****** ****** ****** ****** ****** ****** ****** ******
      ****** ****** ****** ****** ****** ****** ****** ****** ****** ******
  18  ****** ****** ****** ****** ****** ****** ****** ****** ****** ******
      ****** ****** ****** ****** ****** ****** ****** ****** ****** ******
      ****** ****** ****** ****** ****** ****** ****** ****** ****** ******
  19  ****** ****** ****** ****** ****** ****** ****** ****** ****** ******
      ****** ****** ****** ****** ****** ****** ****** ****** ****** ******
      ****** ****** ****** ****** ****** ****** ****** ****** ****** ******
  20  ****** ****** ****** ****** ****** ****** ****** ****** ****** ******
      ****** ****** ****** ****** ****** ****** ****** ****** ****** ******
      ****** ****** ****** ****** ****** ****** ****** ****** ****** ******
  21  ****** ****** ****** ****** ****** ****** ****** ****** ****** ******
      ****** ****** ****** ****** ****** ****** ****** ****** ****** ******
      ****** ****** ****** ****** ****** ****** ****** ****** ****** ******
  22  ****** ****** ****** ****** ****** ****** ****** ****** ****** ******
      ****** ****** ****** ****** ****** ****** ****** ****** ****** ******
      ****** ****** ****** ****** ****** ****** ****** ****** ****** ******
  23  ****** ****** ****** ****** ****** ****** ****** ****** ****** ******
      ****** ****** ****** ****** ****** ****** ****** ****** ****** ******
      ****** ****** ****** ****** ****** ****** ****** ****** ****** ******
  24  ****** ****** ****** ****** ****** ****** ****** ****** ****** ******
      ****** ****** ****** ****** ****** ****** ****** ****** ****** ******
      ****** ****** ****** ****** ****** ****** ****** ****** ****** ******
  25  ****** ****** ****** ****** ****** ****** ****** ****** ****** ******
      ****** ****** ****** ****** ****** ****** ****** ****** ****** ******
      ****** ****** ****** ****** ****** ****** ****** ****** ****** ******

 HEAD WILL BE SAVED ON UNIT   51 AT END OF TIME STEP    1, STRESS PERIOD    6
1
  VOLUMETRIC BUDGET FOR ENTIRE MODEL AT END OF TIME STEP    1, STRESS PERIOD   6
  ------------------------------------------------------------------------------

     CUMULATIVE VOLUMES      L**3       RATES FOR THIS TIME STEP      L**3/T
     ------------------                 ------------------------

           IN:                                      IN:
           ---                                      ---
             STORAGE =    20553760.2946               STORAGE =        1401.8972
       CONSTANT HEAD =   658976545.7250         CONSTANT HEAD =     1197080.0957
               WELLS =           0.0000                 WELLS =           0.0000
            RECHARGE =    15097200.0000              RECHARGE =       55200.0000
      STREAM LEAKAGE =           0.0000        STREAM LEAKAGE =           0.0000

            TOTAL IN =   694627506.0196              TOTAL IN =     1253681.9928

          OUT:                                     OUT:
          ----                                     ----
             STORAGE =      708979.9080               STORAGE =        2666.7776
       CONSTANT HEAD =           0.0000         CONSTANT HEAD =           0.0000
               WELLS =    43840000.0000                 WELLS =       80000.0000
            RECHARGE =           0.0000              RECHARGE =           0.0000
      STREAM LEAKAGE =   650078530.6413        STREAM LEAKAGE =     1171015.2441

           TOTAL OUT =   694627510.5493             TOTAL OUT =     1253682.0216

            IN - OUT =          -4.5297              IN - OUT =      -2.8803E-02

 PERCENT DISCREPANCY =          -0.00     PERCENT DISCREPANCY =          -0.00






         TIME SUMMARY AT END OF TIME STEP    1 IN STRESS PERIOD    6
                    SECONDS     MINUTES      HOURS       DAYS        YEARS
                    -----------------------------------------------------------
   TIME STEP LENGTH 7.86240E+06 1.31040E+05  2184.0      91.000     0.24914    
 STRESS PERIOD TIME 7.86240E+06 1.31040E+05  2184.0      91.000     0.24914    
         TOTAL TIME 4.73472E+07 7.89120E+05  13152.      548.00      1.5003    
1
1
                            STRESS PERIOD NO.    7, LENGTH =   91.00000    
                            -----------------------------------------------

                              NUMBER OF TIME STEPS =     1

                               MULTIPLIER FOR DELT =     1.500

                            INITIAL TIME STEP SIZE =   91.00000    

 WELL NO.  LAYER   ROW   COL   STRESS RATE         
 --------------------------------------------------
      1      1      2     21     -0.4767E+05
      2      1     23     19     -0.3233E+05

      2 WELLS

                 RECHARGE =   0.00000    

 REUSING STREAM SEGMENT DATA FROM LAST STRESS PERIOD
 
 SOLVING FOR HEAD 


     5 CALLS TO PCG ROUTINE FOR TIME STEP   1 IN STRESS PERIOD    7
    20 TOTAL ITERATIONS

 OUTPUT CONTROL FOR STRESS PERIOD    7   TIME STEP    1
    SAVE BUDGET
    SAVE HEAD FOR ALL LAYERS
    PRINT HEAD FOR ALL LAYERS
 UBDSV2 SAVING "STREAMFLOW OUT  " ON UNIT  50 AT TIME STEP  1, STRESS PERIOD   7



 STREAM LISTING     PERIOD      7   STEP        1

 LAYER ROW COL. STREAM  RCH.  FLOW INTO     FLOW TO   FLOW OUT OF   OVRLND.     DIRECT     STREAM       STREAM     STREAM     STREAM   STREAMBED  STREAMBED
                SEG.NO.  NO.  STRM. RCH.    AQUIFER    STRM. RCH.    RUNOFF     PRECIP       ET          HEAD       DEPTH      WIDTH   CONDCTNC.   GRADIENT

   1   13    1     1     1    1.0000E+05 -2.7425E+04   1.2743E+05  0.000E+00  0.000E+00  0.000E+00  4.84176E+01  1.562E-01  2.000E+01  2.000E+04 -1.371E+00
   1   13    2     1     2    1.2743E+05 -3.7107E+04   1.6453E+05  0.000E+00  0.000E+00  0.000E+00  4.79656E+01  1.815E-01  2.000E+01  2.000E+04 -1.855E+00
   1   14    3     1     3    1.6453E+05 -3.2546E+04   1.9708E+05  0.000E+00  0.000E+00  0.000E+00  4.75132E+01  2.064E-01  2.000E+01  2.000E+04 -1.627E+00
   1   15    4     1     4    1.9708E+05 -3.1765E+04   2.2884E+05  0.000E+00  0.000E+00  0.000E+00  4.70572E+01  2.277E-01  2.000E+01  2.000E+04 -1.588E+00
   1   16    5     1     5    2.2884E+05 -3.3293E+04   2.6214E+05  0.000E+00  0.000E+00  0.000E+00  4.66002E+01  2.479E-01  2.000E+01  2.000E+04 -1.665E+00
   1   16    6     1     6    2.6214E+05 -2.9132E+04   2.9127E+05  0.000E+00  0.000E+00  0.000E+00  4.61414E+01  2.664E-01  2.000E+01  2.000E+04 -1.457E+00
   1   16    7     1     7    2.9127E+05 -2.8980E+04   3.2025E+05  0.000E+00  0.000E+00  0.000E+00  4.56806E+01  2.828E-01  2.000E+01  2.000E+04 -1.449E+00
   1   16    8     1     8    3.2025E+05 -2.9172E+04   3.4942E+05  0.000E+00  0.000E+00  0.000E+00  4.52191E+01  2.987E-01  2.000E+01  2.000E+04 -1.459E+00
   1   16    9     1     9    3.4942E+05 -2.9254E+04   3.7867E+05  0.000E+00  0.000E+00  0.000E+00  4.47572E+01  3.141E-01  2.000E+01  2.000E+04 -1.463E+00
   1   16   10     1    10    3.7867E+05 -2.9272E+04   4.0795E+05  0.000E+00  0.000E+00  0.000E+00  4.42949E+01  3.290E-01  2.000E+01  2.000E+04 -1.464E+00
   1   16   11     1    11    4.0795E+05 -2.9839E+04   4.3779E+05  0.000E+00  0.000E+00  0.000E+00  4.38322E+01  3.436E-01  2.000E+01  2.000E+04 -1.492E+00
   1   16   12     1    12    4.3779E+05 -3.5192E+04   4.7298E+05  0.000E+00  0.000E+00  0.000E+00  4.33706E+01  3.592E-01  2.000E+01  2.000E+04 -1.760E+00
   1   15   13     1    13    4.7298E+05 -3.3915E+04   5.0689E+05  0.000E+00  0.000E+00  0.000E+00  4.29094E+01  3.753E-01  2.000E+01  2.000E+04 -1.696E+00
   1   14   14     1    14    5.0689E+05 -3.4509E+04   5.4140E+05  0.000E+00  0.000E+00  0.000E+00  4.24477E+01  3.908E-01  2.000E+01  2.000E+04 -1.725E+00
   1   13   15     1    15    5.4140E+05 -3.6750E+04   5.7815E+05  0.000E+00  0.000E+00  0.000E+00  4.19861E+01  4.066E-01  2.000E+01  2.000E+04 -1.838E+00
   1   12   16     1    16    5.7815E+05 -4.2792E+04   6.2094E+05  0.000E+00  0.000E+00  0.000E+00  4.15259E+01  4.237E-01  2.000E+01  2.000E+04 -2.140E+00
   1   12   17     1    17    6.2094E+05 -3.3389E+04   6.5433E+05  0.000E+00  0.000E+00  0.000E+00  4.10646E+01  4.396E-01  2.000E+01  2.000E+04 -1.669E+00
   1   12   18     1    18    6.5433E+05 -3.1748E+04   6.8608E+05  0.000E+00  0.000E+00  0.000E+00  4.06007E+01  4.529E-01  2.000E+01  2.000E+04 -1.587E+00
   1   12   19     1    19    6.8608E+05 -3.5725E+04   7.2181E+05  0.000E+00  0.000E+00  0.000E+00  4.01369E+01  4.665E-01  2.000E+01  2.000E+04 -1.786E+00
   1   13   20     1    20    7.2181E+05 -2.6077E+04   7.4788E+05  0.000E+00  0.000E+00  0.000E+00  3.96719E+01  4.787E-01  2.000E+01  2.000E+04 -1.304E+00
   1   14   21     1    21    7.4788E+05 -1.9030E+04   7.6691E+05  0.000E+00  0.000E+00  0.000E+00  3.92033E+01  4.874E-01  2.000E+01  2.000E+04 -9.515E-01
   1   14   22     1    22    7.6691E+05 -1.5130E+03   7.6843E+05  0.000E+00  0.000E+00  0.000E+00  3.87300E+01  4.914E-01  2.000E+01  2.000E+04 -7.565E-02
   1    9   30     2     1    5.0000E+04 -2.6191E+04   7.6191E+04  0.000E+00  0.000E+00  0.000E+00  4.02582E+01  1.332E-01  2.000E+01  2.000E+04 -1.310E+00
   1    9   29     2     2    7.6191E+04 -2.8636E+04   1.0483E+05  0.000E+00  0.000E+00  0.000E+00  4.00404E+01  1.654E-01  2.000E+01  2.000E+04 -1.432E+00
   1    9   28     2     3    1.0483E+05 -3.2858E+04   1.3768E+05  0.000E+00  0.000E+00  0.000E+00  3.98221E+01  1.971E-01  2.000E+01  2.000E+04 -1.643E+00
   1    9   27     2     4    1.3768E+05 -4.6759E+04   1.8444E+05  0.000E+00  0.000E+00  0.000E+00  3.96088E+01  2.338E-01  2.000E+01  2.000E+04 -2.338E+00
   1   10   26     2     5    1.8444E+05 -3.2758E+04   2.1720E+05  0.000E+00  0.000E+00  0.000E+00  3.93918E+01  2.668E-01  2.000E+01  2.000E+04 -1.638E+00
   1   11   25     2     6    2.1720E+05 -2.4473E+04   2.4167E+05  0.000E+00  0.000E+00  0.000E+00  3.91640E+01  2.890E-01  2.000E+01  2.000E+04 -1.224E+00
   1   12   24     2     7    2.4167E+05 -1.8003E+04   2.5968E+05  0.000E+00  0.000E+00  0.000E+00  3.89298E+01  3.048E-01  2.000E+01  2.000E+04 -9.001E-01
   1   13   23     2     8    2.5968E+05 -1.2770E+04   2.7245E+05  0.000E+00  0.000E+00  0.000E+00  3.86909E+01  3.159E-01  2.000E+01  2.000E+04 -6.385E-01
   1   14   22     2     9    2.7245E+05 -7.1545E+03   2.7960E+05  0.000E+00  0.000E+00  0.000E+00  3.84480E+01  3.230E-01  2.000E+01  2.000E+04 -3.577E-01
   1   14   22     3     1    1.0480E+06 -1.5130E+04   1.0632E+06  0.000E+00  0.000E+00  0.000E+00  3.80492E+01  4.936E-01  2.000E+01  2.000E+04 -7.565E-01
   1   15   23     3     2    1.0632E+06 -2.3043E+04   1.0862E+06  0.000E+00  0.000E+00  0.000E+00  3.71656E+01  4.990E-01  2.000E+01  2.000E+04 -1.152E+00
   1   15   24     3     3    1.0862E+06 -1.9275E+04   1.1055E+06  0.000E+00  0.000E+00  0.000E+00  3.62826E+01  5.048E-01  2.000E+01  2.000E+04 -9.637E-01
   1   15   25     3     4    1.1055E+06 -1.8949E+04   1.1244E+06  0.000E+00  0.000E+00  0.000E+00  3.53990E+01  5.101E-01  2.000E+01  2.000E+04 -9.474E-01
   1   15   26     3     5    1.1244E+06 -2.1725E+04   1.1461E+06  0.000E+00  0.000E+00  0.000E+00  3.45157E+01  5.157E-01  2.000E+01  2.000E+04 -1.086E+00
   1   16   27     3     6    1.1461E+06 -2.8797E+04   1.1749E+06  0.000E+00  0.000E+00  0.000E+00  3.36336E+01  5.225E-01  2.000E+01  2.000E+04 -1.440E+00
   1   17   28     3     7    1.1749E+06 -3.5852E+04   1.2108E+06  0.000E+00  0.000E+00  0.000E+00  3.27534E+01  5.312E-01  2.000E+01  2.000E+04 -1.793E+00
   1   18   29     3     8    1.2108E+06 -4.6877E+04   1.2577E+06  0.000E+00  0.000E+00  0.000E+00  3.18755E+01  5.422E-01  2.000E+01  2.000E+04 -2.344E+00
   1   18   30     3     9    1.2577E+06 -4.3416E+04   1.3011E+06  0.000E+00  0.000E+00  0.000E+00  3.09984E+01  5.540E-01  2.000E+01  2.000E+04 -2.171E+00



1
              HEAD IN LAYER   1 AT END OF TIME STEP   1 IN STRESS PERIOD    7
  ---------------------------------------------------------------------------

          1      2      3      4      5      6      7      8      9     10
         11     12     13     14     15     16     17     18     19     20
         21     22     23     24     25     26     27     28     29     30
 .........................................................................
   1  ****** ****** ****** ****** ****** ****** ****** ****** ****** ******
      ****** ****** ****** ****** ****** ****** ****** ****** ****** ******
      ****** ****** ****** ****** ****** ****** ****** ****** ****** ******
   2  ****** ****** ****** ****** ****** ****** ****** ****** ****** ******
      ****** ****** ****** ****** ****** ****** ****** ****** ****** ******
      ****** ****** ****** ****** ****** ****** ****** ****** ****** ******
   3  ****** ****** ****** ****** ****** ****** ****** ****** ****** ******
      ****** ****** ****** ****** ****** ****** ****** ****** ****** ******
      ****** ****** ****** ****** ****** ****** ****** ****** ****** ******
   4  ****** ****** ****** ****** ****** ****** ****** ****** ****** ******
      ****** ****** ****** ****** ****** ****** ****** ****** ****** ******
      ****** ****** ****** ****** ****** ****** ****** ****** ****** ******
   5  ****** ****** ****** ****** ****** ****** ****** ****** ****** ******
      ****** ****** ****** ****** ****** ****** ****** ****** ****** ******
      ****** ****** ****** ****** ****** ****** ****** ****** ****** ******
   6  ****** ****** ****** ****** ****** ****** ****** ****** ****** ******
      ****** ****** ****** ****** ****** ****** ****** ****** ****** ******
      ****** ****** ****** ****** ****** ****** ****** ****** ****** ******
   7  ****** ****** ****** ****** ****** ****** ****** ****** ****** ******
      ****** ****** ****** ****** ****** ****** ****** ****** ****** ******
      ****** ****** ****** ****** ****** ****** ****** ****** ****** ******
   8  ****** ****** ****** ****** ****** ****** ****** ****** ****** ******
      ****** ****** ****** ****** ****** ****** ****** ****** ****** ******
      ****** ****** ****** ****** ****** ****** ****** ****** ****** ******
   9  ****** ****** ****** ****** ****** ****** ****** ****** ****** ******
      ****** ****** ****** ****** ****** ****** ****** ****** ****** ******
      ****** ****** ****** ****** ****** ****** ****** ****** ****** ******
  10  ****** ****** ****** ****** ****** ****** ****** ****** ****** ******
      ****** ****** ****** ****** ****** ****** ****** ****** ****** ******
      ****** ****** ****** ****** ****** ****** ****** ****** ****** ******
  11  ****** ****** ****** ****** ****** ****** ****** ****** ****** ******
      ****** ****** ****** ****** ****** ****** ****** ****** ****** ******
      ****** ****** ****** ****** ****** ****** ****** ****** ****** ******
  12  ****** ****** ****** ****** ****** ****** ****** ****** ****** ******
      ****** ****** ****** ****** ****** ****** ****** ****** ****** ******
      ****** ****** ****** ****** ****** ****** ****** ****** ****** ******
  13  ****** ****** ****** ****** ****** ****** ****** ****** ****** ******
      ****** ****** ****** ****** ****** ****** ****** ****** ****** ******
      ****** ****** ****** ****** ****** ****** ****** ****** ****** ******
  14  ****** ****** ****** ****** ****** ****** ****** ****** ****** ******
      ****** ****** ****** ****** ****** ****** ****** ****** ****** ******
      ****** ****** ****** ****** ****** ****** ****** ****** ****** ******
  15  ****** ****** ****** ****** ****** ****** ****** ****** ****** ******
      ****** ****** ****** ****** ****** ****** ****** ****** ****** ******
      ****** ****** ****** ****** ****** ****** ****** ****** ****** ******
  16  ****** ****** ****** ****** ****** ****** ****** ****** ****** ******
      ****** ****** ****** ****** ****** ****** ****** ****** ****** ******
      ****** ****** ****** ****** ****** ****** ****** ****** ****** ******
  17  ****** ****** ****** ****** ****** ****** ****** ****** ****** ******
      ****** ****** ****** ****** ****** ****** ****** ****** ****** ******
      ****** ****** ****** ****** ****** ****** ****** ****** ****** ******
  18  ****** ****** ****** ****** ****** ****** ****** ****** ****** ******
      ****** ****** ****** ****** ****** ****** ****** ****** ****** ******
      ****** ****** ****** ****** ****** ****** ****** ****** ****** ******
  19  ****** ****** ****** ****** ****** ****** ****** ****** ****** ******
      ****** ****** ****** ****** ****** ****** ****** ****** ****** ******
      ****** ****** ****** ****** ****** ****** ****** ****** ****** ******
  20  ****** ****** ****** ****** ****** ****** ****** ****** ****** ******
      ****** ****** ****** ****** ****** ****** ****** ****** ****** ******
      ****** ****** ****** ****** ****** ****** ****** ****** ****** ******
  21  ****** ****** ****** ****** ****** ****** ****** ****** ****** ******
      ****** ****** ****** ****** ****** ****** ****** ****** ****** ******
      ****** ****** ****** ****** ****** ****** ****** ****** ****** ******
  22  ****** ****** ****** ****** ****** ****** ****** ****** ****** ******
      ****** ****** ****** ****** ****** ****** ****** ****** ****** ******
      ****** ****** ****** ****** ****** ****** ****** ****** ****** ******
  23  ****** ****** ****** ****** ****** ****** ****** ****** ****** ******
      ****** ****** ****** ****** ****** ****** ****** ****** ****** ******
      ****** ****** ****** ****** ****** ****** ****** ****** ****** ******
  24  ****** ****** ****** ****** ****** ****** ****** ****** ****** ******
      ****** ****** ****** ****** ****** ****** ****** ****** ****** ******
      ****** ****** ****** ****** ****** ****** ****** ****** ****** ******
  25  ****** ****** ****** ****** ****** ****** ****** ****** ****** ******
      ****** ****** ****** ****** ****** ****** ****** ****** ****** ******
      ****** ****** ****** ****** ****** ****** ****** ****** ****** ******

 HEAD WILL BE SAVED ON UNIT   51 AT END OF TIME STEP    1, STRESS PERIOD    7
1
  VOLUMETRIC BUDGET FOR ENTIRE MODEL AT END OF TIME STEP    1, STRESS PERIOD   7
  ------------------------------------------------------------------------------

     CUMULATIVE VOLUMES      L**3       RATES FOR THIS TIME STEP      L**3/T
     ------------------                 ------------------------

           IN:                                      IN:
           ---                                      ---
             STORAGE =    20843226.9752               STORAGE =        3180.9525
       CONSTANT HEAD =   770838001.0350         CONSTANT HEAD =     1229246.7616
               WELLS =           0.0000                 WELLS =           0.0000
            RECHARGE =    15097200.0000              RECHARGE =           0.0000
      STREAM LEAKAGE =           0.0000        STREAM LEAKAGE =           0.0000

            TOTAL IN =   806778428.0101              TOTAL IN =     1232427.7142

          OUT:                                     OUT:
          ----                                     ----
             STORAGE =      830663.0596               STORAGE =        1337.1775
       CONSTANT HEAD =           0.0000         CONSTANT HEAD =           0.0000
               WELLS =    51120000.0000                 WELLS =       80000.0000
            RECHARGE =           0.0000              RECHARGE =           0.0000
      STREAM LEAKAGE =   754827765.6252        STREAM LEAKAGE =     1151090.4943

           TOTAL OUT =   806778428.6848             TOTAL OUT =     1232427.6718

            IN - OUT =          -0.6747              IN - OUT =       4.2363E-02

 PERCENT DISCREPANCY =          -0.00     PERCENT DISCREPANCY =           0.00






         TIME SUMMARY AT END OF TIME STEP    1 IN STRESS PERIOD    7
                    SECONDS     MINUTES      HOURS       DAYS        YEARS
                    -----------------------------------------------------------
   TIME STEP LENGTH 7.86240E+06 1.31040E+05  2184.0      91.000     0.24914    
 STRESS PERIOD TIME 7.86240E+06 1.31040E+05  2184.0      91.000     0.24914    
         TOTAL TIME 5.52096E+07 9.20160E+05  15336.      639.00      1.7495    
1
1
                            STRESS PERIOD NO.    8, LENGTH =   91.00000    
                            -----------------------------------------------

                              NUMBER OF TIME STEPS =     1

                               MULTIPLIER FOR DELT =     1.500

                            INITIAL TIME STEP SIZE =   91.00000    

 WELL NO.  LAYER   ROW   COL   STRESS RATE         
 --------------------------------------------------
      1      1      2     21     -0.4767E+05
      2      1     23     19       0.000    
      3      1     20      2     -0.3233E+05

      3 WELLS

                 RECHARGE =  1.000000E-03

 REUSING STREAM SEGMENT DATA FROM LAST STRESS PERIOD
 
 SOLVING FOR HEAD 


     6 CALLS TO PCG ROUTINE FOR TIME STEP   1 IN STRESS PERIOD    8
    23 TOTAL ITERATIONS

 OUTPUT CONTROL FOR STRESS PERIOD    8   TIME STEP    1
    SAVE BUDGET
    SAVE HEAD FOR ALL LAYERS
    PRINT HEAD FOR ALL LAYERS
 UBDSV2 SAVING "STREAMFLOW OUT  " ON UNIT  50 AT TIME STEP  1, STRESS PERIOD   8



 STREAM LISTING     PERIOD      8   STEP        1

 LAYER ROW COL. STREAM  RCH.  FLOW INTO     FLOW TO   FLOW OUT OF   OVRLND.     DIRECT     STREAM       STREAM     STREAM     STREAM   STREAMBED  STREAMBED
                SEG.NO.  NO.  STRM. RCH.    AQUIFER    STRM. RCH.    RUNOFF     PRECIP       ET          HEAD       DEPTH      WIDTH   CONDCTNC.   GRADIENT

   1   13    1     1     1    1.0000E+05 -2.6745E+04   1.2675E+05  0.000E+00  0.000E+00  0.000E+00  4.84173E+01  1.560E-01  2.000E+01  2.000E+04 -1.337E+00
   1   13    2     1     2    1.2675E+05 -3.6601E+04   1.6335E+05  0.000E+00  0.000E+00  0.000E+00  4.79649E+01  1.808E-01  2.000E+01  2.000E+04 -1.830E+00
   1   14    3     1     3    1.6335E+05 -3.1226E+04   1.9457E+05  0.000E+00  0.000E+00  0.000E+00  4.75119E+01  2.051E-01  2.000E+01  2.000E+04 -1.561E+00
   1   15    4     1     4    1.9457E+05 -2.9850E+04   2.2442E+05  0.000E+00  0.000E+00  0.000E+00  4.70550E+01  2.254E-01  2.000E+01  2.000E+04 -1.492E+00
   1   16    5     1     5    2.2442E+05 -3.0945E+04   2.5537E+05  0.000E+00  0.000E+00  0.000E+00  4.65968E+01  2.445E-01  2.000E+01  2.000E+04 -1.547E+00
   1   16    6     1     6    2.5537E+05 -2.8009E+04   2.8338E+05  0.000E+00  0.000E+00  0.000E+00  4.61371E+01  2.621E-01  2.000E+01  2.000E+04 -1.400E+00
   1   16    7     1     7    2.8338E+05 -2.8386E+04   3.1176E+05  0.000E+00  0.000E+00  0.000E+00  4.56760E+01  2.783E-01  2.000E+01  2.000E+04 -1.419E+00
   1   16    8     1     8    3.1176E+05 -2.8904E+04   3.4067E+05  0.000E+00  0.000E+00  0.000E+00  4.52145E+01  2.941E-01  2.000E+01  2.000E+04 -1.445E+00
   1   16    9     1     9    3.4067E+05 -2.9214E+04   3.6988E+05  0.000E+00  0.000E+00  0.000E+00  4.47527E+01  3.095E-01  2.000E+01  2.000E+04 -1.461E+00
   1   16   10     1    10    3.6988E+05 -2.9406E+04   3.9929E+05  0.000E+00  0.000E+00  0.000E+00  4.42905E+01  3.246E-01  2.000E+01  2.000E+04 -1.470E+00
   1   16   11     1    11    3.9929E+05 -3.0134E+04   4.2942E+05  0.000E+00  0.000E+00  0.000E+00  4.38281E+01  3.394E-01  2.000E+01  2.000E+04 -1.507E+00
   1   16   12     1    12    4.2942E+05 -3.5747E+04   4.6517E+05  0.000E+00  0.000E+00  0.000E+00  4.33667E+01  3.554E-01  2.000E+01  2.000E+04 -1.787E+00
   1   15   13     1    13    4.6517E+05 -3.4590E+04   4.9976E+05  0.000E+00  0.000E+00  0.000E+00  4.29060E+01  3.719E-01  2.000E+01  2.000E+04 -1.729E+00
   1   14   14     1    14    4.9976E+05 -3.5204E+04   5.3496E+05  0.000E+00  0.000E+00  0.000E+00  4.24446E+01  3.878E-01  2.000E+01  2.000E+04 -1.760E+00
   1   13   15     1    15    5.3496E+05 -3.7402E+04   5.7236E+05  0.000E+00  0.000E+00  0.000E+00  4.19834E+01  4.039E-01  2.000E+01  2.000E+04 -1.870E+00
   1   12   16     1    16    5.7236E+05 -4.3345E+04   6.1571E+05  0.000E+00  0.000E+00  0.000E+00  4.15236E+01  4.213E-01  2.000E+01  2.000E+04 -2.167E+00
   1   12   17     1    17    6.1571E+05 -3.3881E+04   6.4959E+05  0.000E+00  0.000E+00  0.000E+00  4.10625E+01  4.375E-01  2.000E+01  2.000E+04 -1.694E+00
   1   12   18     1    18    6.4959E+05 -3.2233E+04   6.8182E+05  0.000E+00  0.000E+00  0.000E+00  4.05988E+01  4.511E-01  2.000E+01  2.000E+04 -1.612E+00
   1   12   19     1    19    6.8182E+05 -3.6238E+04   7.1806E+05  0.000E+00  0.000E+00  0.000E+00  4.01354E+01  4.649E-01  2.000E+01  2.000E+04 -1.812E+00
   1   13   20     1    20    7.1806E+05 -2.6695E+04   7.4475E+05  0.000E+00  0.000E+00  0.000E+00  3.96705E+01  4.773E-01  2.000E+01  2.000E+04 -1.335E+00
   1   14   21     1    21    7.4475E+05 -1.9725E+04   7.6448E+05  0.000E+00  0.000E+00  0.000E+00  3.92023E+01  4.864E-01  2.000E+01  2.000E+04 -9.863E-01
   1   14   22     1    22    7.6448E+05 -1.7717E+03   7.6625E+05  0.000E+00  0.000E+00  0.000E+00  3.87291E+01  4.905E-01  2.000E+01  2.000E+04 -8.858E-02
   1    9   30     2     1    5.0000E+04 -2.6476E+04   7.6476E+04  0.000E+00  0.000E+00  0.000E+00  4.02584E+01  1.334E-01  2.000E+01  2.000E+04 -1.324E+00
   1    9   29     2     2    7.6476E+04 -2.8920E+04   1.0540E+05  0.000E+00  0.000E+00  0.000E+00  4.00409E+01  1.659E-01  2.000E+01  2.000E+04 -1.446E+00
   1    9   28     2     3    1.0540E+05 -3.3151E+04   1.3855E+05  0.000E+00  0.000E+00  0.000E+00  3.98228E+01  1.978E-01  2.000E+01  2.000E+04 -1.658E+00
   1    9   27     2     4    1.3855E+05 -4.7115E+04   1.8566E+05  0.000E+00  0.000E+00  0.000E+00  3.96097E+01  2.347E-01  2.000E+01  2.000E+04 -2.356E+00
   1   10   26     2     5    1.8566E+05 -3.3131E+04   2.1879E+05  0.000E+00  0.000E+00  0.000E+00  3.93930E+01  2.680E-01  2.000E+01  2.000E+04 -1.657E+00
   1   11   25     2     6    2.1879E+05 -2.4838E+04   2.4363E+05  0.000E+00  0.000E+00  0.000E+00  3.91654E+01  2.904E-01  2.000E+01  2.000E+04 -1.242E+00
   1   12   24     2     7    2.4363E+05 -1.8340E+04   2.6197E+05  0.000E+00  0.000E+00  0.000E+00  3.89314E+01  3.064E-01  2.000E+01  2.000E+04 -9.170E-01
   1   13   23     2     8    2.6197E+05 -1.3070E+04   2.7504E+05  0.000E+00  0.000E+00  0.000E+00  3.86926E+01  3.176E-01  2.000E+01  2.000E+04 -6.535E-01
   1   14   22     2     9    2.7504E+05 -7.3577E+03   2.8240E+05  0.000E+00  0.000E+00  0.000E+00  3.84498E+01  3.248E-01  2.000E+01  2.000E+04 -3.679E-01
   1   14   22     3     1    1.0486E+06 -1.5367E+04   1.0640E+06  0.000E+00  0.000E+00  0.000E+00  3.80494E+01  4.938E-01  2.000E+01  2.000E+04 -7.683E-01
   1   15   23     3     2    1.0640E+06 -2.3755E+04   1.0878E+06  0.000E+00  0.000E+00  0.000E+00  3.71660E+01  4.993E-01  2.000E+01  2.000E+04 -1.188E+00
   1   15   24     3     3    1.0878E+06 -1.9779E+04   1.1075E+06  0.000E+00  0.000E+00  0.000E+00  3.62831E+01  5.053E-01  2.000E+01  2.000E+04 -9.889E-01
   1   15   25     3     4    1.1075E+06 -1.9377E+04   1.1269E+06  0.000E+00  0.000E+00  0.000E+00  3.53996E+01  5.107E-01  2.000E+01  2.000E+04 -9.688E-01
   1   15   26     3     5    1.1269E+06 -2.2141E+04   1.1491E+06  0.000E+00  0.000E+00  0.000E+00  3.45164E+01  5.164E-01  2.000E+01  2.000E+04 -1.107E+00
   1   16   27     3     6    1.1491E+06 -2.9336E+04   1.1784E+06  0.000E+00  0.000E+00  0.000E+00  3.36345E+01  5.234E-01  2.000E+01  2.000E+04 -1.467E+00
   1   17   28     3     7    1.1784E+06 -3.6403E+04   1.2148E+06  0.000E+00  0.000E+00  0.000E+00  3.27544E+01  5.322E-01  2.000E+01  2.000E+04 -1.820E+00
   1   18   29     3     8    1.2148E+06 -4.7395E+04   1.2622E+06  0.000E+00  0.000E+00  0.000E+00  3.18766E+01  5.433E-01  2.000E+01  2.000E+04 -2.370E+00
   1   18   30     3     9    1.2622E+06 -4.3806E+04   1.3060E+06  0.000E+00  0.000E+00  0.000E+00  3.09997E+01  5.552E-01  2.000E+01  2.000E+04 -2.190E+00



1
              HEAD IN LAYER   1 AT END OF TIME STEP   1 IN STRESS PERIOD    8
  ---------------------------------------------------------------------------

          1      2      3      4      5      6      7      8      9     10
         11     12     13     14     15     16     17     18     19     20
         21     22     23     24     25     26     27     28     29     30
 .........................................................................
   1  ****** ****** ****** ****** ****** ****** ****** ****** ****** ******
      ****** ****** ****** ****** ****** ****** ****** ****** ****** ******
      ****** ****** ****** ****** ****** ****** ****** ****** ****** ******
   2  ****** ****** ****** ****** ****** ****** ****** ****** ****** ******
      ****** ****** ****** ****** ****** ****** ****** ****** ****** ******
      ****** ****** ****** ****** ****** ****** ****** ****** ****** ******
   3  ****** ****** ****** ****** ****** ****** ****** ****** ****** ******
      ****** ****** ****** ****** ****** ****** ****** ****** ****** ******
      ****** ****** ****** ****** ****** ****** ****** ****** ****** ******
   4  ****** ****** ****** ****** ****** ****** ****** ****** ****** ******
      ****** ****** ****** ****** ****** ****** ****** ****** ****** ******
      ****** ****** ****** ****** ****** ****** ****** ****** ****** ******
   5  ****** ****** ****** ****** ****** ****** ****** ****** ****** ******
      ****** ****** ****** ****** ****** ****** ****** ****** ****** ******
      ****** ****** ****** ****** ****** ****** ****** ****** ****** ******
   6  ****** ****** ****** ****** ****** ****** ****** ****** ****** ******
      ****** ****** ****** ****** ****** ****** ****** ****** ****** ******
      ****** ****** ****** ****** ****** ****** ****** ****** ****** ******
   7  ****** ****** ****** ****** ****** ****** ****** ****** ****** ******
      ****** ****** ****** ****** ****** ****** ****** ****** ****** ******
      ****** ****** ****** ****** ****** ****** ****** ****** ****** ******
   8  ****** ****** ****** ****** ****** ****** ****** ****** ****** ******
      ****** ****** ****** ****** ****** ****** ****** ****** ****** ******
      ****** ****** ****** ****** ****** ****** ****** ****** ****** ******
   9  ****** ****** ****** ****** ****** ****** ****** ****** ****** ******
      ****** ****** ****** ****** ****** ****** ****** ****** ****** ******
      ****** ****** ****** ****** ****** ****** ****** ****** ****** ******
  10  ****** ****** ****** ****** ****** ****** ****** ****** ****** ******
      ****** ****** ****** ****** ****** ****** ****** ****** ****** ******
      ****** ****** ****** ****** ****** ****** ****** ****** ****** ******
  11  ****** ****** ****** ****** ****** ****** ****** ****** ****** ******
      ****** ****** ****** ****** ****** ****** ****** ****** ****** ******
      ****** ****** ****** ****** ****** ****** ****** ****** ****** ******
  12  ****** ****** ****** ****** ****** ****** ****** ****** ****** ******
      ****** ****** ****** ****** ****** ****** ****** ****** ****** ******
      ****** ****** ****** ****** ****** ****** ****** ****** ****** ******
  13  ****** ****** ****** ****** ****** ****** ****** ****** ****** ******
      ****** ****** ****** ****** ****** ****** ****** ****** ****** ******
      ****** ****** ****** ****** ****** ****** ****** ****** ****** ******
  14  ****** ****** ****** ****** ****** ****** ****** ****** ****** ******
      ****** ****** ****** ****** ****** ****** ****** ****** ****** ******
      ****** ****** ****** ****** ****** ****** ****** ****** ****** ******
  15  ****** ****** ****** ****** ****** ****** ****** ****** ****** ******
      ****** ****** ****** ****** ****** ****** ****** ****** ****** ******
      ****** ****** ****** ****** ****** ****** ****** ****** ****** ******
  16  ****** ****** ****** ****** ****** ****** ****** ****** ****** ******
      ****** ****** ****** ****** ****** ****** ****** ****** ****** ******
      ****** ****** ****** ****** ****** ****** ****** ****** ****** ******
  17  ****** ****** ****** ****** ****** ****** ****** ****** ****** ******
      ****** ****** ****** ****** ****** ****** ****** ****** ****** ******
      ****** ****** ****** ****** ****** ****** ****** ****** ****** ******
  18  ****** ****** ****** ****** ****** ****** ****** ****** ****** ******
      ****** ****** ****** ****** ****** ****** ****** ****** ****** ******
      ****** ****** ****** ****** ****** ****** ****** ****** ****** ******
  19  ****** ****** ****** ****** ****** ****** ****** ****** ****** ******
      ****** ****** ****** ****** ****** ****** ****** ****** ****** ******
      ****** ****** ****** ****** ****** ****** ****** ****** ****** ******
  20  ****** ****** ****** ****** ****** ****** ****** ****** ****** ******
      ****** ****** ****** ****** ****** ****** ****** ****** ****** ******
      ****** ****** ****** ****** ****** ****** ****** ****** ****** ******
  21  ****** ****** ****** ****** ****** ****** ****** ****** ****** ******
      ****** ****** ****** ****** ****** ****** ****** ****** ****** ******
      ****** ****** ****** ****** ****** ****** ****** ****** ****** ******
  22  ****** ****** ****** ****** ****** ****** ****** ****** ****** ******
      ****** ****** ****** ****** ****** ****** ****** ****** ****** ******
      ****** ****** ****** ****** ****** ****** ****** ****** ****** ******
  23  ****** ****** ****** ****** ****** ****** ****** ****** ****** ******
      ****** ****** ****** ****** ****** ****** ****** ****** ****** ******
      ****** ****** ****** ****** ****** ****** ****** ****** ****** ******
  24  ****** ****** ****** ****** ****** ****** ****** ****** ****** ******
      ****** ****** ****** ****** ****** ****** ****** ****** ****** ******
      ****** ****** ****** ****** ****** ****** ****** ****** ****** ******
  25  ****** ****** ****** ****** ****** ****** ****** ****** ****** ******
      ****** ****** ****** ****** ****** ****** ****** ****** ****** ******
      ****** ****** ****** ****** ****** ****** ****** ****** ****** ******

 HEAD WILL BE SAVED ON UNIT   51 AT END OF TIME STEP    1, STRESS PERIOD    8
1
  VOLUMETRIC BUDGET FOR ENTIRE MODEL AT END OF TIME STEP    1, STRESS PERIOD   8
  ------------------------------------------------------------------------------

     CUMULATIVE VOLUMES      L**3       RATES FOR THIS TIME STEP      L**3/T
     ------------------                 ------------------------

           IN:                                      IN:
           ---                                      ---
             STORAGE =    20978649.8292               STORAGE =        1488.1632
       CONSTANT HEAD =   880848175.2576         CONSTANT HEAD =     1208903.0134
               WELLS =           0.0000                 WELLS =           0.0000
            RECHARGE =    17608800.0000              RECHARGE =       27600.0000
      STREAM LEAKAGE =           0.0000        STREAM LEAKAGE =           0.0000

            TOTAL IN =   919435625.0868              TOTAL IN =     1237991.1767

          OUT:                                     OUT:
          ----                                     ----
             STORAGE =     1011209.9627               STORAGE =        1984.0319
       CONSTANT HEAD =           0.0000         CONSTANT HEAD =           0.0000
               WELLS =    58400000.0000                 WELLS =       80000.0000
            RECHARGE =           0.0000              RECHARGE =           0.0000
      STREAM LEAKAGE =   860024419.2614        STREAM LEAKAGE =     1156007.1828

           TOTAL OUT =   919435629.2241             TOTAL OUT =     1237991.2147

            IN - OUT =          -4.1373              IN - OUT =      -3.8051E-02

 PERCENT DISCREPANCY =          -0.00     PERCENT DISCREPANCY =          -0.00






         TIME SUMMARY AT END OF TIME STEP    1 IN STRESS PERIOD    8
                    SECONDS     MINUTES      HOURS       DAYS        YEARS
                    -----------------------------------------------------------
   TIME STEP LENGTH 7.86240E+06 1.31040E+05  2184.0      91.000     0.24914    
 STRESS PERIOD TIME 7.86240E+06 1.31040E+05  2184.0      91.000     0.24914    
         TOTAL TIME 6.30720E+07 1.05120E+06  17520.      730.00      1.9986    
1
1
                            STRESS PERIOD NO.    9, LENGTH =   92.00000    
                            -----------------------------------------------

                              NUMBER OF TIME STEPS =     1

                               MULTIPLIER FOR DELT =     1.500

                            INITIAL TIME STEP SIZE =   92.00000    

 WELL NO.  LAYER   ROW   COL   STRESS RATE         
 --------------------------------------------------
      1      1      2     21     -0.4767E+05
      2      1     23     19     -0.3233E+05

      2 WELLS

                 RECHARGE =  5.000000E-04

 REUSING STREAM SEGMENT DATA FROM LAST STRESS PERIOD
 
 SOLVING FOR HEAD 


     6 CALLS TO PCG ROUTINE FOR TIME STEP   1 IN STRESS PERIOD    9
    23 TOTAL ITERATIONS

 OUTPUT CONTROL FOR STRESS PERIOD    9   TIME STEP    1
    SAVE BUDGET
    SAVE HEAD FOR ALL LAYERS
    PRINT HEAD FOR ALL LAYERS
 UBDSV2 SAVING "STREAMFLOW OUT  " ON UNIT  50 AT TIME STEP  1, STRESS PERIOD   9



 STREAM LISTING     PERIOD      9   STEP        1

 LAYER ROW COL. STREAM  RCH.  FLOW INTO     FLOW TO   FLOW OUT OF   OVRLND.     DIRECT     STREAM       STREAM     STREAM     STREAM   STREAMBED  STREAMBED
                SEG.NO.  NO.  STRM. RCH.    AQUIFER    STRM. RCH.    RUNOFF     PRECIP       ET          HEAD       DEPTH      WIDTH   CONDCTNC.   GRADIENT

   1   13    1     1     1    1.0000E+05 -2.7620E+04   1.2762E+05  0.000E+00  0.000E+00  0.000E+00  4.84177E+01  1.563E-01  2.000E+01  2.000E+04 -1.381E+00
   1   13    2     1     2    1.2762E+05 -3.7338E+04   1.6496E+05  0.000E+00  0.000E+00  0.000E+00  4.79658E+01  1.817E-01  2.000E+01  2.000E+04 -1.867E+00
   1   14    3     1     3    1.6496E+05 -3.2775E+04   1.9773E+05  0.000E+00  0.000E+00  0.000E+00  4.75136E+01  2.067E-01  2.000E+01  2.000E+04 -1.639E+00
   1   15    4     1     4    1.9773E+05 -3.1988E+04   2.2972E+05  0.000E+00  0.000E+00  0.000E+00  4.70577E+01  2.282E-01  2.000E+01  2.000E+04 -1.599E+00
   1   16    5     1     5    2.2972E+05 -3.3496E+04   2.6322E+05  0.000E+00  0.000E+00  0.000E+00  4.66008E+01  2.485E-01  2.000E+01  2.000E+04 -1.675E+00
   1   16    6     1     6    2.6322E+05 -2.9308E+04   2.9253E+05  0.000E+00  0.000E+00  0.000E+00  4.61421E+01  2.671E-01  2.000E+01  2.000E+04 -1.465E+00
   1   16    7     1     7    2.9253E+05 -2.9153E+04   3.2168E+05  0.000E+00  0.000E+00  0.000E+00  4.56813E+01  2.836E-01  2.000E+01  2.000E+04 -1.458E+00
   1   16    8     1     8    3.2168E+05 -2.9346E+04   3.5102E+05  0.000E+00  0.000E+00  0.000E+00  4.52200E+01  2.995E-01  2.000E+01  2.000E+04 -1.467E+00
   1   16    9     1     9    3.5102E+05 -2.9427E+04   3.8045E+05  0.000E+00  0.000E+00  0.000E+00  4.47581E+01  3.149E-01  2.000E+01  2.000E+04 -1.471E+00
   1   16   10     1    10    3.8045E+05 -2.9445E+04   4.0990E+05  0.000E+00  0.000E+00  0.000E+00  4.42958E+01  3.299E-01  2.000E+01  2.000E+04 -1.472E+00
   1   16   11     1    11    4.0990E+05 -3.0014E+04   4.3991E+05  0.000E+00  0.000E+00  0.000E+00  4.38332E+01  3.446E-01  2.000E+01  2.000E+04 -1.501E+00
   1   16   12     1    12    4.3991E+05 -3.5396E+04   4.7531E+05  0.000E+00  0.000E+00  0.000E+00  4.33716E+01  3.603E-01  2.000E+01  2.000E+04 -1.770E+00
   1   15   13     1    13    4.7531E+05 -3.4139E+04   5.0944E+05  0.000E+00  0.000E+00  0.000E+00  4.29105E+01  3.764E-01  2.000E+01  2.000E+04 -1.707E+00
   1   14   14     1    14    5.0944E+05 -3.4740E+04   5.4418E+05  0.000E+00  0.000E+00  0.000E+00  4.24488E+01  3.920E-01  2.000E+01  2.000E+04 -1.737E+00
   1   13   15     1    15    5.4418E+05 -3.6979E+04   5.8116E+05  0.000E+00  0.000E+00  0.000E+00  4.19874E+01  4.078E-01  2.000E+01  2.000E+04 -1.849E+00
   1   12   16     1    16    5.8116E+05 -4.3012E+04   6.2417E+05  0.000E+00  0.000E+00  0.000E+00  4.15273E+01  4.250E-01  2.000E+01  2.000E+04 -2.151E+00
   1   12   17     1    17    6.2417E+05 -3.3568E+04   6.5774E+05  0.000E+00  0.000E+00  0.000E+00  4.10660E+01  4.410E-01  2.000E+01  2.000E+04 -1.678E+00
   1   12   18     1    18    6.5774E+05 -3.1919E+04   6.8966E+05  0.000E+00  0.000E+00  0.000E+00  4.06021E+01  4.544E-01  2.000E+01  2.000E+04 -1.596E+00
   1   12   19     1    19    6.8966E+05 -3.5913E+04   7.2557E+05  0.000E+00  0.000E+00  0.000E+00  4.01384E+01  4.680E-01  2.000E+01  2.000E+04 -1.796E+00
   1   13   20     1    20    7.2557E+05 -2.6254E+04   7.5183E+05  0.000E+00  0.000E+00  0.000E+00  3.96734E+01  4.802E-01  2.000E+01  2.000E+04 -1.313E+00
   1   14   21     1    21    7.5183E+05 -1.9183E+04   7.7101E+05  0.000E+00  0.000E+00  0.000E+00  3.92049E+01  4.890E-01  2.000E+01  2.000E+04 -9.592E-01
   1   14   22     1    22    7.7101E+05 -1.5676E+03   7.7258E+05  0.000E+00  0.000E+00  0.000E+00  3.87316E+01  4.930E-01  2.000E+01  2.000E+04 -7.838E-02
   1    9   30     2     1    5.0000E+04 -2.6331E+04   7.6331E+04  0.000E+00  0.000E+00  0.000E+00  4.02583E+01  1.333E-01  2.000E+01  2.000E+04 -1.317E+00
   1    9   29     2     2    7.6331E+04 -2.8776E+04   1.0511E+05  0.000E+00  0.000E+00  0.000E+00  4.00406E+01  1.656E-01  2.000E+01  2.000E+04 -1.439E+00
   1    9   28     2     3    1.0511E+05 -3.3002E+04   1.3811E+05  0.000E+00  0.000E+00  0.000E+00  3.98225E+01  1.975E-01  2.000E+01  2.000E+04 -1.650E+00
   1    9   27     2     4    1.3811E+05 -4.6934E+04   1.8504E+05  0.000E+00  0.000E+00  0.000E+00  3.96092E+01  2.342E-01  2.000E+01  2.000E+04 -2.347E+00
   1   10   26     2     5    1.8504E+05 -3.2940E+04   2.1798E+05  0.000E+00  0.000E+00  0.000E+00  3.93924E+01  2.674E-01  2.000E+01  2.000E+04 -1.647E+00
   1   11   25     2     6    2.1798E+05 -2.4649E+04   2.4263E+05  0.000E+00  0.000E+00  0.000E+00  3.91647E+01  2.897E-01  2.000E+01  2.000E+04 -1.232E+00
   1   12   24     2     7    2.4263E+05 -1.8161E+04   2.6079E+05  0.000E+00  0.000E+00  0.000E+00  3.89306E+01  3.056E-01  2.000E+01  2.000E+04 -9.080E-01
   1   13   23     2     8    2.6079E+05 -1.2898E+04   2.7369E+05  0.000E+00  0.000E+00  0.000E+00  3.86917E+01  3.167E-01  2.000E+01  2.000E+04 -6.449E-01
   1   14   22     2     9    2.7369E+05 -7.2228E+03   2.8091E+05  0.000E+00  0.000E+00  0.000E+00  3.84489E+01  3.239E-01  2.000E+01  2.000E+04 -3.611E-01
   1   14   22     3     1    1.0535E+06 -1.5185E+04   1.0687E+06  0.000E+00  0.000E+00  0.000E+00  3.80507E+01  4.952E-01  2.000E+01  2.000E+04 -7.593E-01
   1   15   23     3     2    1.0687E+06 -2.3186E+04   1.0919E+06  0.000E+00  0.000E+00  0.000E+00  3.71672E+01  5.005E-01  2.000E+01  2.000E+04 -1.159E+00
   1   15   24     3     3    1.0919E+06 -1.9394E+04   1.1113E+06  0.000E+00  0.000E+00  0.000E+00  3.62842E+01  5.064E-01  2.000E+01  2.000E+04 -9.697E-01
   1   15   25     3     4    1.1113E+06 -1.9068E+04   1.1303E+06  0.000E+00  0.000E+00  0.000E+00  3.54006E+01  5.117E-01  2.000E+01  2.000E+04 -9.534E-01
   1   15   26     3     5    1.1303E+06 -2.1864E+04   1.1522E+06  0.000E+00  0.000E+00  0.000E+00  3.45173E+01  5.173E-01  2.000E+01  2.000E+04 -1.093E+00
   1   16   27     3     6    1.1522E+06 -2.8964E+04   1.1812E+06  0.000E+00  0.000E+00  0.000E+00  3.36353E+01  5.242E-01  2.000E+01  2.000E+04 -1.448E+00
   1   17   28     3     7    1.1812E+06 -3.6023E+04   1.2172E+06  0.000E+00  0.000E+00  0.000E+00  3.27551E+01  5.329E-01  2.000E+01  2.000E+04 -1.801E+00
   1   18   29     3     8    1.2172E+06 -4.7037E+04   1.2642E+06  0.000E+00  0.000E+00  0.000E+00  3.18772E+01  5.439E-01  2.000E+01  2.000E+04 -2.352E+00
   1   18   30     3     9    1.2642E+06 -4.3551E+04   1.3078E+06  0.000E+00  0.000E+00  0.000E+00  3.10001E+01  5.557E-01  2.000E+01  2.000E+04 -2.178E+00



1
              HEAD IN LAYER   1 AT END OF TIME STEP   1 IN STRESS PERIOD    9
  ---------------------------------------------------------------------------

          1      2      3      4      5      6      7      8      9     10
         11     12     13     14     15     16     17     18     19     20
         21     22     23     24     25     26     27     28     29     30
 .........................................................................
   1  ****** ****** ****** ****** ****** ****** ****** ****** ****** ******
      ****** ****** ****** ****** ****** ****** ****** ****** ****** ******
      ****** ****** ****** ****** ****** ****** ****** ****** ****** ******
   2  ****** ****** ****** ****** ****** ****** ****** ****** ****** ******
      ****** ****** ****** ****** ****** ****** ****** ****** ****** ******
      ****** ****** ****** ****** ****** ****** ****** ****** ****** ******
   3  ****** ****** ****** ****** ****** ****** ****** ****** ****** ******
      ****** ****** ****** ****** ****** ****** ****** ****** ****** ******
      ****** ****** ****** ****** ****** ****** ****** ****** ****** ******
   4  ****** ****** ****** ****** ****** ****** ****** ****** ****** ******
      ****** ****** ****** ****** ****** ****** ****** ****** ****** ******
      ****** ****** ****** ****** ****** ****** ****** ****** ****** ******
   5  ****** ****** ****** ****** ****** ****** ****** ****** ****** ******
      ****** ****** ****** ****** ****** ****** ****** ****** ****** ******
      ****** ****** ****** ****** ****** ****** ****** ****** ****** ******
   6  ****** ****** ****** ****** ****** ****** ****** ****** ****** ******
      ****** ****** ****** ****** ****** ****** ****** ****** ****** ******
      ****** ****** ****** ****** ****** ****** ****** ****** ****** ******
   7  ****** ****** ****** ****** ****** ****** ****** ****** ****** ******
      ****** ****** ****** ****** ****** ****** ****** ****** ****** ******
      ****** ****** ****** ****** ****** ****** ****** ****** ****** ******
   8  ****** ****** ****** ****** ****** ****** ****** ****** ****** ******
      ****** ****** ****** ****** ****** ****** ****** ****** ****** ******
      ****** ****** ****** ****** ****** ****** ****** ****** ****** ******
   9  ****** ****** ****** ****** ****** ****** ****** ****** ****** ******
      ****** ****** ****** ****** ****** ****** ****** ****** ****** ******
      ****** ****** ****** ****** ****** ****** ****** ****** ****** ******
  10  ****** ****** ****** ****** ****** ****** ****** ****** ****** ******
      ****** ****** ****** ****** ****** ****** ****** ****** ****** ******
      ****** ****** ****** ****** ****** ****** ****** ****** ****** ******
  11  ****** ****** ****** ****** ****** ****** ****** ****** ****** ******
      ****** ****** ****** ****** ****** ****** ****** ****** ****** ******
      ****** ****** ****** ****** ****** ****** ****** ****** ****** ******
  12  ****** ****** ****** ****** ****** ****** ****** ****** ****** ******
      ****** ****** ****** ****** ****** ****** ****** ****** ****** ******
      ****** ****** ****** ****** ****** ****** ****** ****** ****** ******
  13  ****** ****** ****** ****** ****** ****** ****** ****** ****** ******
      ****** ****** ****** ****** ****** ****** ****** ****** ****** ******
      ****** ****** ****** ****** ****** ****** ****** ****** ****** ******
  14  ****** ****** ****** ****** ****** ****** ****** ****** ****** ******
      ****** ****** ****** ****** ****** ****** ****** ****** ****** ******
      ****** ****** ****** ****** ****** ****** ****** ****** ****** ******
  15  ****** ****** ****** ****** ****** ****** ****** ****** ****** ******
      ****** ****** ****** ****** ****** ****** ****** ****** ****** ******
      ****** ****** ****** ****** ****** ****** ****** ****** ****** ******
  16  ****** ****** ****** ****** ****** ****** ****** ****** ****** ******
      ****** ****** ****** ****** ****** ****** ****** ****** ****** ******
      ****** ****** ****** ****** ****** ****** ****** ****** ****** ******
  17  ****** ****** ****** ****** ****** ****** ****** ****** ****** ******
      ****** ****** ****** ****** ****** ****** ****** ****** ****** ******
      ****** ****** ****** ****** ****** ****** ****** ****** ****** ******
  18  ****** ****** ****** ****** ****** ****** ****** ****** ****** ******
      ****** ****** ****** ****** ****** ****** ****** ****** ****** ******
      ****** ****** ****** ****** ****** ****** ****** ****** ****** ******
  19  ****** ****** ****** ****** ****** ****** ****** ****** ****** ******
      ****** ****** ****** ****** ****** ****** ****** ****** ****** ******
      ****** ****** ****** ****** ****** ****** ****** ****** ****** ******
  20  ****** ****** ****** ****** ****** ****** ****** ****** ****** ******
      ****** ****** ****** ****** ****** ****** ****** ****** ****** ******
      ****** ****** ****** ****** ****** ****** ****** ****** ****** ******
  21  ****** ****** ****** ****** ****** ****** ****** ****** ****** ******
      ****** ****** ****** ****** ****** ****** ****** ****** ****** ******
      ****** ****** ****** ****** ****** ****** ****** ****** ****** ******
  22  ****** ****** ****** ****** ****** ****** ****** ****** ****** ******
      ****** ****** ****** ****** ****** ****** ****** ****** ****** ******
      ****** ****** ****** ****** ****** ****** ****** ****** ****** ******
  23  ****** ****** ****** ****** ****** ****** ****** ****** ****** ******
      ****** ****** ****** ****** ****** ****** ****** ****** ****** ******
      ****** ****** ****** ****** ****** ****** ****** ****** ****** ******
  24  ****** ****** ****** ****** ****** ****** ****** ****** ****** ******
      ****** ****** ****** ****** ****** ****** ****** ****** ****** ******
      ****** ****** ****** ****** ****** ****** ****** ****** ****** ******
  25  ****** ****** ****** ****** ****** ****** ****** ****** ****** ******
      ****** ****** ****** ****** ****** ****** ****** ****** ****** ******
      ****** ****** ****** ****** ****** ****** ****** ****** ****** ******

 HEAD WILL BE SAVED ON UNIT   51 AT END OF TIME STEP    1, STRESS PERIOD    9
1
  VOLUMETRIC BUDGET FOR ENTIRE MODEL AT END OF TIME STEP    1, STRESS PERIOD   9
  ------------------------------------------------------------------------------

     CUMULATIVE VOLUMES      L**3       RATES FOR THIS TIME STEP      L**3/T
     ------------------                 ------------------------

           IN:                                      IN:
           ---                                      ---
             STORAGE =    21113553.6240               STORAGE =        1466.3456
       CONSTANT HEAD =   993460657.9470         CONSTANT HEAD =     1224048.7249
               WELLS =           0.0000                 WELLS =           0.0000
            RECHARGE =    18878400.0000              RECHARGE =       13800.0000
      STREAM LEAKAGE =           0.0000        STREAM LEAKAGE =           0.0000

            TOTAL IN =  1033452611.5711              TOTAL IN =     1239315.0705

          OUT:                                     OUT:
          ----                                     ----
             STORAGE =     1153655.3640               STORAGE =        1548.3196
       CONSTANT HEAD =           0.0000         CONSTANT HEAD =           0.0000
               WELLS =    65760000.0000                 WELLS =       80000.0000
            RECHARGE =           0.0000              RECHARGE =           0.0000
      STREAM LEAKAGE =   966538956.2553        STREAM LEAKAGE =     1157766.7065

           TOTAL OUT =  1033452611.6194             TOTAL OUT =     1239315.0260

            IN - OUT =      -4.8302E-02              IN - OUT =       4.4445E-02

 PERCENT DISCREPANCY =          -0.00     PERCENT DISCREPANCY =           0.00






         TIME SUMMARY AT END OF TIME STEP    1 IN STRESS PERIOD    9
                    SECONDS     MINUTES      HOURS       DAYS        YEARS
                    -----------------------------------------------------------
   TIME STEP LENGTH 7.94880E+06 1.32480E+05  2208.0      92.000     0.25188    
 STRESS PERIOD TIME 7.94880E+06 1.32480E+05  2208.0      92.000     0.25188    
         TOTAL TIME 7.10208E+07 1.18368E+06  19728.      822.00      2.2505    
1
1
                            STRESS PERIOD NO.   10, LENGTH =   91.00000    
                            -----------------------------------------------

                              NUMBER OF TIME STEPS =     1

                               MULTIPLIER FOR DELT =     1.500

                            INITIAL TIME STEP SIZE =   91.00000    

 WELL NO.  LAYER   ROW   COL   STRESS RATE         
 --------------------------------------------------
      1      1      2     21     -0.4767E+05
      2      1     23     19       0.000    
      3      1     20      2     -0.3233E+05

      3 WELLS

                 RECHARGE =  2.000000E-03

 REUSING STREAM SEGMENT DATA FROM LAST STRESS PERIOD
 
 SOLVING FOR HEAD 


     6 CALLS TO PCG ROUTINE FOR TIME STEP   1 IN STRESS PERIOD   10
    22 TOTAL ITERATIONS

 OUTPUT CONTROL FOR STRESS PERIOD   10   TIME STEP    1
    SAVE BUDGET
    SAVE HEAD FOR ALL LAYERS
    PRINT HEAD FOR ALL LAYERS
 UBDSV2 SAVING "STREAMFLOW OUT  " ON UNIT  50 AT TIME STEP  1, STRESS PERIOD  10



 STREAM LISTING     PERIOD     10   STEP        1

 LAYER ROW COL. STREAM  RCH.  FLOW INTO     FLOW TO   FLOW OUT OF   OVRLND.     DIRECT     STREAM       STREAM     STREAM     STREAM   STREAMBED  STREAMBED
                SEG.NO.  NO.  STRM. RCH.    AQUIFER    STRM. RCH.    RUNOFF     PRECIP       ET          HEAD       DEPTH      WIDTH   CONDCTNC.   GRADIENT

   1   13    1     1     1    1.0000E+05 -2.7199E+04   1.2720E+05  0.000E+00  0.000E+00  0.000E+00  4.84175E+01  1.562E-01  2.000E+01  2.000E+04 -1.360E+00
   1   13    2     1     2    1.2720E+05 -3.7144E+04   1.6434E+05  0.000E+00  0.000E+00  0.000E+00  4.79654E+01  1.814E-01  2.000E+01  2.000E+04 -1.857E+00
   1   14    3     1     3    1.6434E+05 -3.1755E+04   1.9610E+05  0.000E+00  0.000E+00  0.000E+00  4.75128E+01  2.060E-01  2.000E+01  2.000E+04 -1.588E+00
   1   15    4     1     4    1.9610E+05 -3.0357E+04   2.2646E+05  0.000E+00  0.000E+00  0.000E+00  4.70561E+01  2.266E-01  2.000E+01  2.000E+04 -1.518E+00
   1   16    5     1     5    2.2646E+05 -3.1401E+04   2.5786E+05  0.000E+00  0.000E+00  0.000E+00  4.65982E+01  2.459E-01  2.000E+01  2.000E+04 -1.570E+00
   1   16    6     1     6    2.5786E+05 -2.8406E+04   2.8626E+05  0.000E+00  0.000E+00  0.000E+00  4.61387E+01  2.637E-01  2.000E+01  2.000E+04 -1.420E+00
   1   16    7     1     7    2.8626E+05 -2.8780E+04   3.1504E+05  0.000E+00  0.000E+00  0.000E+00  4.56777E+01  2.800E-01  2.000E+01  2.000E+04 -1.439E+00
   1   16    8     1     8    3.1504E+05 -2.9299E+04   3.4434E+05  0.000E+00  0.000E+00  0.000E+00  4.52164E+01  2.959E-01  2.000E+01  2.000E+04 -1.465E+00
   1   16    9     1     9    3.4434E+05 -2.9608E+04   3.7395E+05  0.000E+00  0.000E+00  0.000E+00  4.47547E+01  3.115E-01  2.000E+01  2.000E+04 -1.480E+00
   1   16   10     1    10    3.7395E+05 -2.9800E+04   4.0375E+05  0.000E+00  0.000E+00  0.000E+00  4.42926E+01  3.267E-01  2.000E+01  2.000E+04 -1.490E+00
   1   16   11     1    11    4.0375E+05 -3.0532E+04   4.3428E+05  0.000E+00  0.000E+00  0.000E+00  4.38304E+01  3.417E-01  2.000E+01  2.000E+04 -1.527E+00
   1   16   12     1    12    4.3428E+05 -3.6211E+04   4.7049E+05  0.000E+00  0.000E+00  0.000E+00  4.33692E+01  3.578E-01  2.000E+01  2.000E+04 -1.811E+00
   1   15   13     1    13    4.7049E+05 -3.5103E+04   5.0560E+05  0.000E+00  0.000E+00  0.000E+00  4.29085E+01  3.745E-01  2.000E+01  2.000E+04 -1.755E+00
   1   14   14     1    14    5.0560E+05 -3.5735E+04   5.4133E+05  0.000E+00  0.000E+00  0.000E+00  4.24473E+01  3.905E-01  2.000E+01  2.000E+04 -1.787E+00
   1   13   15     1    15    5.4133E+05 -3.7929E+04   5.7926E+05  0.000E+00  0.000E+00  0.000E+00  4.19863E+01  4.068E-01  2.000E+01  2.000E+04 -1.896E+00
   1   12   16     1    16    5.7926E+05 -4.3855E+04   6.2311E+05  0.000E+00  0.000E+00  0.000E+00  4.15266E+01  4.244E-01  2.000E+01  2.000E+04 -2.193E+00
   1   12   17     1    17    6.2311E+05 -3.4291E+04   6.5741E+05  0.000E+00  0.000E+00  0.000E+00  4.10657E+01  4.407E-01  2.000E+01  2.000E+04 -1.715E+00
   1   12   18     1    18    6.5741E+05 -3.2624E+04   6.9003E+05  0.000E+00  0.000E+00  0.000E+00  4.06021E+01  4.544E-01  2.000E+01  2.000E+04 -1.631E+00
   1   12   19     1    19    6.9003E+05 -3.6664E+04   7.2669E+05  0.000E+00  0.000E+00  0.000E+00  4.01387E+01  4.682E-01  2.000E+01  2.000E+04 -1.833E+00
   1   13   20     1    20    7.2669E+05 -2.7092E+04   7.5378E+05  0.000E+00  0.000E+00  0.000E+00  3.96740E+01  4.808E-01  2.000E+01  2.000E+04 -1.355E+00
   1   14   21     1    21    7.5378E+05 -2.0067E+04   7.7385E+05  0.000E+00  0.000E+00  0.000E+00  3.92058E+01  4.899E-01  2.000E+01  2.000E+04 -1.003E+00
   1   14   22     1    22    7.7385E+05 -1.8908E+03   7.7574E+05  0.000E+00  0.000E+00  0.000E+00  3.87328E+01  4.941E-01  2.000E+01  2.000E+04 -9.454E-02
   1    9   30     2     1    5.0000E+04 -2.6780E+04   7.6780E+04  0.000E+00  0.000E+00  0.000E+00  4.02586E+01  1.336E-01  2.000E+01  2.000E+04 -1.339E+00
   1    9   29     2     2    7.6780E+04 -2.9224E+04   1.0600E+05  0.000E+00  0.000E+00  0.000E+00  4.00414E+01  1.664E-01  2.000E+01  2.000E+04 -1.461E+00
   1    9   28     2     3    1.0600E+05 -3.3466E+04   1.3947E+05  0.000E+00  0.000E+00  0.000E+00  3.98236E+01  1.986E-01  2.000E+01  2.000E+04 -1.673E+00
   1    9   27     2     4    1.3947E+05 -4.7502E+04   1.8697E+05  0.000E+00  0.000E+00  0.000E+00  3.96106E+01  2.356E-01  2.000E+01  2.000E+04 -2.375E+00
   1   10   26     2     5    1.8697E+05 -3.3533E+04   2.2051E+05  0.000E+00  0.000E+00  0.000E+00  3.93942E+01  2.692E-01  2.000E+01  2.000E+04 -1.677E+00
   1   11   25     2     6    2.2051E+05 -2.5225E+04   2.4573E+05  0.000E+00  0.000E+00  0.000E+00  3.91668E+01  2.918E-01  2.000E+01  2.000E+04 -1.261E+00
   1   12   24     2     7    2.4573E+05 -1.8686E+04   2.6442E+05  0.000E+00  0.000E+00  0.000E+00  3.89330E+01  3.080E-01  2.000E+01  2.000E+04 -9.343E-01
   1   13   23     2     8    2.6442E+05 -1.3351E+04   2.7777E+05  0.000E+00  0.000E+00  0.000E+00  3.86945E+01  3.195E-01  2.000E+01  2.000E+04 -6.676E-01
   1   14   22     2     9    2.7777E+05 -7.5101E+03   2.8528E+05  0.000E+00  0.000E+00  0.000E+00  3.84518E+01  3.268E-01  2.000E+01  2.000E+04 -3.755E-01
   1   14   22     3     1    1.0610E+06 -1.5489E+04   1.0765E+06  0.000E+00  0.000E+00  0.000E+00  3.80529E+01  4.973E-01  2.000E+01  2.000E+04 -7.744E-01
   1   15   23     3     2    1.0765E+06 -2.4072E+04   1.1006E+06  0.000E+00  0.000E+00  0.000E+00  3.71695E+01  5.028E-01  2.000E+01  2.000E+04 -1.204E+00
   1   15   24     3     3    1.1006E+06 -2.0040E+04   1.1206E+06  0.000E+00  0.000E+00  0.000E+00  3.62867E+01  5.089E-01  2.000E+01  2.000E+04 -1.002E+00
   1   15   25     3     4    1.1206E+06 -1.9635E+04   1.1403E+06  0.000E+00  0.000E+00  0.000E+00  3.54032E+01  5.143E-01  2.000E+01  2.000E+04 -9.818E-01
   1   15   26     3     5    1.1403E+06 -2.2442E+04   1.1627E+06  0.000E+00  0.000E+00  0.000E+00  3.45201E+01  5.201E-01  2.000E+01  2.000E+04 -1.122E+00
   1   16   27     3     6    1.1627E+06 -2.9700E+04   1.1924E+06  0.000E+00  0.000E+00  0.000E+00  3.36382E+01  5.271E-01  2.000E+01  2.000E+04 -1.485E+00
   1   17   28     3     7    1.1924E+06 -3.6776E+04   1.2292E+06  0.000E+00  0.000E+00  0.000E+00  3.27582E+01  5.360E-01  2.000E+01  2.000E+04 -1.839E+00
   1   18   29     3     8    1.2292E+06 -4.7745E+04   1.2769E+06  0.000E+00  0.000E+00  0.000E+00  3.18805E+01  5.471E-01  2.000E+01  2.000E+04 -2.387E+00
   1   18   30     3     9    1.2769E+06 -4.4098E+04   1.3210E+06  0.000E+00  0.000E+00  0.000E+00  3.10035E+01  5.591E-01  2.000E+01  2.000E+04 -2.205E+00



1
              HEAD IN LAYER   1 AT END OF TIME STEP   1 IN STRESS PERIOD   10
  ---------------------------------------------------------------------------

          1      2      3      4      5      6      7      8      9     10
         11     12     13     14     15     16     17     18     19     20
         21     22     23     24     25     26     27     28     29     30
 .........................................................................
   1  ****** ****** ****** ****** ****** ****** ****** ****** ****** ******
      ****** ****** ****** ****** ****** ****** ****** ****** ****** ******
      ****** ****** ****** ****** ****** ****** ****** ****** ****** ******
   2  ****** ****** ****** ****** ****** ****** ****** ****** ****** ******
      ****** ****** ****** ****** ****** ****** ****** ****** ****** ******
      ****** ****** ****** ****** ****** ****** ****** ****** ****** ******
   3  ****** ****** ****** ****** ****** ****** ****** ****** ****** ******
      ****** ****** ****** ****** ****** ****** ****** ****** ****** ******
      ****** ****** ****** ****** ****** ****** ****** ****** ****** ******
   4  ****** ****** ****** ****** ****** ****** ****** ****** ****** ******
      ****** ****** ****** ****** ****** ****** ****** ****** ****** ******
      ****** ****** ****** ****** ****** ****** ****** ****** ****** ******
   5  ****** ****** ****** ****** ****** ****** ****** ****** ****** ******
      ****** ****** ****** ****** ****** ****** ****** ****** ****** ******
      ****** ****** ****** ****** ****** ****** ****** ****** ****** ******
   6  ****** ****** ****** ****** ****** ****** ****** ****** ****** ******
      ****** ****** ****** ****** ****** ****** ****** ****** ****** ******
      ****** ****** ****** ****** ****** ****** ****** ****** ****** ******
   7  ****** ****** ****** ****** ****** ****** ****** ****** ****** ******
      ****** ****** ****** ****** ****** ****** ****** ****** ****** ******
      ****** ****** ****** ****** ****** ****** ****** ****** ****** ******
   8  ****** ****** ****** ****** ****** ****** ****** ****** ****** ******
      ****** ****** ****** ****** ****** ****** ****** ****** ****** ******
      ****** ****** ****** ****** ****** ****** ****** ****** ****** ******
   9  ****** ****** ****** ****** ****** ****** ****** ****** ****** ******
      ****** ****** ****** ****** ****** ****** ****** ****** ****** ******
      ****** ****** ****** ****** ****** ****** ****** ****** ****** ******
  10  ****** ****** ****** ****** ****** ****** ****** ****** ****** ******
      ****** ****** ****** ****** ****** ****** ****** ****** ****** ******
      ****** ****** ****** ****** ****** ****** ****** ****** ****** ******
  11  ****** ****** ****** ****** ****** ****** ****** ****** ****** ******
      ****** ****** ****** ****** ****** ****** ****** ****** ****** ******
      ****** ****** ****** ****** ****** ****** ****** ****** ****** ******
  12  ****** ****** ****** ****** ****** ****** ****** ****** ****** ******
      ****** ****** ****** ****** ****** ****** ****** ****** ****** ******
      ****** ****** ****** ****** ****** ****** ****** ****** ****** ******
  13  ****** ****** ****** ****** ****** ****** ****** ****** ****** ******
      ****** ****** ****** ****** ****** ****** ****** ****** ****** ******
      ****** ****** ****** ****** ****** ****** ****** ****** ****** ******
  14  ****** ****** ****** ****** ****** ****** ****** ****** ****** ******
      ****** ****** ****** ****** ****** ****** ****** ****** ****** ******
      ****** ****** ****** ****** ****** ****** ****** ****** ****** ******
  15  ****** ****** ****** ****** ****** ****** ****** ****** ****** ******
      ****** ****** ****** ****** ****** ****** ****** ****** ****** ******
      ****** ****** ****** ****** ****** ****** ****** ****** ****** ******
  16  ****** ****** ****** ****** ****** ****** ****** ****** ****** ******
      ****** ****** ****** ****** ****** ****** ****** ****** ****** ******
      ****** ****** ****** ****** ****** ****** ****** ****** ****** ******
  17  ****** ****** ****** ****** ****** ****** ****** ****** ****** ******
      ****** ****** ****** ****** ****** ****** ****** ****** ****** ******
      ****** ****** ****** ****** ****** ****** ****** ****** ****** ******
  18  ****** ****** ****** ****** ****** ****** ****** ****** ****** ******
      ****** ****** ****** ****** ****** ****** ****** ****** ****** ******
      ****** ****** ****** ****** ****** ****** ****** ****** ****** ******
  19  ****** ****** ****** ****** ****** ****** ****** ****** ****** ******
      ****** ****** ****** ****** ****** ****** ****** ****** ****** ******
      ****** ****** ****** ****** ****** ****** ****** ****** ****** ******
  20  ****** ****** ****** ****** ****** ****** ****** ****** ****** ******
      ****** ****** ****** ****** ****** ****** ****** ****** ****** ******
      ****** ****** ****** ****** ****** ****** ****** ****** ****** ******
  21  ****** ****** ****** ****** ****** ****** ****** ****** ****** ******
      ****** ****** ****** ****** ****** ****** ****** ****** ****** ******
      ****** ****** ****** ****** ****** ****** ****** ****** ****** ******
  22  ****** ****** ****** ****** ****** ****** ****** ****** ****** ******
      ****** ****** ****** ****** ****** ****** ****** ****** ****** ******
      ****** ****** ****** ****** ****** ****** ****** ****** ****** ******
  23  ****** ****** ****** ****** ****** ****** ****** ****** ****** ******
      ****** ****** ****** ****** ****** ****** ****** ****** ****** ******
      ****** ****** ****** ****** ****** ****** ****** ****** ****** ******
  24  ****** ****** ****** ****** ****** ****** ****** ****** ****** ******
      ****** ****** ****** ****** ****** ****** ****** ****** ****** ******
      ****** ****** ****** ****** ****** ****** ****** ****** ****** ******
  25  ****** ****** ****** ****** ****** ****** ****** ****** ****** ******
      ****** ****** ****** ****** ****** ****** ****** ****** ****** ******
      ****** ****** ****** ****** ****** ****** ****** ****** ****** ******

 HEAD WILL BE SAVED ON UNIT   51 AT END OF TIME STEP    1, STRESS PERIOD   10
1
  VOLUMETRIC BUDGET FOR ENTIRE MODEL AT END OF TIME STEP    1, STRESS PERIOD  10
  ------------------------------------------------------------------------------

     CUMULATIVE VOLUMES      L**3       RATES FOR THIS TIME STEP      L**3/T
     ------------------                 ------------------------

           IN:                                      IN:
           ---                                      ---
             STORAGE =    21241125.5669               STORAGE =        1401.8895
       CONSTANT HEAD =  1102394952.7601         CONSTANT HEAD =     1197080.1628
               WELLS =           0.0000                 WELLS =           0.0000
            RECHARGE =    23901600.0000              RECHARGE =       55200.0000
      STREAM LEAKAGE =           0.0000        STREAM LEAKAGE =           0.0000

            TOTAL IN =  1147537678.3270              TOTAL IN =     1253682.0523

          OUT:                                     OUT:
          ----                                     ----
             STORAGE =     1396344.2404               STORAGE =        2666.9107
       CONSTANT HEAD =           0.0000         CONSTANT HEAD =           0.0000
               WELLS =    73040000.0000                 WELLS =       80000.0000
            RECHARGE =           0.0000              RECHARGE =           0.0000
      STREAM LEAKAGE =  1073101336.7557        STREAM LEAKAGE =     1171015.1703

           TOTAL OUT =  1147537680.9961             TOTAL OUT =     1253682.0811

            IN - OUT =          -2.6691              IN - OUT =      -2.8800E-02

 PERCENT DISCREPANCY =          -0.00     PERCENT DISCREPANCY =          -0.00






         TIME SUMMARY AT END OF TIME STEP    1 IN STRESS PERIOD   10
                    SECONDS     MINUTES      HOURS       DAYS        YEARS
                    -----------------------------------------------------------
   TIME STEP LENGTH 7.86240E+06 1.31040E+05  2184.0      91.000     0.24914    
 STRESS PERIOD TIME 7.86240E+06 1.31040E+05  2184.0      91.000     0.24914    
         TOTAL TIME 7.88832E+07 1.31472E+06  21912.      913.00      2.4997    
1
1
                            STRESS PERIOD NO.   11, LENGTH =   91.00000    
                            -----------------------------------------------

                              NUMBER OF TIME STEPS =     1

                               MULTIPLIER FOR DELT =     1.500

                            INITIAL TIME STEP SIZE =   91.00000    

 WELL NO.  LAYER   ROW   COL   STRESS RATE         
 --------------------------------------------------
      1      1      2     21     -0.4767E+05
      2      1     23     19     -0.3233E+05

      2 WELLS

                 RECHARGE =   0.00000    

 REUSING STREAM SEGMENT DATA FROM LAST STRESS PERIOD
 
 SOLVING FOR HEAD 


     5 CALLS TO PCG ROUTINE FOR TIME STEP   1 IN STRESS PERIOD   11
    20 TOTAL ITERATIONS

 OUTPUT CONTROL FOR STRESS PERIOD   11   TIME STEP    1
    SAVE BUDGET
    SAVE HEAD FOR ALL LAYERS
    PRINT HEAD FOR ALL LAYERS
 UBDSV2 SAVING "STREAMFLOW OUT  " ON UNIT  50 AT TIME STEP  1, STRESS PERIOD  11



 STREAM LISTING     PERIOD     11   STEP        1

 LAYER ROW COL. STREAM  RCH.  FLOW INTO     FLOW TO   FLOW OUT OF   OVRLND.     DIRECT     STREAM       STREAM     STREAM     STREAM   STREAMBED  STREAMBED
                SEG.NO.  NO.  STRM. RCH.    AQUIFER    STRM. RCH.    RUNOFF     PRECIP       ET          HEAD       DEPTH      WIDTH   CONDCTNC.   GRADIENT

   1   13    1     1     1    1.0000E+05 -2.7425E+04   1.2743E+05  0.000E+00  0.000E+00  0.000E+00  4.84176E+01  1.562E-01  2.000E+01  2.000E+04 -1.371E+00
   1   13    2     1     2    1.2743E+05 -3.7107E+04   1.6453E+05  0.000E+00  0.000E+00  0.000E+00  4.79656E+01  1.815E-01  2.000E+01  2.000E+04 -1.855E+00
   1   14    3     1     3    1.6453E+05 -3.2546E+04   1.9708E+05  0.000E+00  0.000E+00  0.000E+00  4.75132E+01  2.064E-01  2.000E+01  2.000E+04 -1.627E+00
   1   15    4     1     4    1.9708E+05 -3.1765E+04   2.2884E+05  0.000E+00  0.000E+00  0.000E+00  4.70572E+01  2.277E-01  2.000E+01  2.000E+04 -1.588E+00
   1   16    5     1     5    2.2884E+05 -3.3293E+04   2.6214E+05  0.000E+00  0.000E+00  0.000E+00  4.66002E+01  2.479E-01  2.000E+01  2.000E+04 -1.665E+00
   1   16    6     1     6    2.6214E+05 -2.9132E+04   2.9127E+05  0.000E+00  0.000E+00  0.000E+00  4.61414E+01  2.664E-01  2.000E+01  2.000E+04 -1.457E+00
   1   16    7     1     7    2.9127E+05 -2.8980E+04   3.2025E+05  0.000E+00  0.000E+00  0.000E+00  4.56806E+01  2.828E-01  2.000E+01  2.000E+04 -1.449E+00
   1   16    8     1     8    3.2025E+05 -2.9172E+04   3.4942E+05  0.000E+00  0.000E+00  0.000E+00  4.52191E+01  2.987E-01  2.000E+01  2.000E+04 -1.459E+00
   1   16    9     1     9    3.4942E+05 -2.9254E+04   3.7867E+05  0.000E+00  0.000E+00  0.000E+00  4.47572E+01  3.141E-01  2.000E+01  2.000E+04 -1.463E+00
   1   16   10     1    10    3.7867E+05 -2.9272E+04   4.0795E+05  0.000E+00  0.000E+00  0.000E+00  4.42949E+01  3.290E-01  2.000E+01  2.000E+04 -1.464E+00
   1   16   11     1    11    4.0795E+05 -2.9839E+04   4.3779E+05  0.000E+00  0.000E+00  0.000E+00  4.38322E+01  3.436E-01  2.000E+01  2.000E+04 -1.492E+00
   1   16   12     1    12    4.3779E+05 -3.5192E+04   4.7298E+05  0.000E+00  0.000E+00  0.000E+00  4.33706E+01  3.592E-01  2.000E+01  2.000E+04 -1.760E+00
   1   15   13     1    13    4.7298E+05 -3.3915E+04   5.0689E+05  0.000E+00  0.000E+00  0.000E+00  4.29094E+01  3.753E-01  2.000E+01  2.000E+04 -1.696E+00
   1   14   14     1    14    5.0689E+05 -3.4509E+04   5.4140E+05  0.000E+00  0.000E+00  0.000E+00  4.24477E+01  3.908E-01  2.000E+01  2.000E+04 -1.725E+00
   1   13   15     1    15    5.4140E+05 -3.6750E+04   5.7815E+05  0.000E+00  0.000E+00  0.000E+00  4.19861E+01  4.066E-01  2.000E+01  2.000E+04 -1.838E+00
   1   12   16     1    16    5.7815E+05 -4.2792E+04   6.2094E+05  0.000E+00  0.000E+00  0.000E+00  4.15259E+01  4.237E-01  2.000E+01  2.000E+04 -2.140E+00
   1   12   17     1    17    6.2094E+05 -3.3389E+04   6.5433E+05  0.000E+00  0.000E+00  0.000E+00  4.10646E+01  4.396E-01  2.000E+01  2.000E+04 -1.669E+00
   1   12   18     1    18    6.5433E+05 -3.1748E+04   6.8608E+05  0.000E+00  0.000E+00  0.000E+00  4.06007E+01  4.529E-01  2.000E+01  2.000E+04 -1.587E+00
   1   12   19     1    19    6.8608E+05 -3.5725E+04   7.2181E+05  0.000E+00  0.000E+00  0.000E+00  4.01369E+01  4.665E-01  2.000E+01  2.000E+04 -1.786E+00
   1   13   20     1    20    7.2181E+05 -2.6077E+04   7.4788E+05  0.000E+00  0.000E+00  0.000E+00  3.96719E+01  4.787E-01  2.000E+01  2.000E+04 -1.304E+00
   1   14   21     1    21    7.4788E+05 -1.9030E+04   7.6691E+05  0.000E+00  0.000E+00  0.000E+00  3.92033E+01  4.874E-01  2.000E+01  2.000E+04 -9.515E-01
   1   14   22     1    22    7.6691E+05 -1.5130E+03   7.6843E+05  0.000E+00  0.000E+00  0.000E+00  3.87300E+01  4.914E-01  2.000E+01  2.000E+04 -7.565E-02
   1    9   30     2     1    5.0000E+04 -2.6191E+04   7.6191E+04  0.000E+00  0.000E+00  0.000E+00  4.02582E+01  1.332E-01  2.000E+01  2.000E+04 -1.310E+00
   1    9   29     2     2    7.6191E+04 -2.8636E+04   1.0483E+05  0.000E+00  0.000E+00  0.000E+00  4.00404E+01  1.654E-01  2.000E+01  2.000E+04 -1.432E+00
   1    9   28     2     3    1.0483E+05 -3.2858E+04   1.3768E+05  0.000E+00  0.000E+00  0.000E+00  3.98221E+01  1.971E-01  2.000E+01  2.000E+04 -1.643E+00
   1    9   27     2     4    1.3768E+05 -4.6759E+04   1.8444E+05  0.000E+00  0.000E+00  0.000E+00  3.96088E+01  2.338E-01  2.000E+01  2.000E+04 -2.338E+00
   1   10   26     2     5    1.8444E+05 -3.2758E+04   2.1720E+05  0.000E+00  0.000E+00  0.000E+00  3.93918E+01  2.668E-01  2.000E+01  2.000E+04 -1.638E+00
   1   11   25     2     6    2.1720E+05 -2.4473E+04   2.4167E+05  0.000E+00  0.000E+00  0.000E+00  3.91640E+01  2.890E-01  2.000E+01  2.000E+04 -1.224E+00
   1   12   24     2     7    2.4167E+05 -1.8003E+04   2.5968E+05  0.000E+00  0.000E+00  0.000E+00  3.89298E+01  3.048E-01  2.000E+01  2.000E+04 -9.001E-01
   1   13   23     2     8    2.5968E+05 -1.2770E+04   2.7245E+05  0.000E+00  0.000E+00  0.000E+00  3.86909E+01  3.159E-01  2.000E+01  2.000E+04 -6.385E-01
   1   14   22     2     9    2.7245E+05 -7.1545E+03   2.7960E+05  0.000E+00  0.000E+00  0.000E+00  3.84480E+01  3.230E-01  2.000E+01  2.000E+04 -3.577E-01
   1   14   22     3     1    1.0480E+06 -1.5130E+04   1.0632E+06  0.000E+00  0.000E+00  0.000E+00  3.80492E+01  4.936E-01  2.000E+01  2.000E+04 -7.565E-01
   1   15   23     3     2    1.0632E+06 -2.3043E+04   1.0862E+06  0.000E+00  0.000E+00  0.000E+00  3.71656E+01  4.990E-01  2.000E+01  2.000E+04 -1.152E+00
   1   15   24     3     3    1.0862E+06 -1.9275E+04   1.1055E+06  0.000E+00  0.000E+00  0.000E+00  3.62826E+01  5.048E-01  2.000E+01  2.000E+04 -9.637E-01
   1   15   25     3     4    1.1055E+06 -1.8949E+04   1.1244E+06  0.000E+00  0.000E+00  0.000E+00  3.53990E+01  5.101E-01  2.000E+01  2.000E+04 -9.474E-01
   1   15   26     3     5    1.1244E+06 -2.1725E+04   1.1461E+06  0.000E+00  0.000E+00  0.000E+00  3.45157E+01  5.157E-01  2.000E+01  2.000E+04 -1.086E+00
   1   16   27     3     6    1.1461E+06 -2.8797E+04   1.1749E+06  0.000E+00  0.000E+00  0.000E+00  3.36336E+01  5.225E-01  2.000E+01  2.000E+04 -1.440E+00
   1   17   28     3     7    1.1749E+06 -3.5852E+04   1.2108E+06  0.000E+00  0.000E+00  0.000E+00  3.27534E+01  5.312E-01  2.000E+01  2.000E+04 -1.793E+00
   1   18   29     3     8    1.2108E+06 -4.6877E+04   1.2577E+06  0.000E+00  0.000E+00  0.000E+00  3.18755E+01  5.422E-01  2.000E+01  2.000E+04 -2.344E+00
   1   18   30     3     9    1.2577E+06 -4.3416E+04   1.3011E+06  0.000E+00  0.000E+00  0.000E+00  3.09984E+01  5.540E-01  2.000E+01  2.000E+04 -2.171E+00



1
              HEAD IN LAYER   1 AT END OF TIME STEP   1 IN STRESS PERIOD   11
  ---------------------------------------------------------------------------

          1      2      3      4      5      6      7      8      9     10
         11     12     13     14     15     16     17     18     19     20
         21     22     23     24     25     26     27     28     29     30
 .........................................................................
   1  ****** ****** ****** ****** ****** ****** ****** ****** ****** ******
      ****** ****** ****** ****** ****** ****** ****** ****** ****** ******
      ****** ****** ****** ****** ****** ****** ****** ****** ****** ******
   2  ****** ****** ****** ****** ****** ****** ****** ****** ****** ******
      ****** ****** ****** ****** ****** ****** ****** ****** ****** ******
      ****** ****** ****** ****** ****** ****** ****** ****** ****** ******
   3  ****** ****** ****** ****** ****** ****** ****** ****** ****** ******
      ****** ****** ****** ****** ****** ****** ****** ****** ****** ******
      ****** ****** ****** ****** ****** ****** ****** ****** ****** ******
   4  ****** ****** ****** ****** ****** ****** ****** ****** ****** ******
      ****** ****** ****** ****** ****** ****** ****** ****** ****** ******
      ****** ****** ****** ****** ****** ****** ****** ****** ****** ******
   5  ****** ****** ****** ****** ****** ****** ****** ****** ****** ******
      ****** ****** ****** ****** ****** ****** ****** ****** ****** ******
      ****** ****** ****** ****** ****** ****** ****** ****** ****** ******
   6  ****** ****** ****** ****** ****** ****** ****** ****** ****** ******
      ****** ****** ****** ****** ****** ****** ****** ****** ****** ******
      ****** ****** ****** ****** ****** ****** ****** ****** ****** ******
   7  ****** ****** ****** ****** ****** ****** ****** ****** ****** ******
      ****** ****** ****** ****** ****** ****** ****** ****** ****** ******
      ****** ****** ****** ****** ****** ****** ****** ****** ****** ******
   8  ****** ****** ****** ****** ****** ****** ****** ****** ****** ******
      ****** ****** ****** ****** ****** ****** ****** ****** ****** ******
      ****** ****** ****** ****** ****** ****** ****** ****** ****** ******
   9  ****** ****** ****** ****** ****** ****** ****** ****** ****** ******
      ****** ****** ****** ****** ****** ****** ****** ****** ****** ******
      ****** ****** ****** ****** ****** ****** ****** ****** ****** ******
  10  ****** ****** ****** ****** ****** ****** ****** ****** ****** ******
      ****** ****** ****** ****** ****** ****** ****** ****** ****** ******
      ****** ****** ****** ****** ****** ****** ****** ****** ****** ******
  11  ****** ****** ****** ****** ****** ****** ****** ****** ****** ******
      ****** ****** ****** ****** ****** ****** ****** ****** ****** ******
      ****** ****** ****** ****** ****** ****** ****** ****** ****** ******
  12  ****** ****** ****** ****** ****** ****** ****** ****** ****** ******
      ****** ****** ****** ****** ****** ****** ****** ****** ****** ******
      ****** ****** ****** ****** ****** ****** ****** ****** ****** ******
  13  ****** ****** ****** ****** ****** ****** ****** ****** ****** ******
      ****** ****** ****** ****** ****** ****** ****** ****** ****** ******
      ****** ****** ****** ****** ****** ****** ****** ****** ****** ******
  14  ****** ****** ****** ****** ****** ****** ****** ****** ****** ******
      ****** ****** ****** ****** ****** ****** ****** ****** ****** ******
      ****** ****** ****** ****** ****** ****** ****** ****** ****** ******
  15  ****** ****** ****** ****** ****** ****** ****** ****** ****** ******
      ****** ****** ****** ****** ****** ****** ****** ****** ****** ******
      ****** ****** ****** ****** ****** ****** ****** ****** ****** ******
  16  ****** ****** ****** ****** ****** ****** ****** ****** ****** ******
      ****** ****** ****** ****** ****** ****** ****** ****** ****** ******
      ****** ****** ****** ****** ****** ****** ****** ****** ****** ******
  17  ****** ****** ****** ****** ****** ****** ****** ****** ****** ******
      ****** ****** ****** ****** ****** ****** ****** ****** ****** ******
      ****** ****** ****** ****** ****** ****** ****** ****** ****** ******
  18  ****** ****** ****** ****** ****** ****** ****** ****** ****** ******
      ****** ****** ****** ****** ****** ****** ****** ****** ****** ******
      ****** ****** ****** ****** ****** ****** ****** ****** ****** ******
  19  ****** ****** ****** ****** ****** ****** ****** ****** ****** ******
      ****** ****** ****** ****** ****** ****** ****** ****** ****** ******
      ****** ****** ****** ****** ****** ****** ****** ****** ****** ******
  20  ****** ****** ****** ****** ****** ****** ****** ****** ****** ******
      ****** ****** ****** ****** ****** ****** ****** ****** ****** ******
      ****** ****** ****** ****** ****** ****** ****** ****** ****** ******
  21  ****** ****** ****** ****** ****** ****** ****** ****** ****** ******
      ****** ****** ****** ****** ****** ****** ****** ****** ****** ******
      ****** ****** ****** ****** ****** ****** ****** ****** ****** ******
  22  ****** ****** ****** ****** ****** ****** ****** ****** ****** ******
      ****** ****** ****** ****** ****** ****** ****** ****** ****** ******
      ****** ****** ****** ****** ****** ****** ****** ****** ****** ******
  23  ****** ****** ****** ****** ****** ****** ****** ****** ****** ******
      ****** ****** ****** ****** ****** ****** ****** ****** ****** ******
      ****** ****** ****** ****** ****** ****** ****** ****** ****** ******
  24  ****** ****** ****** ****** ****** ****** ****** ****** ****** ******
      ****** ****** ****** ****** ****** ****** ****** ****** ****** ******
      ****** ****** ****** ****** ****** ****** ****** ****** ****** ******
  25  ****** ****** ****** ****** ****** ****** ****** ****** ****** ******
      ****** ****** ****** ****** ****** ****** ****** ****** ****** ******
      ****** ****** ****** ****** ****** ****** ****** ****** ****** ******

 HEAD WILL BE SAVED ON UNIT   51 AT END OF TIME STEP    1, STRESS PERIOD   11
1
  VOLUMETRIC BUDGET FOR ENTIRE MODEL AT END OF TIME STEP    1, STRESS PERIOD  11
  ------------------------------------------------------------------------------

     CUMULATIVE VOLUMES      L**3       RATES FOR THIS TIME STEP      L**3/T
     ------------------                 ------------------------

           IN:                                      IN:
           ---                                      ---
             STORAGE =    21530591.4129               STORAGE =        3180.9434
       CONSTANT HEAD =  1214256408.4879         CONSTANT HEAD =     1229246.7662
               WELLS =           0.0000                 WELLS =           0.0000
            RECHARGE =    23901600.0000              RECHARGE =           0.0000
      STREAM LEAKAGE =           0.0000        STREAM LEAKAGE =           0.0000

            TOTAL IN =  1259688599.9007              TOTAL IN =     1232427.7096

          OUT:                                     OUT:
          ----                                     ----
             STORAGE =     1518027.4322               STORAGE =        1337.1779
       CONSTANT HEAD =           0.0000         CONSTANT HEAD =           0.0000
               WELLS =    80320000.0000                 WELLS =       80000.0000
            RECHARGE =           0.0000              RECHARGE =           0.0000
      STREAM LEAKAGE =  1177850571.2826        STREAM LEAKAGE =     1151090.4893

           TOTAL OUT =  1259688598.7148             TOTAL OUT =     1232427.6672

            IN - OUT =           1.1860              IN - OUT =       4.2363E-02

 PERCENT DISCREPANCY =           0.00     PERCENT DISCREPANCY =           0.00






         TIME SUMMARY AT END OF TIME STEP    1 IN STRESS PERIOD   11
                    SECONDS     MINUTES      HOURS       DAYS        YEARS
                    -----------------------------------------------------------
   TIME STEP LENGTH 7.86240E+06 1.31040E+05  2184.0      91.000     0.24914    
 STRESS PERIOD TIME 7.86240E+06 1.31040E+05  2184.0      91.000     0.24914    
         TOTAL TIME 8.67456E+07 1.44576E+06  24096.      1004.0      2.7488    
1
1
                            STRESS PERIOD NO.   12, LENGTH =   91.00000    
                            -----------------------------------------------

                              NUMBER OF TIME STEPS =     1

                               MULTIPLIER FOR DELT =     1.500

                            INITIAL TIME STEP SIZE =   91.00000    

 WELL NO.  LAYER   ROW   COL   STRESS RATE         
 --------------------------------------------------
      1      1      2     21     -0.4767E+05
      2      1     23     19       0.000    
      3      1     20      2     -0.3233E+05

      3 WELLS

                 RECHARGE =  1.000000E-03

 REUSING STREAM SEGMENT DATA FROM LAST STRESS PERIOD
 
 SOLVING FOR HEAD 


     6 CALLS TO PCG ROUTINE FOR TIME STEP   1 IN STRESS PERIOD   12
    23 TOTAL ITERATIONS

 OUTPUT CONTROL FOR STRESS PERIOD   12   TIME STEP    1
    SAVE BUDGET
    SAVE HEAD FOR ALL LAYERS
    PRINT HEAD FOR ALL LAYERS
 UBDSV2 SAVING "STREAMFLOW OUT  " ON UNIT  50 AT TIME STEP  1, STRESS PERIOD  12



 STREAM LISTING     PERIOD     12   STEP        1

 LAYER ROW COL. STREAM  RCH.  FLOW INTO     FLOW TO   FLOW OUT OF   OVRLND.     DIRECT     STREAM       STREAM     STREAM     STREAM   STREAMBED  STREAMBED
                SEG.NO.  NO.  STRM. RCH.    AQUIFER    STRM. RCH.    RUNOFF     PRECIP       ET          HEAD       DEPTH      WIDTH   CONDCTNC.   GRADIENT

   1   13    1     1     1    1.0000E+05 -2.6745E+04   1.2675E+05  0.000E+00  0.000E+00  0.000E+00  4.84173E+01  1.560E-01  2.000E+01  2.000E+04 -1.337E+00
   1   13    2     1     2    1.2675E+05 -3.6601E+04   1.6335E+05  0.000E+00  0.000E+00  0.000E+00  4.79649E+01  1.808E-01  2.000E+01  2.000E+04 -1.830E+00
   1   14    3     1     3    1.6335E+05 -3.1226E+04   1.9457E+05  0.000E+00  0.000E+00  0.000E+00  4.75119E+01  2.051E-01  2.000E+01  2.000E+04 -1.561E+00
   1   15    4     1     4    1.9457E+05 -2.9850E+04   2.2442E+05  0.000E+00  0.000E+00  0.000E+00  4.70550E+01  2.254E-01  2.000E+01  2.000E+04 -1.492E+00
   1   16    5     1     5    2.2442E+05 -3.0945E+04   2.5537E+05  0.000E+00  0.000E+00  0.000E+00  4.65968E+01  2.445E-01  2.000E+01  2.000E+04 -1.547E+00
   1   16    6     1     6    2.5537E+05 -2.8009E+04   2.8338E+05  0.000E+00  0.000E+00  0.000E+00  4.61371E+01  2.621E-01  2.000E+01  2.000E+04 -1.400E+00
   1   16    7     1     7    2.8338E+05 -2.8386E+04   3.1176E+05  0.000E+00  0.000E+00  0.000E+00  4.56760E+01  2.783E-01  2.000E+01  2.000E+04 -1.419E+00
   1   16    8     1     8    3.1176E+05 -2.8904E+04   3.4067E+05  0.000E+00  0.000E+00  0.000E+00  4.52145E+01  2.941E-01  2.000E+01  2.000E+04 -1.445E+00
   1   16    9     1     9    3.4067E+05 -2.9214E+04   3.6988E+05  0.000E+00  0.000E+00  0.000E+00  4.47527E+01  3.095E-01  2.000E+01  2.000E+04 -1.461E+00
   1   16   10     1    10    3.6988E+05 -2.9406E+04   3.9929E+05  0.000E+00  0.000E+00  0.000E+00  4.42905E+01  3.246E-01  2.000E+01  2.000E+04 -1.470E+00
   1   16   11     1    11    3.9929E+05 -3.0134E+04   4.2942E+05  0.000E+00  0.000E+00  0.000E+00  4.38281E+01  3.394E-01  2.000E+01  2.000E+04 -1.507E+00
   1   16   12     1    12    4.2942E+05 -3.5747E+04   4.6517E+05  0.000E+00  0.000E+00  0.000E+00  4.33667E+01  3.554E-01  2.000E+01  2.000E+04 -1.787E+00
   1   15   13     1    13    4.6517E+05 -3.4590E+04   4.9976E+05  0.000E+00  0.000E+00  0.000E+00  4.29060E+01  3.719E-01  2.000E+01  2.000E+04 -1.729E+00
   1   14   14     1    14    4.9976E+05 -3.5204E+04   5.3496E+05  0.000E+00  0.000E+00  0.000E+00  4.24446E+01  3.878E-01  2.000E+01  2.000E+04 -1.760E+00
   1   13   15     1    15    5.3496E+05 -3.7402E+04   5.7236E+05  0.000E+00  0.000E+00  0.000E+00  4.19834E+01  4.039E-01  2.000E+01  2.000E+04 -1.870E+00
   1   12   16     1    16    5.7236E+05 -4.3345E+04   6.1571E+05  0.000E+00  0.000E+00  0.000E+00  4.15236E+01  4.213E-01  2.000E+01  2.000E+04 -2.167E+00
   1   12   17     1    17    6.1571E+05 -3.3881E+04   6.4959E+05  0.000E+00  0.000E+00  0.000E+00  4.10625E+01  4.375E-01  2.000E+01  2.000E+04 -1.694E+00
   1   12   18     1    18    6.4959E+05 -3.2233E+04   6.8182E+05  0.000E+00  0.000E+00  0.000E+00  4.05988E+01  4.511E-01  2.000E+01  2.000E+04 -1.612E+00
   1   12   19     1    19    6.8182E+05 -3.6238E+04   7.1806E+05  0.000E+00  0.000E+00  0.000E+00  4.01354E+01  4.649E-01  2.000E+01  2.000E+04 -1.812E+00
   1   13   20     1    20    7.1806E+05 -2.6695E+04   7.4475E+05  0.000E+00  0.000E+00  0.000E+00  3.96705E+01  4.773E-01  2.000E+01  2.000E+04 -1.335E+00
   1   14   21     1    21    7.4475E+05 -1.9725E+04   7.6448E+05  0.000E+00  0.000E+00  0.000E+00  3.92023E+01  4.864E-01  2.000E+01  2.000E+04 -9.863E-01
   1   14   22     1    22    7.6448E+05 -1.7717E+03   7.6625E+05  0.000E+00  0.000E+00  0.000E+00  3.87291E+01  4.905E-01  2.000E+01  2.000E+04 -8.858E-02
   1    9   30     2     1    5.0000E+04 -2.6476E+04   7.6476E+04  0.000E+00  0.000E+00  0.000E+00  4.02584E+01  1.334E-01  2.000E+01  2.000E+04 -1.324E+00
   1    9   29     2     2    7.6476E+04 -2.8920E+04   1.0540E+05  0.000E+00  0.000E+00  0.000E+00  4.00409E+01  1.659E-01  2.000E+01  2.000E+04 -1.446E+00
   1    9   28     2     3    1.0540E+05 -3.3151E+04   1.3855E+05  0.000E+00  0.000E+00  0.000E+00  3.98228E+01  1.978E-01  2.000E+01  2.000E+04 -1.658E+00
   1    9   27     2     4    1.3855E+05 -4.7115E+04   1.8566E+05  0.000E+00  0.000E+00  0.000E+00  3.96097E+01  2.347E-01  2.000E+01  2.000E+04 -2.356E+00
   1   10   26     2     5    1.8566E+05 -3.3131E+04   2.1879E+05  0.000E+00  0.000E+00  0.000E+00  3.93930E+01  2.680E-01  2.000E+01  2.000E+04 -1.657E+00
   1   11   25     2     6    2.1879E+05 -2.4838E+04   2.4363E+05  0.000E+00  0.000E+00  0.000E+00  3.91654E+01  2.904E-01  2.000E+01  2.000E+04 -1.242E+00
   1   12   24     2     7    2.4363E+05 -1.8340E+04   2.6197E+05  0.000E+00  0.000E+00  0.000E+00  3.89314E+01  3.064E-01  2.000E+01  2.000E+04 -9.170E-01
   1   13   23     2     8    2.6197E+05 -1.3070E+04   2.7504E+05  0.000E+00  0.000E+00  0.000E+00  3.86926E+01  3.176E-01  2.000E+01  2.000E+04 -6.535E-01
   1   14   22     2     9    2.7504E+05 -7.3577E+03   2.8240E+05  0.000E+00  0.000E+00  0.000E+00  3.84498E+01  3.248E-01  2.000E+01  2.000E+04 -3.679E-01
   1   14   22     3     1    1.0486E+06 -1.5367E+04   1.0640E+06  0.000E+00  0.000E+00  0.000E+00  3.80494E+01  4.938E-01  2.000E+01  2.000E+04 -7.683E-01
   1   15   23     3     2    1.0640E+06 -2.3755E+04   1.0878E+06  0.000E+00  0.000E+00  0.000E+00  3.71660E+01  4.993E-01  2.000E+01  2.000E+04 -1.188E+00
   1   15   24     3     3    1.0878E+06 -1.9779E+04   1.1075E+06  0.000E+00  0.000E+00  0.000E+00  3.62831E+01  5.053E-01  2.000E+01  2.000E+04 -9.889E-01
   1   15   25     3     4    1.1075E+06 -1.9377E+04   1.1269E+06  0.000E+00  0.000E+00  0.000E+00  3.53996E+01  5.107E-01  2.000E+01  2.000E+04 -9.688E-01
   1   15   26     3     5    1.1269E+06 -2.2141E+04   1.1491E+06  0.000E+00  0.000E+00  0.000E+00  3.45164E+01  5.164E-01  2.000E+01  2.000E+04 -1.107E+00
   1   16   27     3     6    1.1491E+06 -2.9336E+04   1.1784E+06  0.000E+00  0.000E+00  0.000E+00  3.36345E+01  5.234E-01  2.000E+01  2.000E+04 -1.467E+00
   1   17   28     3     7    1.1784E+06 -3.6403E+04   1.2148E+06  0.000E+00  0.000E+00  0.000E+00  3.27544E+01  5.322E-01  2.000E+01  2.000E+04 -1.820E+00
   1   18   29     3     8    1.2148E+06 -4.7395E+04   1.2622E+06  0.000E+00  0.000E+00  0.000E+00  3.18766E+01  5.433E-01  2.000E+01  2.000E+04 -2.370E+00
   1   18   30     3     9    1.2622E+06 -4.3806E+04   1.3060E+06  0.000E+00  0.000E+00  0.000E+00  3.09997E+01  5.552E-01  2.000E+01  2.000E+04 -2.190E+00



1
              HEAD IN LAYER   1 AT END OF TIME STEP   1 IN STRESS PERIOD   12
  ---------------------------------------------------------------------------

          1      2      3      4      5      6      7      8      9     10
         11     12     13     14     15     16     17     18     19     20
         21     22     23     24     25     26     27     28     29     30
 .........................................................................
   1  ****** ****** ****** ****** ****** ****** ****** ****** ****** ******
      ****** ****** ****** ****** ****** ****** ****** ****** ****** ******
      ****** ****** ****** ****** ****** ****** ****** ****** ****** ******
   2  ****** ****** ****** ****** ****** ****** ****** ****** ****** ******
      ****** ****** ****** ****** ****** ****** ****** ****** ****** ******
      ****** ****** ****** ****** ****** ****** ****** ****** ****** ******
   3  ****** ****** ****** ****** ****** ****** ****** ****** ****** ******
      ****** ****** ****** ****** ****** ****** ****** ****** ****** ******
      ****** ****** ****** ****** ****** ****** ****** ****** ****** ******
   4  ****** ****** ****** ****** ****** ****** ****** ****** ****** ******
      ****** ****** ****** ****** ****** ****** ****** ****** ****** ******
      ****** ****** ****** ****** ****** ****** ****** ****** ****** ******
   5  ****** ****** ****** ****** ****** ****** ****** ****** ****** ******
      ****** ****** ****** ****** ****** ****** ****** ****** ****** ******
      ****** ****** ****** ****** ****** ****** ****** ****** ****** ******
   6  ****** ****** ****** ****** ****** ****** ****** ****** ****** ******
      ****** ****** ****** ****** ****** ****** ****** ****** ****** ******
      ****** ****** ****** ****** ****** ****** ****** ****** ****** ******
   7  ****** ****** ****** ****** ****** ****** ****** ****** ****** ******
      ****** ****** ****** ****** ****** ****** ****** ****** ****** ******
      ****** ****** ****** ****** ****** ****** ****** ****** ****** ******
   8  ****** ****** ****** ****** ****** ****** ****** ****** ****** ******
      ****** ****** ****** ****** ****** ****** ****** ****** ****** ******
      ****** ****** ****** ****** ****** ****** ****** ****** ****** ******
   9  ****** ****** ****** ****** ****** ****** ****** ****** ****** ******
      ****** ****** ****** ****** ****** ****** ****** ****** ****** ******
      ****** ****** ****** ****** ****** ****** ****** ****** ****** ******
  10  ****** ****** ****** ****** ****** ****** ****** ****** ****** ******
      ****** ****** ****** ****** ****** ****** ****** ****** ****** ******
      ****** ****** ****** ****** ****** ****** ****** ****** ****** ******
  11  ****** ****** ****** ****** ****** ****** ****** ****** ****** ******
      ****** ****** ****** ****** ****** ****** ****** ****** ****** ******
      ****** ****** ****** ****** ****** ****** ****** ****** ****** ******
  12  ****** ****** ****** ****** ****** ****** ****** ****** ****** ******
      ****** ****** ****** ****** ****** ****** ****** ****** ****** ******
      ****** ****** ****** ****** ****** ****** ****** ****** ****** ******
  13  ****** ****** ****** ****** ****** ****** ****** ****** ****** ******
      ****** ****** ****** ****** ****** ****** ****** ****** ****** ******
      ****** ****** ****** ****** ****** ****** ****** ****** ****** ******
  14  ****** ****** ****** ****** ****** ****** ****** ****** ****** ******
      ****** ****** ****** ****** ****** ****** ****** ****** ****** ******
      ****** ****** ****** ****** ****** ****** ****** ****** ****** ******
  15  ****** ****** ****** ****** ****** ****** ****** ****** ****** ******
      ****** ****** ****** ****** ****** ****** ****** ****** ****** ******
      ****** ****** ****** ****** ****** ****** ****** ****** ****** ******
  16  ****** ****** ****** ****** ****** ****** ****** ****** ****** ******
      ****** ****** ****** ****** ****** ****** ****** ****** ****** ******
      ****** ****** ****** ****** ****** ****** ****** ****** ****** ******
  17  ****** ****** ****** ****** ****** ****** ****** ****** ****** ******
      ****** ****** ****** ****** ****** ****** ****** ****** ****** ******
      ****** ****** ****** ****** ****** ****** ****** ****** ****** ******
  18  ****** ****** ****** ****** ****** ****** ****** ****** ****** ******
      ****** ****** ****** ****** ****** ****** ****** ****** ****** ******
      ****** ****** ****** ****** ****** ****** ****** ****** ****** ******
  19  ****** ****** ****** ****** ****** ****** ****** ****** ****** ******
      ****** ****** ****** ****** ****** ****** ****** ****** ****** ******
      ****** ****** ****** ****** ****** ****** ****** ****** ****** ******
  20  ****** ****** ****** ****** ****** ****** ****** ****** ****** ******
      ****** ****** ****** ****** ****** ****** ****** ****** ****** ******
      ****** ****** ****** ****** ****** ****** ****** ****** ****** ******
  21  ****** ****** ****** ****** ****** ****** ****** ****** ****** ******
      ****** ****** ****** ****** ****** ****** ****** ****** ****** ******
      ****** ****** ****** ****** ****** ****** ****** ****** ****** ******
  22  ****** ****** ****** ****** ****** ****** ****** ****** ****** ******
      ****** ****** ****** ****** ****** ****** ****** ****** ****** ******
      ****** ****** ****** ****** ****** ****** ****** ****** ****** ******
  23  ****** ****** ****** ****** ****** ****** ****** ****** ****** ******
      ****** ****** ****** ****** ****** ****** ****** ****** ****** ******
      ****** ****** ****** ****** ****** ****** ****** ****** ****** ******
  24  ****** ****** ****** ****** ****** ****** ****** ****** ****** ******
      ****** ****** ****** ****** ****** ****** ****** ****** ****** ******
      ****** ****** ****** ****** ****** ****** ****** ****** ****** ******
  25  ****** ****** ****** ****** ****** ****** ****** ****** ****** ******
      ****** ****** ****** ****** ****** ****** ****** ****** ****** ******
      ****** ****** ****** ****** ****** ****** ****** ****** ****** ******

 HEAD WILL BE SAVED ON UNIT   51 AT END OF TIME STEP    1, STRESS PERIOD   12
1
  VOLUMETRIC BUDGET FOR ENTIRE MODEL AT END OF TIME STEP    1, STRESS PERIOD  12
  ------------------------------------------------------------------------------

     CUMULATIVE VOLUMES      L**3       RATES FOR THIS TIME STEP      L**3/T
     ------------------                 ------------------------

           IN:                                      IN:
           ---                                      ---
             STORAGE =    21666014.2636               STORAGE =        1488.1632
       CONSTANT HEAD =  1324266582.7394         CONSTANT HEAD =     1208903.0138
               WELLS =           0.0000                 WELLS =           0.0000
            RECHARGE =    26413200.0000              RECHARGE =       27600.0000
      STREAM LEAKAGE =           0.0000        STREAM LEAKAGE =           0.0000

            TOTAL IN =  1372345797.0031              TOTAL IN =     1237991.1769

          OUT:                                     OUT:
          ----                                     ----
             STORAGE =     1698574.3925               STORAGE =        1984.0325
       CONSTANT HEAD =           0.0000         CONSTANT HEAD =           0.0000
               WELLS =    87600000.0000                 WELLS =       80000.0000
            RECHARGE =           0.0000              RECHARGE =           0.0000
      STREAM LEAKAGE =  1283047224.8872        STREAM LEAKAGE =     1156007.1825

           TOTAL OUT =  1372345799.2797             TOTAL OUT =     1237991.2150

            IN - OUT =          -2.2767              IN - OUT =      -3.8051E-02

 PERCENT DISCREPANCY =          -0.00     PERCENT DISCREPANCY =          -0.00






         TIME SUMMARY AT END OF TIME STEP    1 IN STRESS PERIOD   12
                    SECONDS     MINUTES      HOURS       DAYS        YEARS
                    -----------------------------------------------------------
   TIME STEP LENGTH 7.86240E+06 1.31040E+05  2184.0      91.000     0.24914    
 STRESS PERIOD TIME 7.86240E+06 1.31040E+05  2184.0      91.000     0.24914    
         TOTAL TIME 9.46080E+07 1.57680E+06  26280.      1095.0      2.9979    
1

 Run end date and time (yyyy/mm/dd hh:mm:ss): 2018/09/26 14:00:40
 Elapsed run time:  0.069 Seconds

