                                  MODFLOW-2005     
      U.S. GEOLOGICAL SURVEY MODULAR FINITE-DIFFERENCE GROUND-WATER FLOW MODEL
                            VERSION 1.11.00 8/8/2013

 LIST FILE: supply2.lst
                         UNIT   10

 OPENING ..\data\supply.dis
 FILE TYPE:DIS   UNIT   11   STATUS:OLD    
 FORMAT:FORMATTED              ACCESS:SEQUENTIAL          

 OPENING ..\data\supply.ba6
 FILE TYPE:BAS6   UNIT   12   STATUS:OLD    
 FORMAT:FORMATTED              ACCESS:SEQUENTIAL          

 OPENING ..\data\supply.bc6
 FILE TYPE:BCF6   UNIT   13   STATUS:OLD    
 FORMAT:FORMATTED              ACCESS:SEQUENTIAL          

 OPENING ..\data\supply.rch
 FILE TYPE:RCH   UNIT   15   STATUS:OLD    
 FORMAT:FORMATTED              ACCESS:SEQUENTIAL          

 OPENING ..\data\supply2.sfr
 FILE TYPE:SFR   UNIT   16   STATUS:OLD    
 FORMAT:FORMATTED              ACCESS:SEQUENTIAL          

 OPENING ..\data\supply.oc
 FILE TYPE:OC   UNIT   17   STATUS:OLD    
 FORMAT:FORMATTED              ACCESS:SEQUENTIAL          

 OPENING ..\data\supply.pcg
 FILE TYPE:PCG   UNIT   18   STATUS:OLD    
 FORMAT:FORMATTED              ACCESS:SEQUENTIAL          

 OPENING supply2.wel
 FILE TYPE:WEL   UNIT   19   STATUS:OLD    
 FORMAT:FORMATTED              ACCESS:SEQUENTIAL          

 OPENING supply2sf.cbc
 FILE TYPE:DATA(BINARY)   UNIT   50   STATUS:UNKNOWN
 FORMAT:BINARY                 ACCESS:SEQUENTIAL          

 OPENING supply2hd.bhd
 FILE TYPE:DATA(BINARY)   UNIT   51   STATUS:UNKNOWN
 FORMAT:BINARY                 ACCESS:SEQUENTIAL          

 BAS -- BASIC PACKAGE, VERSION 7, 5/2/2005 INPUT READ FROM UNIT   12
 
 MODFLOW was compiled using uniform precision
 Precision of REAL and DOUBLE PRECISION variables:          15

 DISCRETIZATION INPUT DATA READ FROM UNIT   11
    1 LAYERS        25 ROWS        30 COLUMNS
   12 STRESS PERIOD(S) IN SIMULATION
 MODEL TIME UNIT IS DAYS
 MODEL LENGTH UNIT IS UNDEFINED
  Confining bed flag for each layer:
   0

                     DELR =   200.000    

                     DELC =   200.000    

 TOP ELEVATION OF LAYER 1 =  100.0000    

   MODEL LAYER BOTTOM EL. =   0.00000     FOR LAYER   1


 STRESS PERIOD     LENGTH       TIME STEPS     MULTIPLIER FOR DELT    SS FLAG
 ----------------------------------------------------------------------------
        1         92.00000          1                    1.500         TR
        2         91.00000          1                    1.500         TR
        3         91.00000          1                    1.500         TR
        4         91.00000          1                    1.500         TR
        5         92.00000          1                    1.500         TR
        6         91.00000          1                    1.500         TR
        7         91.00000          1                    1.500         TR
        8         91.00000          1                    1.500         TR
        9         92.00000          1                    1.500         TR
       10         91.00000          1                    1.500         TR
       11         91.00000          1                    1.500         TR
       12         91.00000          1                    1.500         TR

 TRANSIENT SIMULATION



 
 #MODOFC transient water supply sample problem                                   
 #                                                                               
 THE FREE FORMAT OPTION HAS BEEN SELECTED



                     BOUNDARY ARRAY FOR LAYER   1
 READING ON UNIT   12 WITH FORMAT: (20I4)              

 AQUIFER HEAD WILL BE SET TO   0.0000     AT ALL NO-FLOW NODES (IBOUND=0).



                       INITIAL HEAD FOR LAYER   1
 READING ON UNIT   12 WITH FORMAT: (10F13.0)           

 OUTPUT CONTROL IS SPECIFIED ONLY AT TIME STEPS FOR WHICH OUTPUT IS DESIRED
 COMPACT CELL-BY-CELL BUDGET FILES WILL BE WRITTEN
 HEAD PRINT FORMAT CODE IS  18    DRAWDOWN PRINT FORMAT CODE IS   0
 HEADS WILL BE SAVED ON UNIT   51    DRAWDOWNS WILL BE SAVED ON UNIT    0

 BCF -- BLOCK-CENTERED FLOW PACKAGE, VERSION 7, 5/2/2005
         INPUT READ FROM UNIT 13
 TRANSIENT SIMULATION
 HEAD AT CELLS THAT CONVERT TO DRY=   0.0000    
 WETTING CAPABILITY IS NOT ACTIVE
      LAYER  LAYER-TYPE CODE     INTERBLOCK T
      --------------------------------------------
         1            0          0 -- HARMONIC    

 COLUMN TO ROW ANISOTROPY =  1.000000    

     PRIMARY STORAGE COEF =  5.000000E-02 FOR LAYER   1

     TRANSMIS. ALONG ROWS =   500.000     FOR LAYER   1

 WEL -- WELL PACKAGE, VERSION 7, 5/2/2005 INPUT READ FROM UNIT   19
 # Well package input file written by MMProc
 No named parameters
 MAXIMUM OF      4 ACTIVE WELLS AT ONE TIME


     0 Well parameters

 RCH -- RECHARGE PACKAGE, VERSION 7, 5/2/2005 INPUT READ FROM UNIT   15
 No named parameters
 OPTION 1 -- RECHARGE TO TOP LAYER


     0 Recharge parameters

 SFR7 -- STREAMFLOW ROUTING PACKAGE, VERSION 1.0.7, 2013-01-15
         INPUT READ FROM UNIT  16
 #  Supply2 test problem for GWM-VI
 #  The eighth entry in the first data line is ISTCB2 -
 #    Setting this to a negative number indicates that
 #    streamflows out of the reach will be saved to a
 #    binary file.  The absolute value of ISTCB2 is the
 #    unit to which unformatted flows will be written.
 #
 No named parameters
 Segment information will not be 
 read by reach
 No named parameters
 No specifed inflow files


 NUMBER OF STREAM REACHES IS   40

 NUMBER OF STREAM SEGMENTS IS    3

 NUMBER OF STREAM PARAMETERS IS    0

 NUMBER OF STREAM SEGMENTS DEFINED USING PARAMETERS IS              0

 MAXIMUM ERROR FOR STREAM LEAKAGE RATES IS  1.00E-04

 CONSTANT FOR MANNINGS EQUATION IS  1.2839E+05





   STREAM NETWORK DESCRIPTION: 

   LAYER    ROW    COL   SEGMENT   REACH     LENGTH
                          NUMBER   NUMBER    IN CELL        
   --------------------------------------------------
      1     13      1       1        1    2.0000E+02
      1     13      2       1        2    2.0000E+02
      1     14      3       1        3    2.0000E+02
      1     15      4       1        4    2.0000E+02
      1     16      5       1        5    2.0000E+02
      1     16      6       1        6    2.0000E+02
      1     16      7       1        7    2.0000E+02
      1     16      8       1        8    2.0000E+02
      1     16      9       1        9    2.0000E+02
      1     16     10       1       10    2.0000E+02
      1     16     11       1       11    2.0000E+02
      1     16     12       1       12    2.0000E+02
      1     15     13       1       13    2.0000E+02
      1     14     14       1       14    2.0000E+02
      1     13     15       1       15    2.0000E+02
      1     12     16       1       16    2.0000E+02
      1     12     17       1       17    2.0000E+02
      1     12     18       1       18    2.0000E+02
      1     12     19       1       19    2.0000E+02
      1     13     20       1       20    2.0000E+02
      1     14     21       1       21    2.0000E+02
      1     14     22       1       22    2.0000E+02
      1      9     30       2        1    2.0000E+02
      1      9     29       2        2    2.0000E+02
      1      9     28       2        3    2.0000E+02
      1      9     27       2        4    2.0000E+02
      1     10     26       2        5    2.0000E+02
      1     11     25       2        6    2.0000E+02
      1     12     24       2        7    2.0000E+02
      1     13     23       2        8    2.0000E+02
      1     14     22       2        9    2.0000E+02
      1     14     22       3        1    2.0000E+02
      1     15     23       3        2    2.0000E+02
      1     15     24       3        3    2.0000E+02
      1     15     25       3        4    2.0000E+02
      1     15     26       3        5    2.0000E+02
      1     16     27       3        6    2.0000E+02
      1     17     28       3        7    2.0000E+02
      1     18     29       3        8    2.0000E+02
      1     18     30       3        9    2.0000E+02




 PCG -- CONJUGATE-GRADIENT SOLUTION PACKAGE, VERSION 7, 5/2/2005
 MAXIMUM OF    500 CALLS OF SOLUTION ROUTINE
 MAXIMUM OF      5 INTERNAL ITERATIONS PER CALL TO SOLUTION ROUTINE
 MATRIX PRECONDITIONING TYPE :    1



                                    SOLUTION BY THE CONJUGATE-GRADIENT METHOD
                                   -------------------------------------------
                    MAXIMUM NUMBER OF CALLS TO PCG ROUTINE =      500
                        MAXIMUM ITERATIONS PER CALL TO PCG =        5
                               MATRIX PRECONDITIONING TYPE =        1
        RELAXATION FACTOR (ONLY USED WITH PRECOND. TYPE 1) =    0.10000E+01
 PARAMETER OF POLYNOMIAL PRECOND. = 2 (2) OR IS CALCULATED :        0
                         HEAD CHANGE CRITERION FOR CLOSURE =    0.10000E-05
                     RESIDUAL CHANGE CRITERION FOR CLOSURE =    0.10000E+01
            PCG HEAD AND RESIDUAL CHANGE PRINTOUT INTERVAL =        1
     PRINTING FROM SOLVER IS LIMITED(1) OR SUPPRESSED (>1) =        1
                            STEADY-STATE DAMPING PARAMETER =    0.10000E+01
                               TRANSIENT DAMPING PARAMETER =    0.10000E+01
1
                            STRESS PERIOD NO.    1, LENGTH =   92.00000    
                            -----------------------------------------------

                              NUMBER OF TIME STEPS =     1

                               MULTIPLIER FOR DELT =     1.500

                            INITIAL TIME STEP SIZE =   92.00000    

 WELL NO.  LAYER   ROW   COL   STRESS RATE         
 --------------------------------------------------
      1      1     21     15      -9504.    
      2      1     23     15     -0.2528E+05
      3      1     23     11     -0.3088E+05
      4      1     21     17     -0.2263E+05

      4 WELLS

                 RECHARGE =  5.000000E-04



 CLASSIFICATION & COUNT OF STREAM SEGMENTS BASED ON SOURCE OF INFLOW:

                HEADWATER     DIVERSION     RECEIVES TRIBUTARY FLOW
                ---------     ---------     -----------------------
                     2              0               1



                    INPUT DATA FOR EACH STREAM SEGMENT
 ---------------------------------------------------------------------------------------------

 SEGMENT    SEG.     INFLOW   OVERLAND   STREAM    STREAM   ICALC  OUTFLOW  DIVERSION PRIORITY
    NO.    LENGTH     RATE     RUNOFF      ET       PPT.    METH.  TO SEG.  FROM SEG.    NO.

      1  4.400E+03 1.000E+05 0.000E+00 0.000E+00 0.000E+00    1        3        0        0
      2  1.800E+03 5.000E+04 0.000E+00 0.000E+00 0.000E+00    1        3        0        0
      3  1.800E+03 0.000E+00 0.000E+00 0.000E+00 0.000E+00    1        0        0        0


         STREAMBED PROPERTIES AND STREAM DIMENSIONS

 SEGMENT     BED HYD. COND.      BED THICKNESS     ELEV.-TOP OF BED     WIDTH OF STREAM     DEPTH OF STREAM    STREAM ROUGHNESS
    No.     UPPER     LOWER     UPPER     LOWER     UPPER     LOWER     UPPER     LOWER     UPPER     LOWER   CHANNEL      BANK

     1  5.000E+00 5.000E+00 1.000E+00 1.000E+00 4.850E+01 3.800E+01 2.000E+01 2.000E+01                     5.000E-02
     2  5.000E+00 5.000E+00 1.000E+00 1.000E+00 4.025E+01 3.800E+01 2.000E+01 2.000E+01                     5.000E-02
     3  5.000E+00 5.000E+00 1.000E+00 1.000E+00 3.800E+01 3.000E+01 2.000E+01 2.000E+01                     5.000E-02



 
 SOLVING FOR HEAD 


     8 CALLS TO PCG ROUTINE FOR TIME STEP   1 IN STRESS PERIOD    1
    34 TOTAL ITERATIONS

 OUTPUT CONTROL FOR STRESS PERIOD    1   TIME STEP    1
    SAVE BUDGET
    SAVE HEAD FOR ALL LAYERS
    PRINT HEAD FOR ALL LAYERS
 UBDSV2 SAVING "STREAMFLOW OUT  " ON UNIT  50 AT TIME STEP  1, STRESS PERIOD   1



 STREAM LISTING     PERIOD      1   STEP        1

 LAYER ROW COL. STREAM  RCH.  FLOW INTO     FLOW TO   FLOW OUT OF   OVRLND.     DIRECT     STREAM       STREAM     STREAM     STREAM   STREAMBED  STREAMBED
                SEG.NO.  NO.  STRM. RCH.    AQUIFER    STRM. RCH.    RUNOFF     PRECIP       ET          HEAD       DEPTH      WIDTH   CONDCTNC.   GRADIENT

   1   13    1     1     1    1.0000E+05 -5.7323E+03   1.0573E+05  0.000E+00  0.000E+00  0.000E+00  4.84085E+01  1.471E-01  2.000E+01  2.000E+04 -2.866E-01
   1   13    2     1     2    1.0573E+05 -8.5849E+03   1.1432E+05  0.000E+00  0.000E+00  0.000E+00  4.79373E+01  1.532E-01  2.000E+01  2.000E+04 -4.292E-01
   1   14    3     1     3    1.1432E+05 -7.8289E+03   1.2215E+05  0.000E+00  0.000E+00  0.000E+00  4.74668E+01  1.599E-01  2.000E+01  2.000E+04 -3.914E-01
   1   15    4     1     4    1.2215E+05 -7.6094E+03   1.2976E+05  0.000E+00  0.000E+00  0.000E+00  4.69957E+01  1.661E-01  2.000E+01  2.000E+04 -3.805E-01
   1   16    5     1     5    1.2976E+05 -7.2346E+03   1.3699E+05  0.000E+00  0.000E+00  0.000E+00  4.65242E+01  1.719E-01  2.000E+01  2.000E+04 -3.617E-01
   1   16    6     1     6    1.3699E+05 -5.7360E+03   1.4273E+05  0.000E+00  0.000E+00  0.000E+00  4.60519E+01  1.769E-01  2.000E+01  2.000E+04 -2.868E-01
   1   16    7     1     7    1.4273E+05 -5.7835E+03   1.4851E+05  0.000E+00  0.000E+00  0.000E+00  4.55790E+01  1.812E-01  2.000E+01  2.000E+04 -2.892E-01
   1   16    8     1     8    1.4851E+05 -5.7482E+03   1.5426E+05  0.000E+00  0.000E+00  0.000E+00  4.51060E+01  1.855E-01  2.000E+01  2.000E+04 -2.874E-01
   1   16    9     1     9    1.5426E+05 -5.6154E+03   1.5987E+05  0.000E+00  0.000E+00  0.000E+00  4.46328E+01  1.897E-01  2.000E+01  2.000E+04 -2.808E-01
   1   16   10     1    10    1.5987E+05 -5.3902E+03   1.6526E+05  0.000E+00  0.000E+00  0.000E+00  4.41595E+01  1.936E-01  2.000E+01  2.000E+04 -2.695E-01
   1   16   11     1    11    1.6526E+05 -5.0832E+03   1.7035E+05  0.000E+00  0.000E+00  0.000E+00  4.36860E+01  1.973E-01  2.000E+01  2.000E+04 -2.542E-01
   1   16   12     1    12    1.7035E+05 -5.9217E+03   1.7627E+05  0.000E+00  0.000E+00  0.000E+00  4.32126E+01  2.012E-01  2.000E+01  2.000E+04 -2.961E-01
   1   15   13     1    13    1.7627E+05 -6.9286E+03   1.8320E+05  0.000E+00  0.000E+00  0.000E+00  4.27397E+01  2.056E-01  2.000E+01  2.000E+04 -3.464E-01
   1   14   14     1    14    1.8320E+05 -7.5653E+03   1.9076E+05  0.000E+00  0.000E+00  0.000E+00  4.22674E+01  2.106E-01  2.000E+01  2.000E+04 -3.783E-01
   1   13   15     1    15    1.9076E+05 -8.1198E+03   1.9888E+05  0.000E+00  0.000E+00  0.000E+00  4.17954E+01  2.158E-01  2.000E+01  2.000E+04 -4.060E-01
   1   12   16     1    16    1.9888E+05 -9.2452E+03   2.0813E+05  0.000E+00  0.000E+00  0.000E+00  4.13238E+01  2.215E-01  2.000E+01  2.000E+04 -4.623E-01
   1   12   17     1    17    2.0813E+05 -6.4018E+03   2.1453E+05  0.000E+00  0.000E+00  0.000E+00  4.08516E+01  2.266E-01  2.000E+01  2.000E+04 -3.201E-01
   1   12   18     1    18    2.1453E+05 -6.2390E+03   2.2077E+05  0.000E+00  0.000E+00  0.000E+00  4.03784E+01  2.307E-01  2.000E+01  2.000E+04 -3.120E-01
   1   12   19     1    19    2.2077E+05 -7.9884E+03   2.2876E+05  0.000E+00  0.000E+00  0.000E+00  3.99056E+01  2.352E-01  2.000E+01  2.000E+04 -3.994E-01
   1   13   20     1    20    2.2876E+05 -6.3026E+03   2.3506E+05  0.000E+00  0.000E+00  0.000E+00  3.94328E+01  2.396E-01  2.000E+01  2.000E+04 -3.151E-01
   1   14   21     1    21    2.3506E+05 -4.9829E+03   2.4004E+05  0.000E+00  0.000E+00  0.000E+00  3.89590E+01  2.431E-01  2.000E+01  2.000E+04 -2.491E-01
   1   14   22     1    22    2.4004E+05  4.3851E+03   2.3566E+05  0.000E+00  0.000E+00  0.000E+00  3.84819E+01  2.433E-01  2.000E+01  2.000E+04  2.193E-01
   1    9   30     2     1    5.0000E+04 -5.5713E+03   5.5571E+04  0.000E+00  0.000E+00  0.000E+00  4.02447E+01  1.197E-01  2.000E+01  2.000E+04 -2.786E-01
   1    9   29     2     2    5.5571E+04 -5.8704E+03   6.1442E+04  0.000E+00  0.000E+00  0.000E+00  4.00023E+01  1.273E-01  2.000E+01  2.000E+04 -2.935E-01
   1    9   28     2     3    6.1442E+04 -6.1945E+03   6.7636E+04  0.000E+00  0.000E+00  0.000E+00  3.97600E+01  1.350E-01  2.000E+01  2.000E+04 -3.097E-01
   1    9   27     2     4    6.7636E+04 -9.5876E+03   7.7224E+04  0.000E+00  0.000E+00  0.000E+00  3.95197E+01  1.447E-01  2.000E+01  2.000E+04 -4.794E-01
   1   10   26     2     5    7.7224E+04 -7.7182E+03   8.4942E+04  0.000E+00  0.000E+00  0.000E+00  3.92799E+01  1.549E-01  2.000E+01  2.000E+04 -3.859E-01
   1   11   25     2     6    8.4942E+04 -6.5924E+03   9.1534E+04  0.000E+00  0.000E+00  0.000E+00  3.90379E+01  1.629E-01  2.000E+01  2.000E+04 -3.296E-01
   1   12   24     2     7    9.1534E+04 -5.3328E+03   9.6867E+04  0.000E+00  0.000E+00  0.000E+00  3.87944E+01  1.694E-01  2.000E+01  2.000E+04 -2.666E-01
   1   13   23     2     8    9.6867E+04 -3.7846E+03   1.0065E+05  0.000E+00  0.000E+00  0.000E+00  3.85493E+01  1.743E-01  2.000E+01  2.000E+04 -1.892E-01
   1   14   22     2     9    1.0065E+05  7.6482E+02   9.9887E+04  0.000E+00  0.000E+00  0.000E+00  3.83009E+01  1.759E-01  2.000E+01  2.000E+04  3.824E-02
   1   14   22     3     1    3.3554E+05 -9.1383E+03   3.4468E+05  0.000E+00  0.000E+00  0.000E+00  3.78057E+01  2.502E-01  2.000E+01  2.000E+04 -4.569E-01
   1   15   23     3     2    3.4468E+05 -5.4807E+03   3.5016E+05  0.000E+00  0.000E+00  0.000E+00  3.69201E+01  2.534E-01  2.000E+01  2.000E+04 -2.740E-01
   1   15   24     3     3    3.5016E+05 -4.1486E+03   3.5431E+05  0.000E+00  0.000E+00  0.000E+00  3.60333E+01  2.555E-01  2.000E+01  2.000E+04 -2.074E-01
   1   15   25     3     4    3.5431E+05 -4.2231E+03   3.5853E+05  0.000E+00  0.000E+00  0.000E+00  3.51462E+01  2.573E-01  2.000E+01  2.000E+04 -2.112E-01
   1   15   26     3     5    3.5853E+05 -5.6003E+03   3.6414E+05  0.000E+00  0.000E+00  0.000E+00  3.42594E+01  2.594E-01  2.000E+01  2.000E+04 -2.800E-01
   1   16   27     3     6    3.6414E+05 -7.1485E+03   3.7128E+05  0.000E+00  0.000E+00  0.000E+00  3.33733E+01  2.622E-01  2.000E+01  2.000E+04 -3.574E-01
   1   17   28     3     7    3.7128E+05 -7.9416E+03   3.7923E+05  0.000E+00  0.000E+00  0.000E+00  3.24876E+01  2.654E-01  2.000E+01  2.000E+04 -3.971E-01
   1   18   29     3     8    3.7923E+05 -9.0057E+03   3.8823E+05  0.000E+00  0.000E+00  0.000E+00  3.16023E+01  2.690E-01  2.000E+01  2.000E+04 -4.503E-01
   1   18   30     3     9    3.8823E+05 -7.4948E+03   3.9573E+05  0.000E+00  0.000E+00  0.000E+00  3.07169E+01  2.724E-01  2.000E+01  2.000E+04 -3.747E-01



1
              HEAD IN LAYER   1 AT END OF TIME STEP   1 IN STRESS PERIOD    1
  ---------------------------------------------------------------------------

          1      2      3      4      5      6      7      8      9     10
         11     12     13     14     15     16     17     18     19     20
         21     22     23     24     25     26     27     28     29     30
 .........................................................................
   1  ****** ****** ****** ****** ****** ****** ****** ****** ****** ******
      ****** ****** ****** ****** ****** ****** ****** ****** ****** ******
      ****** ****** ****** ****** ****** ****** ****** ****** ****** ******
   2  ****** ****** ****** ****** ****** ****** ****** ****** ****** ******
      ****** ****** ****** ****** ****** ****** ****** ****** ****** ******
      ****** ****** ****** ****** ****** ****** ****** ****** ****** ******
   3  ****** ****** ****** ****** ****** ****** ****** ****** ****** ******
      ****** ****** ****** ****** ****** ****** ****** ****** ****** ******
      ****** ****** ****** ****** ****** ****** ****** ****** ****** ******
   4  ****** ****** ****** ****** ****** ****** ****** ****** ****** ******
      ****** ****** ****** ****** ****** ****** ****** ****** ****** ******
      ****** ****** ****** ****** ****** ****** ****** ****** ****** ******
   5  ****** ****** ****** ****** ****** ****** ****** ****** ****** ******
      ****** ****** ****** ****** ****** ****** ****** ****** ****** ******
      ****** ****** ****** ****** ****** ****** ****** ****** ****** ******
   6  ****** ****** ****** ****** ****** ****** ****** ****** ****** ******
      ****** ****** ****** ****** ****** ****** ****** ****** ****** ******
      ****** ****** ****** ****** ****** ****** ****** ****** ****** ******
   7  ****** ****** ****** ****** ****** ****** ****** ****** ****** ******
      ****** ****** ****** ****** ****** ****** ****** ****** ****** ******
      ****** ****** ****** ****** ****** ****** ****** ****** ****** ******
   8  ****** ****** ****** ****** ****** ****** ****** ****** ****** ******
      ****** ****** ****** ****** ****** ****** ****** ****** ****** ******
      ****** ****** ****** ****** ****** ****** ****** ****** ****** ******
   9  ****** ****** ****** ****** ****** ****** ****** ****** ****** ******
      ****** ****** ****** ****** ****** ****** ****** ****** ****** ******
      ****** ****** ****** ****** ****** ****** ****** ****** ****** ******
  10  ****** ****** ****** ****** ****** ****** ****** ****** ****** ******
      ****** ****** ****** ****** ****** ****** ****** ****** ****** ******
      ****** ****** ****** ****** ****** ****** ****** ****** ****** ******
  11  ****** ****** ****** ****** ****** ****** ****** ****** ****** ******
      ****** ****** ****** ****** ****** ****** ****** ****** ****** ******
      ****** ****** ****** ****** ****** ****** ****** ****** ****** ******
  12  ****** ****** ****** ****** ****** ****** ****** ****** ****** ******
      ****** ****** ****** ****** ****** ****** ****** ****** ****** ******
      ****** ****** ****** ****** ****** ****** ****** ****** ****** ******
  13  ****** ****** ****** ****** ****** ****** ****** ****** ****** ******
      ****** ****** ****** ****** ****** ****** ****** ****** ****** ******
      ****** ****** ****** ****** ****** ****** ****** ****** ****** ******
  14  ****** ****** ****** ****** ****** ****** ****** ****** ****** ******
      ****** ****** ****** ****** ****** ****** ****** ****** ****** ******
      ****** ****** ****** ****** ****** ****** ****** ****** ****** ******
  15  ****** ****** ****** ****** ****** ****** ****** ****** ****** ******
      ****** ****** ****** ****** ****** ****** ****** ****** ****** ******
      ****** ****** ****** ****** ****** ****** ****** ****** ****** ******
  16  ****** ****** ****** ****** ****** ****** ****** ****** ****** ******
      ****** ****** ****** ****** ****** ****** ****** ****** ****** ******
      ****** ****** ****** ****** ****** ****** ****** ****** ****** ******
  17  ****** ****** ****** ****** ****** ****** ****** ****** ****** ******
      ****** ****** ****** ****** ****** ****** ****** ****** ****** ******
      ****** ****** ****** ****** ****** ****** ****** ****** ****** ******
  18  ****** ****** ****** ****** ****** ****** ****** ****** ****** ******
      ****** ****** ****** ****** ****** ****** ****** ****** ****** ******
      ****** ****** ****** ****** ****** ****** ****** ****** ****** ******
  19  ****** ****** ****** ****** ****** ****** ****** ****** ****** ******
      ****** ****** ****** ****** ****** ****** ****** ****** ****** ******
      ****** ****** ****** ****** ****** ****** ****** ****** ****** ******
  20  ****** ****** ****** ****** ****** ****** ****** ****** ****** ******
      ****** ****** ****** ****** ****** ****** ****** ****** ****** ******
      ****** ****** ****** ****** ****** ****** ****** ****** ****** ******
  21  ****** ****** ****** ****** ****** ****** ****** ****** ****** ******
      ****** ****** ****** ****** ****** ****** ****** ****** ****** ******
      ****** ****** ****** ****** ****** ****** ****** ****** ****** ******
  22  ****** ****** ****** ****** ****** ****** ****** ****** ****** ******
      ****** ****** ****** ****** ****** ****** ****** ****** ****** ******
      ****** ****** ****** ****** ****** ****** ****** ****** ****** ******
  23  ****** ****** ****** ****** ****** ****** ****** ****** ****** ******
      ****** ****** ****** ****** ****** ****** ****** ****** ****** ******
      ****** ****** ****** ****** ****** ****** ****** ****** ****** ******
  24  ****** ****** ****** ****** ****** ****** ****** ****** ****** ******
      ****** ****** ****** ****** ****** ****** ****** ****** ****** ******
      ****** ****** ****** ****** ****** ****** ****** ****** ****** ******
  25  ****** ****** ****** ****** ****** ****** ****** ****** ****** ******
      ****** ****** ****** ****** ****** ****** ****** ****** ****** ******
      ****** ****** ****** ****** ****** ****** ****** ****** ****** ******

 HEAD WILL BE SAVED ON UNIT   51 AT END OF TIME STEP    1, STRESS PERIOD    1
1
  VOLUMETRIC BUDGET FOR ENTIRE MODEL AT END OF TIME STEP    1, STRESS PERIOD   1
  ------------------------------------------------------------------------------

     CUMULATIVE VOLUMES      L**3       RATES FOR THIS TIME STEP      L**3/T
     ------------------                 ------------------------

           IN:                                      IN:
           ---                                      ---
             STORAGE =    17654739.2329               STORAGE =      191899.3395
       CONSTANT HEAD =    11805536.1608         CONSTANT HEAD =      128321.0452
               WELLS =           0.0000                 WELLS =           0.0000
            RECHARGE =     1269600.0000              RECHARGE =       13800.0000
      STREAM LEAKAGE =      473791.0578        STREAM LEAKAGE =        5149.9028

            TOTAL IN =    31203666.4514              TOTAL IN =      339170.2875

          OUT:                                     OUT:
          ----                                     ----
             STORAGE =           0.0000               STORAGE =           0.0000
       CONSTANT HEAD =           0.0000         CONSTANT HEAD =           0.0000
               WELLS =     8123116.1159                 WELLS =       88294.7404
            RECHARGE =           0.0000              RECHARGE =           0.0000
      STREAM LEAKAGE =    23080550.4753        STREAM LEAKAGE =      250875.5486

           TOTAL OUT =    31203666.5912             TOTAL OUT =      339170.2890

            IN - OUT =          -0.1398              IN - OUT =      -1.5194E-03

 PERCENT DISCREPANCY =          -0.00     PERCENT DISCREPANCY =          -0.00






         TIME SUMMARY AT END OF TIME STEP    1 IN STRESS PERIOD    1
                    SECONDS     MINUTES      HOURS       DAYS        YEARS
                    -----------------------------------------------------------
   TIME STEP LENGTH 7.94880E+06 1.32480E+05  2208.0      92.000     0.25188    
 STRESS PERIOD TIME 7.94880E+06 1.32480E+05  2208.0      92.000     0.25188    
         TOTAL TIME 7.94880E+06 1.32480E+05  2208.0      92.000     0.25188    
1
1
                            STRESS PERIOD NO.    2, LENGTH =   91.00000    
                            -----------------------------------------------

                              NUMBER OF TIME STEPS =     1

                               MULTIPLIER FOR DELT =     1.500

                            INITIAL TIME STEP SIZE =   91.00000    

 WELL NO.  LAYER   ROW   COL   STRESS RATE         
 --------------------------------------------------
      1      1     21     15      -9504.    
      2      1     23     15     -0.2528E+05
      3      1     23     11     -0.3088E+05
      4      1     21     17     -0.2263E+05

      4 WELLS

                 RECHARGE =  2.000000E-03

 REUSING STREAM SEGMENT DATA FROM LAST STRESS PERIOD
 
 SOLVING FOR HEAD 


     7 CALLS TO PCG ROUTINE FOR TIME STEP   1 IN STRESS PERIOD    2
    27 TOTAL ITERATIONS

 OUTPUT CONTROL FOR STRESS PERIOD    2   TIME STEP    1
    SAVE BUDGET
    SAVE HEAD FOR ALL LAYERS
    PRINT HEAD FOR ALL LAYERS
 UBDSV2 SAVING "STREAMFLOW OUT  " ON UNIT  50 AT TIME STEP  1, STRESS PERIOD   2



 STREAM LISTING     PERIOD      2   STEP        1

 LAYER ROW COL. STREAM  RCH.  FLOW INTO     FLOW TO   FLOW OUT OF   OVRLND.     DIRECT     STREAM       STREAM     STREAM     STREAM   STREAMBED  STREAMBED
                SEG.NO.  NO.  STRM. RCH.    AQUIFER    STRM. RCH.    RUNOFF     PRECIP       ET          HEAD       DEPTH      WIDTH   CONDCTNC.   GRADIENT

   1   13    1     1     1    1.0000E+05 -3.8024E+03   1.0380E+05  0.000E+00  0.000E+00  0.000E+00  4.84077E+01  1.463E-01  2.000E+01  2.000E+04 -1.901E-01
   1   13    2     1     2    1.0380E+05 -6.1625E+03   1.0996E+05  0.000E+00  0.000E+00  0.000E+00  4.79346E+01  1.505E-01  2.000E+01  2.000E+04 -3.081E-01
   1   14    3     1     3    1.0996E+05 -5.0672E+03   1.1503E+05  0.000E+00  0.000E+00  0.000E+00  4.74621E+01  1.552E-01  2.000E+01  2.000E+04 -2.534E-01
   1   15    4     1     4    1.1503E+05 -4.8320E+03   1.1986E+05  0.000E+00  0.000E+00  0.000E+00  4.69889E+01  1.593E-01  2.000E+01  2.000E+04 -2.416E-01
   1   16    5     1     5    1.1986E+05 -4.7501E+03   1.2461E+05  0.000E+00  0.000E+00  0.000E+00  4.65154E+01  1.632E-01  2.000E+01  2.000E+04 -2.375E-01
   1   16    6     1     6    1.2461E+05 -3.6937E+03   1.2831E+05  0.000E+00  0.000E+00  0.000E+00  4.60415E+01  1.665E-01  2.000E+01  2.000E+04 -1.847E-01
   1   16    7     1     7    1.2831E+05 -3.6664E+03   1.3197E+05  0.000E+00  0.000E+00  0.000E+00  4.55672E+01  1.694E-01  2.000E+01  2.000E+04 -1.833E-01
   1   16    8     1     8    1.3197E+05 -3.5577E+03   1.3553E+05  0.000E+00  0.000E+00  0.000E+00  4.50927E+01  1.722E-01  2.000E+01  2.000E+04 -1.779E-01
   1   16    9     1     9    1.3553E+05 -3.3568E+03   1.3889E+05  0.000E+00  0.000E+00  0.000E+00  4.46181E+01  1.749E-01  2.000E+01  2.000E+04 -1.678E-01
   1   16   10     1    10    1.3889E+05 -3.0679E+03   1.4196E+05  0.000E+00  0.000E+00  0.000E+00  4.41432E+01  1.773E-01  2.000E+01  2.000E+04 -1.534E-01
   1   16   11     1    11    1.4196E+05 -2.6884E+03   1.4465E+05  0.000E+00  0.000E+00  0.000E+00  4.36681E+01  1.795E-01  2.000E+01  2.000E+04 -1.344E-01
   1   16   12     1    12    1.4465E+05 -2.6268E+03   1.4727E+05  0.000E+00  0.000E+00  0.000E+00  4.31929E+01  1.815E-01  2.000E+01  2.000E+04 -1.313E-01
   1   15   13     1    13    1.4727E+05 -3.4584E+03   1.5073E+05  0.000E+00  0.000E+00  0.000E+00  4.27178E+01  1.838E-01  2.000E+01  2.000E+04 -1.729E-01
   1   14   14     1    14    1.5073E+05 -4.1338E+03   1.5486E+05  0.000E+00  0.000E+00  0.000E+00  4.22434E+01  1.865E-01  2.000E+01  2.000E+04 -2.067E-01
   1   13   15     1    15    1.5486E+05 -4.8768E+03   1.5974E+05  0.000E+00  0.000E+00  0.000E+00  4.17694E+01  1.898E-01  2.000E+01  2.000E+04 -2.438E-01
   1   12   16     1    16    1.5974E+05 -6.5393E+03   1.6628E+05  0.000E+00  0.000E+00  0.000E+00  4.12962E+01  1.939E-01  2.000E+01  2.000E+04 -3.270E-01
   1   12   17     1    17    1.6628E+05 -4.1655E+03   1.7045E+05  0.000E+00  0.000E+00  0.000E+00  4.08227E+01  1.977E-01  2.000E+01  2.000E+04 -2.083E-01
   1   12   18     1    18    1.7045E+05 -4.0129E+03   1.7446E+05  0.000E+00  0.000E+00  0.000E+00  4.03483E+01  2.006E-01  2.000E+01  2.000E+04 -2.006E-01
   1   12   19     1    19    1.7446E+05 -5.3694E+03   1.7983E+05  0.000E+00  0.000E+00  0.000E+00  3.98743E+01  2.039E-01  2.000E+01  2.000E+04 -2.685E-01
   1   13   20     1    20    1.7983E+05 -3.3745E+03   1.8320E+05  0.000E+00  0.000E+00  0.000E+00  3.94000E+01  2.069E-01  2.000E+01  2.000E+04 -1.687E-01
   1   14   21     1    21    1.8320E+05 -2.2722E+03   1.8547E+05  0.000E+00  0.000E+00  0.000E+00  3.89247E+01  2.088E-01  2.000E+01  2.000E+04 -1.136E-01
   1   14   22     1    22    1.8547E+05  4.9496E+03   1.8053E+05  0.000E+00  0.000E+00  0.000E+00  3.84465E+01  2.079E-01  2.000E+01  2.000E+04  2.475E-01
   1    9   30     2     1    5.0000E+04 -3.4579E+03   5.3458E+04  0.000E+00  0.000E+00  0.000E+00  4.02433E+01  1.183E-01  2.000E+01  2.000E+04 -1.729E-01
   1    9   29     2     2    5.3458E+04 -3.7819E+03   5.7240E+04  0.000E+00  0.000E+00  0.000E+00  3.99982E+01  1.232E-01  2.000E+01  2.000E+04 -1.891E-01
   1    9   28     2     3    5.7240E+04 -4.1578E+03   6.1398E+04  0.000E+00  0.000E+00  0.000E+00  3.97534E+01  1.284E-01  2.000E+01  2.000E+04 -2.079E-01
   1    9   27     2     4    6.1398E+04 -7.1641E+03   6.8562E+04  0.000E+00  0.000E+00  0.000E+00  3.95106E+01  1.356E-01  2.000E+01  2.000E+04 -3.582E-01
   1   10   26     2     5    6.8562E+04 -4.8341E+03   7.3396E+04  0.000E+00  0.000E+00  0.000E+00  3.92680E+01  1.430E-01  2.000E+01  2.000E+04 -2.417E-01
   1   11   25     2     6    7.3396E+04 -3.7373E+03   7.7133E+04  0.000E+00  0.000E+00  0.000E+00  3.90231E+01  1.481E-01  2.000E+01  2.000E+04 -1.869E-01
   1   12   24     2     7    7.7133E+04 -2.7445E+03   7.9878E+04  0.000E+00  0.000E+00  0.000E+00  3.87769E+01  1.519E-01  2.000E+01  2.000E+04 -1.372E-01
   1   13   23     2     8    7.9878E+04 -1.6952E+03   8.1573E+04  0.000E+00  0.000E+00  0.000E+00  3.85294E+01  1.544E-01  2.000E+01  2.000E+04 -8.476E-02
   1   14   22     2     9    8.1573E+04  1.6093E+03   7.9964E+04  0.000E+00  0.000E+00  0.000E+00  3.82795E+01  1.545E-01  2.000E+01  2.000E+04  8.047E-02
   1   14   22     3     1    2.6049E+05 -8.5637E+03   2.6905E+05  0.000E+00  0.000E+00  0.000E+00  3.77708E+01  2.153E-01  2.000E+01  2.000E+04 -4.282E-01
   1   15   23     3     2    2.6905E+05 -3.0528E+03   2.7211E+05  0.000E+00  0.000E+00  0.000E+00  3.68848E+01  2.181E-01  2.000E+01  2.000E+04 -1.526E-01
   1   15   24     3     3    2.7211E+05 -2.3083E+03   2.7441E+05  0.000E+00  0.000E+00  0.000E+00  3.59972E+01  2.194E-01  2.000E+01  2.000E+04 -1.154E-01
   1   15   25     3     4    2.7441E+05 -2.2982E+03   2.7671E+05  0.000E+00  0.000E+00  0.000E+00  3.51094E+01  2.205E-01  2.000E+01  2.000E+04 -1.149E-01
   1   15   26     3     5    2.7671E+05 -2.9411E+03   2.7965E+05  0.000E+00  0.000E+00  0.000E+00  3.42218E+01  2.218E-01  2.000E+01  2.000E+04 -1.471E-01
   1   16   27     3     6    2.7965E+05 -4.0134E+03   2.8367E+05  0.000E+00  0.000E+00  0.000E+00  3.33345E+01  2.234E-01  2.000E+01  2.000E+04 -2.007E-01
   1   17   28     3     7    2.8367E+05 -4.8638E+03   2.8853E+05  0.000E+00  0.000E+00  0.000E+00  3.24478E+01  2.255E-01  2.000E+01  2.000E+04 -2.432E-01
   1   18   29     3     8    2.8853E+05 -6.4751E+03   2.9501E+05  0.000E+00  0.000E+00  0.000E+00  3.15615E+01  2.282E-01  2.000E+01  2.000E+04 -3.238E-01
   1   18   30     3     9    2.9501E+05 -5.3877E+03   3.0039E+05  0.000E+00  0.000E+00  0.000E+00  3.06754E+01  2.310E-01  2.000E+01  2.000E+04 -2.694E-01



1
              HEAD IN LAYER   1 AT END OF TIME STEP   1 IN STRESS PERIOD    2
  ---------------------------------------------------------------------------

          1      2      3      4      5      6      7      8      9     10
         11     12     13     14     15     16     17     18     19     20
         21     22     23     24     25     26     27     28     29     30
 .........................................................................
   1  ****** ****** ****** ****** ****** ****** ****** ****** ****** ******
      ****** ****** ****** ****** ****** ****** ****** ****** ****** ******
      ****** ****** ****** ****** ****** ****** ****** ****** ****** ******
   2  ****** ****** ****** ****** ****** ****** ****** ****** ****** ******
      ****** ****** ****** ****** ****** ****** ****** ****** ****** ******
      ****** ****** ****** ****** ****** ****** ****** ****** ****** ******
   3  ****** ****** ****** ****** ****** ****** ****** ****** ****** ******
      ****** ****** ****** ****** ****** ****** ****** ****** ****** ******
      ****** ****** ****** ****** ****** ****** ****** ****** ****** ******
   4  ****** ****** ****** ****** ****** ****** ****** ****** ****** ******
      ****** ****** ****** ****** ****** ****** ****** ****** ****** ******
      ****** ****** ****** ****** ****** ****** ****** ****** ****** ******
   5  ****** ****** ****** ****** ****** ****** ****** ****** ****** ******
      ****** ****** ****** ****** ****** ****** ****** ****** ****** ******
      ****** ****** ****** ****** ****** ****** ****** ****** ****** ******
   6  ****** ****** ****** ****** ****** ****** ****** ****** ****** ******
      ****** ****** ****** ****** ****** ****** ****** ****** ****** ******
      ****** ****** ****** ****** ****** ****** ****** ****** ****** ******
   7  ****** ****** ****** ****** ****** ****** ****** ****** ****** ******
      ****** ****** ****** ****** ****** ****** ****** ****** ****** ******
      ****** ****** ****** ****** ****** ****** ****** ****** ****** ******
   8  ****** ****** ****** ****** ****** ****** ****** ****** ****** ******
      ****** ****** ****** ****** ****** ****** ****** ****** ****** ******
      ****** ****** ****** ****** ****** ****** ****** ****** ****** ******
   9  ****** ****** ****** ****** ****** ****** ****** ****** ****** ******
      ****** ****** ****** ****** ****** ****** ****** ****** ****** ******
      ****** ****** ****** ****** ****** ****** ****** ****** ****** ******
  10  ****** ****** ****** ****** ****** ****** ****** ****** ****** ******
      ****** ****** ****** ****** ****** ****** ****** ****** ****** ******
      ****** ****** ****** ****** ****** ****** ****** ****** ****** ******
  11  ****** ****** ****** ****** ****** ****** ****** ****** ****** ******
      ****** ****** ****** ****** ****** ****** ****** ****** ****** ******
      ****** ****** ****** ****** ****** ****** ****** ****** ****** ******
  12  ****** ****** ****** ****** ****** ****** ****** ****** ****** ******
      ****** ****** ****** ****** ****** ****** ****** ****** ****** ******
      ****** ****** ****** ****** ****** ****** ****** ****** ****** ******
  13  ****** ****** ****** ****** ****** ****** ****** ****** ****** ******
      ****** ****** ****** ****** ****** ****** ****** ****** ****** ******
      ****** ****** ****** ****** ****** ****** ****** ****** ****** ******
  14  ****** ****** ****** ****** ****** ****** ****** ****** ****** ******
      ****** ****** ****** ****** ****** ****** ****** ****** ****** ******
      ****** ****** ****** ****** ****** ****** ****** ****** ****** ******
  15  ****** ****** ****** ****** ****** ****** ****** ****** ****** ******
      ****** ****** ****** ****** ****** ****** ****** ****** ****** ******
      ****** ****** ****** ****** ****** ****** ****** ****** ****** ******
  16  ****** ****** ****** ****** ****** ****** ****** ****** ****** ******
      ****** ****** ****** ****** ****** ****** ****** ****** ****** ******
      ****** ****** ****** ****** ****** ****** ****** ****** ****** ******
  17  ****** ****** ****** ****** ****** ****** ****** ****** ****** ******
      ****** ****** ****** ****** ****** ****** ****** ****** ****** ******
      ****** ****** ****** ****** ****** ****** ****** ****** ****** ******
  18  ****** ****** ****** ****** ****** ****** ****** ****** ****** ******
      ****** ****** ****** ****** ****** ****** ****** ****** ****** ******
      ****** ****** ****** ****** ****** ****** ****** ****** ****** ******
  19  ****** ****** ****** ****** ****** ****** ****** ****** ****** ******
      ****** ****** ****** ****** ****** ****** ****** ****** ****** ******
      ****** ****** ****** ****** ****** ****** ****** ****** ****** ******
  20  ****** ****** ****** ****** ****** ****** ****** ****** ****** ******
      ****** ****** ****** ****** ****** ****** ****** ****** ****** ******
      ****** ****** ****** ****** ****** ****** ****** ****** ****** ******
  21  ****** ****** ****** ****** ****** ****** ****** ****** ****** ******
      ****** ****** ****** ****** ****** ****** ****** ****** ****** ******
      ****** ****** ****** ****** ****** ****** ****** ****** ****** ******
  22  ****** ****** ****** ****** ****** ****** ****** ****** ****** ******
      ****** ****** ****** ****** ****** ****** ****** ****** ****** ******
      ****** ****** ****** ****** ****** ****** ****** ****** ****** ******
  23  ****** ****** ****** ****** ****** ****** ****** ****** ****** ******
      ****** ****** ****** ****** ****** ****** ****** ****** ****** ******
      ****** ****** ****** ****** ****** ****** ****** ****** ****** ******
  24  ****** ****** ****** ****** ****** ****** ****** ****** ****** ******
      ****** ****** ****** ****** ****** ****** ****** ****** ****** ******
      ****** ****** ****** ****** ****** ****** ****** ****** ****** ******
  25  ****** ****** ****** ****** ****** ****** ****** ****** ****** ******
      ****** ****** ****** ****** ****** ****** ****** ****** ****** ******
      ****** ****** ****** ****** ****** ****** ****** ****** ****** ******

 HEAD WILL BE SAVED ON UNIT   51 AT END OF TIME STEP    1, STRESS PERIOD    2
1
  VOLUMETRIC BUDGET FOR ENTIRE MODEL AT END OF TIME STEP    1, STRESS PERIOD   2
  ------------------------------------------------------------------------------

     CUMULATIVE VOLUMES      L**3       RATES FOR THIS TIME STEP      L**3/T
     ------------------                 ------------------------

           IN:                                      IN:
           ---                                      ---
             STORAGE =    20803219.9982               STORAGE =       34598.6897
       CONSTANT HEAD =    25354414.3599         CONSTANT HEAD =      148888.7714
               WELLS =           0.0000                 WELLS =           0.0000
            RECHARGE =     6292800.0000              RECHARGE =       55200.0000
      STREAM LEAKAGE =     1070650.2314        STREAM LEAKAGE =        6558.8920

            TOTAL IN =    53521084.5895              TOTAL IN =      245246.3532

          OUT:                                     OUT:
          ----                                     ----
             STORAGE =           0.0000               STORAGE =           0.0000
       CONSTANT HEAD =           0.0000         CONSTANT HEAD =           0.0000
               WELLS =    16157937.4915                 WELLS =       88294.7404
            RECHARGE =           0.0000              RECHARGE =           0.0000
      STREAM LEAKAGE =    37363147.7086        STREAM LEAKAGE =      156951.6179

           TOTAL OUT =    53521085.2000             TOTAL OUT =      245246.3583

            IN - OUT =          -0.6105              IN - OUT =      -5.1729E-03

 PERCENT DISCREPANCY =          -0.00     PERCENT DISCREPANCY =          -0.00






         TIME SUMMARY AT END OF TIME STEP    1 IN STRESS PERIOD    2
                    SECONDS     MINUTES      HOURS       DAYS        YEARS
                    -----------------------------------------------------------
   TIME STEP LENGTH 7.86240E+06 1.31040E+05  2184.0      91.000     0.24914    
 STRESS PERIOD TIME 7.86240E+06 1.31040E+05  2184.0      91.000     0.24914    
         TOTAL TIME 1.58112E+07 2.63520E+05  4392.0      183.00     0.50103    
1
1
                            STRESS PERIOD NO.    3, LENGTH =   91.00000    
                            -----------------------------------------------

                              NUMBER OF TIME STEPS =     1

                               MULTIPLIER FOR DELT =     1.500

                            INITIAL TIME STEP SIZE =   91.00000    

 WELL NO.  LAYER   ROW   COL   STRESS RATE         
 --------------------------------------------------
      1      1     21     15      -9504.    
      2      1     23     15     -0.2528E+05
      3      1     23     11     -0.3088E+05
      4      1     21     17     -0.2263E+05

      4 WELLS

                 RECHARGE =   0.00000    

 REUSING STREAM SEGMENT DATA FROM LAST STRESS PERIOD
 
 SOLVING FOR HEAD 


     7 CALLS TO PCG ROUTINE FOR TIME STEP   1 IN STRESS PERIOD    3
    27 TOTAL ITERATIONS

 OUTPUT CONTROL FOR STRESS PERIOD    3   TIME STEP    1
    SAVE BUDGET
    SAVE HEAD FOR ALL LAYERS
    PRINT HEAD FOR ALL LAYERS
 UBDSV2 SAVING "STREAMFLOW OUT  " ON UNIT  50 AT TIME STEP  1, STRESS PERIOD   3



 STREAM LISTING     PERIOD      3   STEP        1

 LAYER ROW COL. STREAM  RCH.  FLOW INTO     FLOW TO   FLOW OUT OF   OVRLND.     DIRECT     STREAM       STREAM     STREAM     STREAM   STREAMBED  STREAMBED
                SEG.NO.  NO.  STRM. RCH.    AQUIFER    STRM. RCH.    RUNOFF     PRECIP       ET          HEAD       DEPTH      WIDTH   CONDCTNC.   GRADIENT

   1   13    1     1     1    1.0000E+05 -2.8813E+03   1.0288E+05  0.000E+00  0.000E+00  0.000E+00  4.84073E+01  1.459E-01  2.000E+01  2.000E+04 -1.441E-01
   1   13    2     1     2    1.0288E+05 -4.9080E+03   1.0779E+05  0.000E+00  0.000E+00  0.000E+00  4.79333E+01  1.492E-01  2.000E+01  2.000E+04 -2.454E-01
   1   14    3     1     3    1.0779E+05 -3.8062E+03   1.1160E+05  0.000E+00  0.000E+00  0.000E+00  4.74597E+01  1.529E-01  2.000E+01  2.000E+04 -1.903E-01
   1   15    4     1     4    1.1160E+05 -3.5793E+03   1.1517E+05  0.000E+00  0.000E+00  0.000E+00  4.69855E+01  1.560E-01  2.000E+01  2.000E+04 -1.790E-01
   1   16    5     1     5    1.1517E+05 -3.5778E+03   1.1875E+05  0.000E+00  0.000E+00  0.000E+00  4.65112E+01  1.589E-01  2.000E+01  2.000E+04 -1.789E-01
   1   16    6     1     6    1.1875E+05 -2.7673E+03   1.2152E+05  0.000E+00  0.000E+00  0.000E+00  4.60365E+01  1.615E-01  2.000E+01  2.000E+04 -1.384E-01
   1   16    7     1     7    1.2152E+05 -2.7092E+03   1.2423E+05  0.000E+00  0.000E+00  0.000E+00  4.55614E+01  1.637E-01  2.000E+01  2.000E+04 -1.355E-01
   1   16    8     1     8    1.2423E+05 -2.5742E+03   1.2680E+05  0.000E+00  0.000E+00  0.000E+00  4.50862E+01  1.658E-01  2.000E+01  2.000E+04 -1.287E-01
   1   16    9     1     9    1.2680E+05 -2.3551E+03   1.2916E+05  0.000E+00  0.000E+00  0.000E+00  4.46109E+01  1.677E-01  2.000E+01  2.000E+04 -1.178E-01
   1   16   10     1    10    1.2916E+05 -2.0550E+03   1.3121E+05  0.000E+00  0.000E+00  0.000E+00  4.41354E+01  1.695E-01  2.000E+01  2.000E+04 -1.028E-01
   1   16   11     1    11    1.3121E+05 -1.6622E+03   1.3288E+05  0.000E+00  0.000E+00  0.000E+00  4.36595E+01  1.709E-01  2.000E+01  2.000E+04 -8.311E-02
   1   16   12     1    12    1.3288E+05 -1.1912E+03   1.3407E+05  0.000E+00  0.000E+00  0.000E+00  4.31834E+01  1.720E-01  2.000E+01  2.000E+04 -5.956E-02
   1   15   13     1    13    1.3407E+05 -1.9720E+03   1.3604E+05  0.000E+00  0.000E+00  0.000E+00  4.27073E+01  1.732E-01  2.000E+01  2.000E+04 -9.860E-02
   1   14   14     1    14    1.3604E+05 -2.6542E+03   1.3869E+05  0.000E+00  0.000E+00  0.000E+00  4.22318E+01  1.750E-01  2.000E+01  2.000E+04 -1.327E-01
   1   13   15     1    15    1.3869E+05 -3.4687E+03   1.4216E+05  0.000E+00  0.000E+00  0.000E+00  4.17569E+01  1.773E-01  2.000E+01  2.000E+04 -1.734E-01
   1   12   16     1    16    1.4216E+05 -5.2476E+03   1.4741E+05  0.000E+00  0.000E+00  0.000E+00  4.12829E+01  1.806E-01  2.000E+01  2.000E+04 -2.624E-01
   1   12   17     1    17    1.4741E+05 -3.2079E+03   1.5062E+05  0.000E+00  0.000E+00  0.000E+00  4.08088E+01  1.838E-01  2.000E+01  2.000E+04 -1.604E-01
   1   12   18     1    18    1.5062E+05 -3.0770E+03   1.5369E+05  0.000E+00  0.000E+00  0.000E+00  4.03338E+01  1.861E-01  2.000E+01  2.000E+04 -1.539E-01
   1   12   19     1    19    1.5369E+05 -4.2557E+03   1.5795E+05  0.000E+00  0.000E+00  0.000E+00  3.98592E+01  1.888E-01  2.000E+01  2.000E+04 -2.128E-01
   1   13   20     1    20    1.5795E+05 -2.2475E+03   1.6020E+05  0.000E+00  0.000E+00  0.000E+00  3.93843E+01  1.911E-01  2.000E+01  2.000E+04 -1.124E-01
   1   14   21     1    21    1.6020E+05 -1.1588E+03   1.6136E+05  0.000E+00  0.000E+00  0.000E+00  3.89082E+01  1.923E-01  2.000E+01  2.000E+04 -5.794E-02
   1   14   22     1    22    1.6136E+05  5.1152E+03   1.5624E+05  0.000E+00  0.000E+00  0.000E+00  3.84295E+01  1.909E-01  2.000E+01  2.000E+04  2.558E-01
   1    9   30     2     1    5.0000E+04 -2.6909E+03   5.2691E+04  0.000E+00  0.000E+00  0.000E+00  4.02427E+01  1.177E-01  2.000E+01  2.000E+04 -1.345E-01
   1    9   29     2     2    5.2691E+04 -3.0251E+03   5.5716E+04  0.000E+00  0.000E+00  0.000E+00  3.99966E+01  1.216E-01  2.000E+01  2.000E+04 -1.513E-01
   1    9   28     2     3    5.5716E+04 -3.4119E+03   5.9128E+04  0.000E+00  0.000E+00  0.000E+00  3.97509E+01  1.259E-01  2.000E+01  2.000E+04 -1.706E-01
   1    9   27     2     4    5.9128E+04 -6.1567E+03   6.5285E+04  0.000E+00  0.000E+00  0.000E+00  3.95071E+01  1.321E-01  2.000E+01  2.000E+04 -3.078E-01
   1   10   26     2     5    6.5285E+04 -3.7684E+03   6.9053E+04  0.000E+00  0.000E+00  0.000E+00  3.92633E+01  1.383E-01  2.000E+01  2.000E+04 -1.884E-01
   1   11   25     2     6    6.9053E+04 -2.7211E+03   7.1774E+04  0.000E+00  0.000E+00  0.000E+00  3.90173E+01  1.423E-01  2.000E+01  2.000E+04 -1.361E-01
   1   12   24     2     7    7.1774E+04 -1.8719E+03   7.3646E+04  0.000E+00  0.000E+00  0.000E+00  3.87701E+01  1.451E-01  2.000E+01  2.000E+04 -9.360E-02
   1   13   23     2     8    7.3646E+04 -1.0484E+03   7.4694E+04  0.000E+00  0.000E+00  0.000E+00  3.85218E+01  1.468E-01  2.000E+01  2.000E+04 -5.242E-02
   1   14   22     2     9    7.4694E+04  1.9494E+03   7.2745E+04  0.000E+00  0.000E+00  0.000E+00  3.82713E+01  1.463E-01  2.000E+01  2.000E+04  9.747E-02
   1   14   22     3     1    2.2899E+05 -8.3750E+03   2.3736E+05  0.000E+00  0.000E+00  0.000E+00  3.77550E+01  1.995E-01  2.000E+01  2.000E+04 -4.188E-01
   1   15   23     3     2    2.3736E+05 -2.0356E+03   2.3940E+05  0.000E+00  0.000E+00  0.000E+00  3.68688E+01  2.021E-01  2.000E+01  2.000E+04 -1.018E-01
   1   15   24     3     3    2.3940E+05 -1.6480E+03   2.4104E+05  0.000E+00  0.000E+00  0.000E+00  3.59809E+01  2.031E-01  2.000E+01  2.000E+04 -8.240E-02
   1   15   25     3     4    2.4104E+05 -1.6579E+03   2.4270E+05  0.000E+00  0.000E+00  0.000E+00  3.50928E+01  2.039E-01  2.000E+01  2.000E+04 -8.289E-02
   1   15   26     3     5    2.4270E+05 -2.0985E+03   2.4480E+05  0.000E+00  0.000E+00  0.000E+00  3.42049E+01  2.049E-01  2.000E+01  2.000E+04 -1.049E-01
   1   16   27     3     6    2.4480E+05 -2.9264E+03   2.4773E+05  0.000E+00  0.000E+00  0.000E+00  3.33172E+01  2.061E-01  2.000E+01  2.000E+04 -1.463E-01
   1   17   28     3     7    2.4773E+05 -3.7692E+03   2.5150E+05  0.000E+00  0.000E+00  0.000E+00  3.24300E+01  2.078E-01  2.000E+01  2.000E+04 -1.885E-01
   1   18   29     3     8    2.5150E+05 -5.4811E+03   2.5698E+05  0.000E+00  0.000E+00  0.000E+00  3.15434E+01  2.101E-01  2.000E+01  2.000E+04 -2.741E-01
   1   18   30     3     9    2.5698E+05 -4.6587E+03   2.6164E+05  0.000E+00  0.000E+00  0.000E+00  3.06571E+01  2.126E-01  2.000E+01  2.000E+04 -2.329E-01



1
              HEAD IN LAYER   1 AT END OF TIME STEP   1 IN STRESS PERIOD    3
  ---------------------------------------------------------------------------

          1      2      3      4      5      6      7      8      9     10
         11     12     13     14     15     16     17     18     19     20
         21     22     23     24     25     26     27     28     29     30
 .........................................................................
   1  ****** ****** ****** ****** ****** ****** ****** ****** ****** ******
      ****** ****** ****** ****** ****** ****** ****** ****** ****** ******
      ****** ****** ****** ****** ****** ****** ****** ****** ****** ******
   2  ****** ****** ****** ****** ****** ****** ****** ****** ****** ******
      ****** ****** ****** ****** ****** ****** ****** ****** ****** ******
      ****** ****** ****** ****** ****** ****** ****** ****** ****** ******
   3  ****** ****** ****** ****** ****** ****** ****** ****** ****** ******
      ****** ****** ****** ****** ****** ****** ****** ****** ****** ******
      ****** ****** ****** ****** ****** ****** ****** ****** ****** ******
   4  ****** ****** ****** ****** ****** ****** ****** ****** ****** ******
      ****** ****** ****** ****** ****** ****** ****** ****** ****** ******
      ****** ****** ****** ****** ****** ****** ****** ****** ****** ******
   5  ****** ****** ****** ****** ****** ****** ****** ****** ****** ******
      ****** ****** ****** ****** ****** ****** ****** ****** ****** ******
      ****** ****** ****** ****** ****** ****** ****** ****** ****** ******
   6  ****** ****** ****** ****** ****** ****** ****** ****** ****** ******
      ****** ****** ****** ****** ****** ****** ****** ****** ****** ******
      ****** ****** ****** ****** ****** ****** ****** ****** ****** ******
   7  ****** ****** ****** ****** ****** ****** ****** ****** ****** ******
      ****** ****** ****** ****** ****** ****** ****** ****** ****** ******
      ****** ****** ****** ****** ****** ****** ****** ****** ****** ******
   8  ****** ****** ****** ****** ****** ****** ****** ****** ****** ******
      ****** ****** ****** ****** ****** ****** ****** ****** ****** ******
      ****** ****** ****** ****** ****** ****** ****** ****** ****** ******
   9  ****** ****** ****** ****** ****** ****** ****** ****** ****** ******
      ****** ****** ****** ****** ****** ****** ****** ****** ****** ******
      ****** ****** ****** ****** ****** ****** ****** ****** ****** ******
  10  ****** ****** ****** ****** ****** ****** ****** ****** ****** ******
      ****** ****** ****** ****** ****** ****** ****** ****** ****** ******
      ****** ****** ****** ****** ****** ****** ****** ****** ****** ******
  11  ****** ****** ****** ****** ****** ****** ****** ****** ****** ******
      ****** ****** ****** ****** ****** ****** ****** ****** ****** ******
      ****** ****** ****** ****** ****** ****** ****** ****** ****** ******
  12  ****** ****** ****** ****** ****** ****** ****** ****** ****** ******
      ****** ****** ****** ****** ****** ****** ****** ****** ****** ******
      ****** ****** ****** ****** ****** ****** ****** ****** ****** ******
  13  ****** ****** ****** ****** ****** ****** ****** ****** ****** ******
      ****** ****** ****** ****** ****** ****** ****** ****** ****** ******
      ****** ****** ****** ****** ****** ****** ****** ****** ****** ******
  14  ****** ****** ****** ****** ****** ****** ****** ****** ****** ******
      ****** ****** ****** ****** ****** ****** ****** ****** ****** ******
      ****** ****** ****** ****** ****** ****** ****** ****** ****** ******
  15  ****** ****** ****** ****** ****** ****** ****** ****** ****** ******
      ****** ****** ****** ****** ****** ****** ****** ****** ****** ******
      ****** ****** ****** ****** ****** ****** ****** ****** ****** ******
  16  ****** ****** ****** ****** ****** ****** ****** ****** ****** ******
      ****** ****** ****** ****** ****** ****** ****** ****** ****** ******
      ****** ****** ****** ****** ****** ****** ****** ****** ****** ******
  17  ****** ****** ****** ****** ****** ****** ****** ****** ****** ******
      ****** ****** ****** ****** ****** ****** ****** ****** ****** ******
      ****** ****** ****** ****** ****** ****** ****** ****** ****** ******
  18  ****** ****** ****** ****** ****** ****** ****** ****** ****** ******
      ****** ****** ****** ****** ****** ****** ****** ****** ****** ******
      ****** ****** ****** ****** ****** ****** ****** ****** ****** ******
  19  ****** ****** ****** ****** ****** ****** ****** ****** ****** ******
      ****** ****** ****** ****** ****** ****** ****** ****** ****** ******
      ****** ****** ****** ****** ****** ****** ****** ****** ****** ******
  20  ****** ****** ****** ****** ****** ****** ****** ****** ****** ******
      ****** ****** ****** ****** ****** ****** ****** ****** ****** ******
      ****** ****** ****** ****** ****** ****** ****** ****** ****** ******
  21  ****** ****** ****** ****** ****** ****** ****** ****** ****** ******
      ****** ****** ****** ****** ****** ****** ****** ****** ****** ******
      ****** ****** ****** ****** ****** ****** ****** ****** ****** ******
  22  ****** ****** ****** ****** ****** ****** ****** ****** ****** ******
      ****** ****** ****** ****** ****** ****** ****** ****** ****** ******
      ****** ****** ****** ****** ****** ****** ****** ****** ****** ******
  23  ****** ****** ****** ****** ****** ****** ****** ****** ****** ******
      ****** ****** ****** ****** ****** ****** ****** ****** ****** ******
      ****** ****** ****** ****** ****** ****** ****** ****** ****** ******
  24  ****** ****** ****** ****** ****** ****** ****** ****** ****** ******
      ****** ****** ****** ****** ****** ****** ****** ****** ****** ******
      ****** ****** ****** ****** ****** ****** ****** ****** ****** ******
  25  ****** ****** ****** ****** ****** ****** ****** ****** ****** ******
      ****** ****** ****** ****** ****** ****** ****** ****** ****** ******
      ****** ****** ****** ****** ****** ****** ****** ****** ****** ******

 HEAD WILL BE SAVED ON UNIT   51 AT END OF TIME STEP    1, STRESS PERIOD    3
1
  VOLUMETRIC BUDGET FOR ENTIRE MODEL AT END OF TIME STEP    1, STRESS PERIOD   3
  ------------------------------------------------------------------------------

     CUMULATIVE VOLUMES      L**3       RATES FOR THIS TIME STEP      L**3/T
     ------------------                 ------------------------

           IN:                                      IN:
           ---                                      ---
             STORAGE =    23229481.8335               STORAGE =       26662.2180
       CONSTANT HEAD =    41121861.3948         CONSTANT HEAD =      173268.6487
               WELLS =           0.0000                 WELLS =           0.0000
            RECHARGE =     6292800.0000              RECHARGE =           0.0000
      STREAM LEAKAGE =     1713523.2050        STREAM LEAKAGE =        7064.5382

            TOTAL IN =    72357666.4332              TOTAL IN =      206995.4049

          OUT:                                     OUT:
          ----                                     ----
             STORAGE =           0.0000               STORAGE =           0.0000
       CONSTANT HEAD =           0.0000         CONSTANT HEAD =           0.0000
               WELLS =    24192758.8670                 WELLS =       88294.7404
            RECHARGE =           0.0000              RECHARGE =           0.0000
      STREAM LEAKAGE =    48164908.4238        STREAM LEAKAGE =      118700.6672

           TOTAL OUT =    72357667.2908             TOTAL OUT =      206995.4076

            IN - OUT =          -0.8576              IN - OUT =      -2.7150E-03

 PERCENT DISCREPANCY =          -0.00     PERCENT DISCREPANCY =          -0.00






         TIME SUMMARY AT END OF TIME STEP    1 IN STRESS PERIOD    3
                    SECONDS     MINUTES      HOURS       DAYS        YEARS
                    -----------------------------------------------------------
   TIME STEP LENGTH 7.86240E+06 1.31040E+05  2184.0      91.000     0.24914    
 STRESS PERIOD TIME 7.86240E+06 1.31040E+05  2184.0      91.000     0.24914    
         TOTAL TIME 2.36736E+07 3.94560E+05  6576.0      274.00     0.75017    
1
1
                            STRESS PERIOD NO.    4, LENGTH =   91.00000    
                            -----------------------------------------------

                              NUMBER OF TIME STEPS =     1

                               MULTIPLIER FOR DELT =     1.500

                            INITIAL TIME STEP SIZE =   91.00000    

 WELL NO.  LAYER   ROW   COL   STRESS RATE         
 --------------------------------------------------
      1      1     21     15      -9504.    
      2      1     23     15     -0.2528E+05
      3      1     23     11     -0.3088E+05
      4      1     21     17     -0.2263E+05

      4 WELLS

                 RECHARGE =  1.000000E-03

 REUSING STREAM SEGMENT DATA FROM LAST STRESS PERIOD
 
 SOLVING FOR HEAD 


     6 CALLS TO PCG ROUTINE FOR TIME STEP   1 IN STRESS PERIOD    4
    20 TOTAL ITERATIONS

 OUTPUT CONTROL FOR STRESS PERIOD    4   TIME STEP    1
    SAVE BUDGET
    SAVE HEAD FOR ALL LAYERS
    PRINT HEAD FOR ALL LAYERS
 UBDSV2 SAVING "STREAMFLOW OUT  " ON UNIT  50 AT TIME STEP  1, STRESS PERIOD   4



 STREAM LISTING     PERIOD      4   STEP        1

 LAYER ROW COL. STREAM  RCH.  FLOW INTO     FLOW TO   FLOW OUT OF   OVRLND.     DIRECT     STREAM       STREAM     STREAM     STREAM   STREAMBED  STREAMBED
                SEG.NO.  NO.  STRM. RCH.    AQUIFER    STRM. RCH.    RUNOFF     PRECIP       ET          HEAD       DEPTH      WIDTH   CONDCTNC.   GRADIENT

   1   13    1     1     1    1.0000E+05 -2.9010E+03   1.0290E+05  0.000E+00  0.000E+00  0.000E+00  4.84073E+01  1.459E-01  2.000E+01  2.000E+04 -1.451E-01
   1   13    2     1     2    1.0290E+05 -4.8993E+03   1.0780E+05  0.000E+00  0.000E+00  0.000E+00  4.79333E+01  1.492E-01  2.000E+01  2.000E+04 -2.450E-01
   1   14    3     1     3    1.0780E+05 -3.8470E+03   1.1165E+05  0.000E+00  0.000E+00  0.000E+00  4.74598E+01  1.529E-01  2.000E+01  2.000E+04 -1.924E-01
   1   15    4     1     4    1.1165E+05 -3.6324E+03   1.1528E+05  0.000E+00  0.000E+00  0.000E+00  4.69856E+01  1.560E-01  2.000E+01  2.000E+04 -1.816E-01
   1   16    5     1     5    1.1528E+05 -3.6276E+03   1.1891E+05  0.000E+00  0.000E+00  0.000E+00  4.65113E+01  1.590E-01  2.000E+01  2.000E+04 -1.814E-01
   1   16    6     1     6    1.1891E+05 -2.8038E+03   1.2171E+05  0.000E+00  0.000E+00  0.000E+00  4.60366E+01  1.616E-01  2.000E+01  2.000E+04 -1.402E-01
   1   16    7     1     7    1.2171E+05 -2.7396E+03   1.2445E+05  0.000E+00  0.000E+00  0.000E+00  4.55616E+01  1.638E-01  2.000E+01  2.000E+04 -1.370E-01
   1   16    8     1     8    1.2445E+05 -2.5991E+03   1.2705E+05  0.000E+00  0.000E+00  0.000E+00  4.50864E+01  1.660E-01  2.000E+01  2.000E+04 -1.300E-01
   1   16    9     1     9    1.2705E+05 -2.3751E+03   1.2942E+05  0.000E+00  0.000E+00  0.000E+00  4.46111E+01  1.679E-01  2.000E+01  2.000E+04 -1.188E-01
   1   16   10     1    10    1.2942E+05 -2.0705E+03   1.3150E+05  0.000E+00  0.000E+00  0.000E+00  4.41356E+01  1.697E-01  2.000E+01  2.000E+04 -1.035E-01
   1   16   11     1    11    1.3150E+05 -1.6713E+03   1.3317E+05  0.000E+00  0.000E+00  0.000E+00  4.36598E+01  1.711E-01  2.000E+01  2.000E+04 -8.356E-02
   1   16   12     1    12    1.3317E+05 -1.1660E+03   1.3433E+05  0.000E+00  0.000E+00  0.000E+00  4.31836E+01  1.722E-01  2.000E+01  2.000E+04 -5.830E-02
   1   15   13     1    13    1.3433E+05 -1.9627E+03   1.3630E+05  0.000E+00  0.000E+00  0.000E+00  4.27075E+01  1.734E-01  2.000E+01  2.000E+04 -9.813E-02
   1   14   14     1    14    1.3630E+05 -2.6489E+03   1.3894E+05  0.000E+00  0.000E+00  0.000E+00  4.22320E+01  1.752E-01  2.000E+01  2.000E+04 -1.324E-01
   1   13   15     1    15    1.3894E+05 -3.4715E+03   1.4242E+05  0.000E+00  0.000E+00  0.000E+00  4.17571E+01  1.775E-01  2.000E+01  2.000E+04 -1.736E-01
   1   12   16     1    16    1.4242E+05 -5.2424E+03   1.4766E+05  0.000E+00  0.000E+00  0.000E+00  4.12831E+01  1.808E-01  2.000E+01  2.000E+04 -2.621E-01
   1   12   17     1    17    1.4766E+05 -3.2280E+03   1.5089E+05  0.000E+00  0.000E+00  0.000E+00  4.08090E+01  1.840E-01  2.000E+01  2.000E+04 -1.614E-01
   1   12   18     1    18    1.5089E+05 -3.1055E+03   1.5399E+05  0.000E+00  0.000E+00  0.000E+00  4.03340E+01  1.863E-01  2.000E+01  2.000E+04 -1.553E-01
   1   12   19     1    19    1.5399E+05 -4.3041E+03   1.5830E+05  0.000E+00  0.000E+00  0.000E+00  3.98594E+01  1.890E-01  2.000E+01  2.000E+04 -2.152E-01
   1   13   20     1    20    1.5830E+05 -2.3067E+03   1.6060E+05  0.000E+00  0.000E+00  0.000E+00  3.93846E+01  1.914E-01  2.000E+01  2.000E+04 -1.153E-01
   1   14   21     1    21    1.6060E+05 -1.1806E+03   1.6178E+05  0.000E+00  0.000E+00  0.000E+00  3.89085E+01  1.926E-01  2.000E+01  2.000E+04 -5.903E-02
   1   14   22     1    22    1.6178E+05  5.0855E+03   1.5670E+05  0.000E+00  0.000E+00  0.000E+00  3.84299E+01  1.912E-01  2.000E+01  2.000E+04  2.543E-01
   1    9   30     2     1    5.0000E+04 -2.8032E+03   5.2803E+04  0.000E+00  0.000E+00  0.000E+00  4.02428E+01  1.178E-01  2.000E+01  2.000E+04 -1.402E-01
   1    9   29     2     2    5.2803E+04 -3.1357E+03   5.5939E+04  0.000E+00  0.000E+00  0.000E+00  3.99968E+01  1.218E-01  2.000E+01  2.000E+04 -1.568E-01
   1    9   28     2     3    5.5939E+04 -3.5184E+03   5.9457E+04  0.000E+00  0.000E+00  0.000E+00  3.97513E+01  1.263E-01  2.000E+01  2.000E+04 -1.759E-01
   1    9   27     2     4    5.9457E+04 -6.2673E+03   6.5725E+04  0.000E+00  0.000E+00  0.000E+00  3.95076E+01  1.326E-01  2.000E+01  2.000E+04 -3.134E-01
   1   10   26     2     5    6.5725E+04 -3.8972E+03   6.9622E+04  0.000E+00  0.000E+00  0.000E+00  3.92639E+01  1.389E-01  2.000E+01  2.000E+04 -1.949E-01
   1   11   25     2     6    6.9622E+04 -2.8508E+03   7.2473E+04  0.000E+00  0.000E+00  0.000E+00  3.90181E+01  1.431E-01  2.000E+01  2.000E+04 -1.425E-01
   1   12   24     2     7    7.2473E+04 -1.9986E+03   7.4471E+04  0.000E+00  0.000E+00  0.000E+00  3.87710E+01  1.460E-01  2.000E+01  2.000E+04 -9.993E-02
   1   13   23     2     8    7.4471E+04 -1.1618E+03   7.5633E+04  0.000E+00  0.000E+00  0.000E+00  3.85228E+01  1.478E-01  2.000E+01  2.000E+04 -5.809E-02
   1   14   22     2     9    7.5633E+04  1.9358E+03   7.3697E+04  0.000E+00  0.000E+00  0.000E+00  3.82724E+01  1.474E-01  2.000E+01  2.000E+04  9.679E-02
   1   14   22     3     1    2.3039E+05 -8.3965E+03   2.3879E+05  0.000E+00  0.000E+00  0.000E+00  3.77558E+01  2.002E-01  2.000E+01  2.000E+04 -4.198E-01
   1   15   23     3     2    2.3879E+05 -2.0609E+03   2.4085E+05  0.000E+00  0.000E+00  0.000E+00  3.68695E+01  2.029E-01  2.000E+01  2.000E+04 -1.030E-01
   1   15   24     3     3    2.4085E+05 -1.7086E+03   2.4256E+05  0.000E+00  0.000E+00  0.000E+00  3.59816E+01  2.038E-01  2.000E+01  2.000E+04 -8.543E-02
   1   15   25     3     4    2.4256E+05 -1.7377E+03   2.4430E+05  0.000E+00  0.000E+00  0.000E+00  3.50936E+01  2.047E-01  2.000E+01  2.000E+04 -8.688E-02
   1   15   26     3     5    2.4430E+05 -2.2180E+03   2.4652E+05  0.000E+00  0.000E+00  0.000E+00  3.42057E+01  2.057E-01  2.000E+01  2.000E+04 -1.109E-01
   1   16   27     3     6    2.4652E+05 -3.0462E+03   2.4956E+05  0.000E+00  0.000E+00  0.000E+00  3.33181E+01  2.070E-01  2.000E+01  2.000E+04 -1.523E-01
   1   17   28     3     7    2.4956E+05 -3.8890E+03   2.5345E+05  0.000E+00  0.000E+00  0.000E+00  3.24310E+01  2.088E-01  2.000E+01  2.000E+04 -1.945E-01
   1   18   29     3     8    2.5345E+05 -5.5855E+03   2.5904E+05  0.000E+00  0.000E+00  0.000E+00  3.15444E+01  2.111E-01  2.000E+01  2.000E+04 -2.793E-01
   1   18   30     3     9    2.5904E+05 -4.7598E+03   2.6380E+05  0.000E+00  0.000E+00  0.000E+00  3.06581E+01  2.136E-01  2.000E+01  2.000E+04 -2.380E-01



1
              HEAD IN LAYER   1 AT END OF TIME STEP   1 IN STRESS PERIOD    4
  ---------------------------------------------------------------------------

          1      2      3      4      5      6      7      8      9     10
         11     12     13     14     15     16     17     18     19     20
         21     22     23     24     25     26     27     28     29     30
 .........................................................................
   1  ****** ****** ****** ****** ****** ****** ****** ****** ****** ******
      ****** ****** ****** ****** ****** ****** ****** ****** ****** ******
      ****** ****** ****** ****** ****** ****** ****** ****** ****** ******
   2  ****** ****** ****** ****** ****** ****** ****** ****** ****** ******
      ****** ****** ****** ****** ****** ****** ****** ****** ****** ******
      ****** ****** ****** ****** ****** ****** ****** ****** ****** ******
   3  ****** ****** ****** ****** ****** ****** ****** ****** ****** ******
      ****** ****** ****** ****** ****** ****** ****** ****** ****** ******
      ****** ****** ****** ****** ****** ****** ****** ****** ****** ******
   4  ****** ****** ****** ****** ****** ****** ****** ****** ****** ******
      ****** ****** ****** ****** ****** ****** ****** ****** ****** ******
      ****** ****** ****** ****** ****** ****** ****** ****** ****** ******
   5  ****** ****** ****** ****** ****** ****** ****** ****** ****** ******
      ****** ****** ****** ****** ****** ****** ****** ****** ****** ******
      ****** ****** ****** ****** ****** ****** ****** ****** ****** ******
   6  ****** ****** ****** ****** ****** ****** ****** ****** ****** ******
      ****** ****** ****** ****** ****** ****** ****** ****** ****** ******
      ****** ****** ****** ****** ****** ****** ****** ****** ****** ******
   7  ****** ****** ****** ****** ****** ****** ****** ****** ****** ******
      ****** ****** ****** ****** ****** ****** ****** ****** ****** ******
      ****** ****** ****** ****** ****** ****** ****** ****** ****** ******
   8  ****** ****** ****** ****** ****** ****** ****** ****** ****** ******
      ****** ****** ****** ****** ****** ****** ****** ****** ****** ******
      ****** ****** ****** ****** ****** ****** ****** ****** ****** ******
   9  ****** ****** ****** ****** ****** ****** ****** ****** ****** ******
      ****** ****** ****** ****** ****** ****** ****** ****** ****** ******
      ****** ****** ****** ****** ****** ****** ****** ****** ****** ******
  10  ****** ****** ****** ****** ****** ****** ****** ****** ****** ******
      ****** ****** ****** ****** ****** ****** ****** ****** ****** ******
      ****** ****** ****** ****** ****** ****** ****** ****** ****** ******
  11  ****** ****** ****** ****** ****** ****** ****** ****** ****** ******
      ****** ****** ****** ****** ****** ****** ****** ****** ****** ******
      ****** ****** ****** ****** ****** ****** ****** ****** ****** ******
  12  ****** ****** ****** ****** ****** ****** ****** ****** ****** ******
      ****** ****** ****** ****** ****** ****** ****** ****** ****** ******
      ****** ****** ****** ****** ****** ****** ****** ****** ****** ******
  13  ****** ****** ****** ****** ****** ****** ****** ****** ****** ******
      ****** ****** ****** ****** ****** ****** ****** ****** ****** ******
      ****** ****** ****** ****** ****** ****** ****** ****** ****** ******
  14  ****** ****** ****** ****** ****** ****** ****** ****** ****** ******
      ****** ****** ****** ****** ****** ****** ****** ****** ****** ******
      ****** ****** ****** ****** ****** ****** ****** ****** ****** ******
  15  ****** ****** ****** ****** ****** ****** ****** ****** ****** ******
      ****** ****** ****** ****** ****** ****** ****** ****** ****** ******
      ****** ****** ****** ****** ****** ****** ****** ****** ****** ******
  16  ****** ****** ****** ****** ****** ****** ****** ****** ****** ******
      ****** ****** ****** ****** ****** ****** ****** ****** ****** ******
      ****** ****** ****** ****** ****** ****** ****** ****** ****** ******
  17  ****** ****** ****** ****** ****** ****** ****** ****** ****** ******
      ****** ****** ****** ****** ****** ****** ****** ****** ****** ******
      ****** ****** ****** ****** ****** ****** ****** ****** ****** ******
  18  ****** ****** ****** ****** ****** ****** ****** ****** ****** ******
      ****** ****** ****** ****** ****** ****** ****** ****** ****** ******
      ****** ****** ****** ****** ****** ****** ****** ****** ****** ******
  19  ****** ****** ****** ****** ****** ****** ****** ****** ****** ******
      ****** ****** ****** ****** ****** ****** ****** ****** ****** ******
      ****** ****** ****** ****** ****** ****** ****** ****** ****** ******
  20  ****** ****** ****** ****** ****** ****** ****** ****** ****** ******
      ****** ****** ****** ****** ****** ****** ****** ****** ****** ******
      ****** ****** ****** ****** ****** ****** ****** ****** ****** ******
  21  ****** ****** ****** ****** ****** ****** ****** ****** ****** ******
      ****** ****** ****** ****** ****** ****** ****** ****** ****** ******
      ****** ****** ****** ****** ****** ****** ****** ****** ****** ******
  22  ****** ****** ****** ****** ****** ****** ****** ****** ****** ******
      ****** ****** ****** ****** ****** ****** ****** ****** ****** ******
      ****** ****** ****** ****** ****** ****** ****** ****** ****** ******
  23  ****** ****** ****** ****** ****** ****** ****** ****** ****** ******
      ****** ****** ****** ****** ****** ****** ****** ****** ****** ******
      ****** ****** ****** ****** ****** ****** ****** ****** ****** ******
  24  ****** ****** ****** ****** ****** ****** ****** ****** ****** ******
      ****** ****** ****** ****** ****** ****** ****** ****** ****** ******
      ****** ****** ****** ****** ****** ****** ****** ****** ****** ******
  25  ****** ****** ****** ****** ****** ****** ****** ****** ****** ******
      ****** ****** ****** ****** ****** ****** ****** ****** ****** ******
      ****** ****** ****** ****** ****** ****** ****** ****** ****** ******

 HEAD WILL BE SAVED ON UNIT   51 AT END OF TIME STEP    1, STRESS PERIOD    4
1
  VOLUMETRIC BUDGET FOR ENTIRE MODEL AT END OF TIME STEP    1, STRESS PERIOD   4
  ------------------------------------------------------------------------------

     CUMULATIVE VOLUMES      L**3       RATES FOR THIS TIME STEP      L**3/T
     ------------------                 ------------------------

           IN:                                      IN:
           ---                                      ---
             STORAGE =    23382875.3361               STORAGE =        1685.6429
       CONSTANT HEAD =    56869082.5284         CONSTANT HEAD =      173046.3861
               WELLS =           0.0000                 WELLS =           0.0000
            RECHARGE =     8804400.0000              RECHARGE =       27600.0000
      STREAM LEAKAGE =     2352456.0495        STREAM LEAKAGE =        7021.2400

            TOTAL IN =    91408813.9140              TOTAL IN =      209353.2690

          OUT:                                     OUT:
          ----                                     ----
             STORAGE =       21869.8951               STORAGE =         240.3285
       CONSTANT HEAD =           0.0000         CONSTANT HEAD =           0.0000
               WELLS =    32227580.2425                 WELLS =       88294.7404
            RECHARGE =           0.0000              RECHARGE =           0.0000
      STREAM LEAKAGE =    59159364.4673        STREAM LEAKAGE =      120818.1983

           TOTAL OUT =    91408814.6049             TOTAL OUT =      209353.2672

            IN - OUT =          -0.6909              IN - OUT =       1.8313E-03

 PERCENT DISCREPANCY =          -0.00     PERCENT DISCREPANCY =           0.00






         TIME SUMMARY AT END OF TIME STEP    1 IN STRESS PERIOD    4
                    SECONDS     MINUTES      HOURS       DAYS        YEARS
                    -----------------------------------------------------------
   TIME STEP LENGTH 7.86240E+06 1.31040E+05  2184.0      91.000     0.24914    
 STRESS PERIOD TIME 7.86240E+06 1.31040E+05  2184.0      91.000     0.24914    
         TOTAL TIME 3.15360E+07 5.25600E+05  8760.0      365.00     0.99932    
1
1
                            STRESS PERIOD NO.    5, LENGTH =   92.00000    
                            -----------------------------------------------

                              NUMBER OF TIME STEPS =     1

                               MULTIPLIER FOR DELT =     1.500

                            INITIAL TIME STEP SIZE =   92.00000    

 WELL NO.  LAYER   ROW   COL   STRESS RATE         
 --------------------------------------------------
      1      1     21     15      -9504.    
      2      1     23     15     -0.2528E+05
      3      1     23     11     -0.3088E+05
      4      1     21     17     -0.2263E+05

      4 WELLS

                 RECHARGE =  5.000000E-04

 REUSING STREAM SEGMENT DATA FROM LAST STRESS PERIOD
 
 SOLVING FOR HEAD 


     6 CALLS TO PCG ROUTINE FOR TIME STEP   1 IN STRESS PERIOD    5
    23 TOTAL ITERATIONS

 OUTPUT CONTROL FOR STRESS PERIOD    5   TIME STEP    1
    SAVE BUDGET
    SAVE HEAD FOR ALL LAYERS
    PRINT HEAD FOR ALL LAYERS
 UBDSV2 SAVING "STREAMFLOW OUT  " ON UNIT  50 AT TIME STEP  1, STRESS PERIOD   5



 STREAM LISTING     PERIOD      5   STEP        1

 LAYER ROW COL. STREAM  RCH.  FLOW INTO     FLOW TO   FLOW OUT OF   OVRLND.     DIRECT     STREAM       STREAM     STREAM     STREAM   STREAMBED  STREAMBED
                SEG.NO.  NO.  STRM. RCH.    AQUIFER    STRM. RCH.    RUNOFF     PRECIP       ET          HEAD       DEPTH      WIDTH   CONDCTNC.   GRADIENT

   1   13    1     1     1    1.0000E+05 -2.7261E+03   1.0273E+05  0.000E+00  0.000E+00  0.000E+00  4.84072E+01  1.458E-01  2.000E+01  2.000E+04 -1.363E-01
   1   13    2     1     2    1.0273E+05 -4.6577E+03   1.0738E+05  0.000E+00  0.000E+00  0.000E+00  4.79331E+01  1.490E-01  2.000E+01  2.000E+04 -2.329E-01
   1   14    3     1     3    1.0738E+05 -3.6200E+03   1.1100E+05  0.000E+00  0.000E+00  0.000E+00  4.74593E+01  1.525E-01  2.000E+01  2.000E+04 -1.810E-01
   1   15    4     1     4    1.1100E+05 -3.4148E+03   1.1442E+05  0.000E+00  0.000E+00  0.000E+00  4.69850E+01  1.554E-01  2.000E+01  2.000E+04 -1.707E-01
   1   16    5     1     5    1.1442E+05 -3.4338E+03   1.1785E+05  0.000E+00  0.000E+00  0.000E+00  4.65105E+01  1.582E-01  2.000E+01  2.000E+04 -1.717E-01
   1   16    6     1     6    1.1785E+05 -2.6455E+03   1.2050E+05  0.000E+00  0.000E+00  0.000E+00  4.60357E+01  1.607E-01  2.000E+01  2.000E+04 -1.323E-01
   1   16    7     1     7    1.2050E+05 -2.5764E+03   1.2307E+05  0.000E+00  0.000E+00  0.000E+00  4.55605E+01  1.628E-01  2.000E+01  2.000E+04 -1.288E-01
   1   16    8     1     8    1.2307E+05 -2.4328E+03   1.2551E+05  0.000E+00  0.000E+00  0.000E+00  4.50853E+01  1.648E-01  2.000E+01  2.000E+04 -1.216E-01
   1   16    9     1     9    1.2551E+05 -2.2077E+03   1.2771E+05  0.000E+00  0.000E+00  0.000E+00  4.46098E+01  1.667E-01  2.000E+01  2.000E+04 -1.104E-01
   1   16   10     1    10    1.2771E+05 -1.9036E+03   1.2962E+05  0.000E+00  0.000E+00  0.000E+00  4.41342E+01  1.683E-01  2.000E+01  2.000E+04 -9.518E-02
   1   16   11     1    11    1.2962E+05 -1.5056E+03   1.3112E+05  0.000E+00  0.000E+00  0.000E+00  4.36582E+01  1.696E-01  2.000E+01  2.000E+04 -7.528E-02
   1   16   12     1    12    1.3112E+05 -9.4821E+02   1.3207E+05  0.000E+00  0.000E+00  0.000E+00  4.31819E+01  1.706E-01  2.000E+01  2.000E+04 -4.741E-02
   1   15   13     1    13    1.3207E+05 -1.7249E+03   1.3380E+05  0.000E+00  0.000E+00  0.000E+00  4.27057E+01  1.716E-01  2.000E+01  2.000E+04 -8.624E-02
   1   14   14     1    14    1.3380E+05 -2.4062E+03   1.3620E+05  0.000E+00  0.000E+00  0.000E+00  4.22300E+01  1.732E-01  2.000E+01  2.000E+04 -1.203E-01
   1   13   15     1    15    1.3620E+05 -3.2335E+03   1.3944E+05  0.000E+00  0.000E+00  0.000E+00  4.17549E+01  1.754E-01  2.000E+01  2.000E+04 -1.617E-01
   1   12   16     1    16    1.3944E+05 -5.0129E+03   1.4445E+05  0.000E+00  0.000E+00  0.000E+00  4.12808E+01  1.785E-01  2.000E+01  2.000E+04 -2.506E-01
   1   12   17     1    17    1.4445E+05 -3.0647E+03   1.4751E+05  0.000E+00  0.000E+00  0.000E+00  4.08065E+01  1.815E-01  2.000E+01  2.000E+04 -1.532E-01
   1   12   18     1    18    1.4751E+05 -2.9483E+03   1.5046E+05  0.000E+00  0.000E+00  0.000E+00  4.03315E+01  1.837E-01  2.000E+01  2.000E+04 -1.474E-01
   1   12   19     1    19    1.5046E+05 -4.1183E+03   1.5458E+05  0.000E+00  0.000E+00  0.000E+00  3.98568E+01  1.863E-01  2.000E+01  2.000E+04 -2.059E-01
   1   13   20     1    20    1.5458E+05 -2.1271E+03   1.5671E+05  0.000E+00  0.000E+00  0.000E+00  3.93818E+01  1.886E-01  2.000E+01  2.000E+04 -1.064E-01
   1   14   21     1    21    1.5671E+05 -1.0086E+03   1.5772E+05  0.000E+00  0.000E+00  0.000E+00  3.89057E+01  1.898E-01  2.000E+01  2.000E+04 -5.043E-02
   1   14   22     1    22    1.5772E+05  5.1114E+03   1.5261E+05  0.000E+00  0.000E+00  0.000E+00  3.84269E+01  1.883E-01  2.000E+01  2.000E+04  2.556E-01
   1    9   30     2     1    5.0000E+04 -2.6877E+03   5.2688E+04  0.000E+00  0.000E+00  0.000E+00  4.02427E+01  1.177E-01  2.000E+01  2.000E+04 -1.344E-01
   1    9   29     2     2    5.2688E+04 -3.0206E+03   5.5708E+04  0.000E+00  0.000E+00  0.000E+00  3.99966E+01  1.216E-01  2.000E+01  2.000E+04 -1.510E-01
   1    9   28     2     3    5.5708E+04 -3.4025E+03   5.9111E+04  0.000E+00  0.000E+00  0.000E+00  3.97509E+01  1.259E-01  2.000E+01  2.000E+04 -1.701E-01
   1    9   27     2     4    5.9111E+04 -6.1062E+03   6.5217E+04  0.000E+00  0.000E+00  0.000E+00  3.95070E+01  1.320E-01  2.000E+01  2.000E+04 -3.053E-01
   1   10   26     2     5    6.5217E+04 -3.7312E+03   6.8948E+04  0.000E+00  0.000E+00  0.000E+00  3.92632E+01  1.382E-01  2.000E+01  2.000E+04 -1.866E-01
   1   11   25     2     6    6.8948E+04 -2.6911E+03   7.1639E+04  0.000E+00  0.000E+00  0.000E+00  3.90171E+01  1.421E-01  2.000E+01  2.000E+04 -1.346E-01
   1   12   24     2     7    7.1639E+04 -1.8566E+03   7.3496E+04  0.000E+00  0.000E+00  0.000E+00  3.87699E+01  1.449E-01  2.000E+01  2.000E+04 -9.283E-02
   1   13   23     2     8    7.3496E+04 -1.0504E+03   7.4546E+04  0.000E+00  0.000E+00  0.000E+00  3.85216E+01  1.466E-01  2.000E+01  2.000E+04 -5.252E-02
   1   14   22     2     9    7.4546E+04  1.9943E+03   7.2552E+04  0.000E+00  0.000E+00  0.000E+00  3.82711E+01  1.461E-01  2.000E+01  2.000E+04  9.972E-02
   1   14   22     3     1    2.2516E+05 -8.3655E+03   2.3352E+05  0.000E+00  0.000E+00  0.000E+00  3.77531E+01  1.975E-01  2.000E+01  2.000E+04 -4.183E-01
   1   15   23     3     2    2.3352E+05 -1.9017E+03   2.3542E+05  0.000E+00  0.000E+00  0.000E+00  3.68668E+01  2.002E-01  2.000E+01  2.000E+04 -9.509E-02
   1   15   24     3     3    2.3542E+05 -1.6016E+03   2.3703E+05  0.000E+00  0.000E+00  0.000E+00  3.59788E+01  2.010E-01  2.000E+01  2.000E+04 -8.008E-02
   1   15   25     3     4    2.3703E+05 -1.6354E+03   2.3866E+05  0.000E+00  0.000E+00  0.000E+00  3.50908E+01  2.019E-01  2.000E+01  2.000E+04 -8.177E-02
   1   15   26     3     5    2.3866E+05 -2.0948E+03   2.4076E+05  0.000E+00  0.000E+00  0.000E+00  3.42028E+01  2.028E-01  2.000E+01  2.000E+04 -1.047E-01
   1   16   27     3     6    2.4076E+05 -2.8863E+03   2.4364E+05  0.000E+00  0.000E+00  0.000E+00  3.33152E+01  2.041E-01  2.000E+01  2.000E+04 -1.443E-01
   1   17   28     3     7    2.4364E+05 -3.7256E+03   2.4737E+05  0.000E+00  0.000E+00  0.000E+00  3.24280E+01  2.057E-01  2.000E+01  2.000E+04 -1.863E-01
   1   18   29     3     8    2.4737E+05 -5.4309E+03   2.5280E+05  0.000E+00  0.000E+00  0.000E+00  3.15414E+01  2.080E-01  2.000E+01  2.000E+04 -2.715E-01
   1   18   30     3     9    2.5280E+05 -4.6475E+03   2.5745E+05  0.000E+00  0.000E+00  0.000E+00  3.06550E+01  2.105E-01  2.000E+01  2.000E+04 -2.324E-01



1
              HEAD IN LAYER   1 AT END OF TIME STEP   1 IN STRESS PERIOD    5
  ---------------------------------------------------------------------------

          1      2      3      4      5      6      7      8      9     10
         11     12     13     14     15     16     17     18     19     20
         21     22     23     24     25     26     27     28     29     30
 .........................................................................
   1  ****** ****** ****** ****** ****** ****** ****** ****** ****** ******
      ****** ****** ****** ****** ****** ****** ****** ****** ****** ******
      ****** ****** ****** ****** ****** ****** ****** ****** ****** ******
   2  ****** ****** ****** ****** ****** ****** ****** ****** ****** ******
      ****** ****** ****** ****** ****** ****** ****** ****** ****** ******
      ****** ****** ****** ****** ****** ****** ****** ****** ****** ******
   3  ****** ****** ****** ****** ****** ****** ****** ****** ****** ******
      ****** ****** ****** ****** ****** ****** ****** ****** ****** ******
      ****** ****** ****** ****** ****** ****** ****** ****** ****** ******
   4  ****** ****** ****** ****** ****** ****** ****** ****** ****** ******
      ****** ****** ****** ****** ****** ****** ****** ****** ****** ******
      ****** ****** ****** ****** ****** ****** ****** ****** ****** ******
   5  ****** ****** ****** ****** ****** ****** ****** ****** ****** ******
      ****** ****** ****** ****** ****** ****** ****** ****** ****** ******
      ****** ****** ****** ****** ****** ****** ****** ****** ****** ******
   6  ****** ****** ****** ****** ****** ****** ****** ****** ****** ******
      ****** ****** ****** ****** ****** ****** ****** ****** ****** ******
      ****** ****** ****** ****** ****** ****** ****** ****** ****** ******
   7  ****** ****** ****** ****** ****** ****** ****** ****** ****** ******
      ****** ****** ****** ****** ****** ****** ****** ****** ****** ******
      ****** ****** ****** ****** ****** ****** ****** ****** ****** ******
   8  ****** ****** ****** ****** ****** ****** ****** ****** ****** ******
      ****** ****** ****** ****** ****** ****** ****** ****** ****** ******
      ****** ****** ****** ****** ****** ****** ****** ****** ****** ******
   9  ****** ****** ****** ****** ****** ****** ****** ****** ****** ******
      ****** ****** ****** ****** ****** ****** ****** ****** ****** ******
      ****** ****** ****** ****** ****** ****** ****** ****** ****** ******
  10  ****** ****** ****** ****** ****** ****** ****** ****** ****** ******
      ****** ****** ****** ****** ****** ****** ****** ****** ****** ******
      ****** ****** ****** ****** ****** ****** ****** ****** ****** ******
  11  ****** ****** ****** ****** ****** ****** ****** ****** ****** ******
      ****** ****** ****** ****** ****** ****** ****** ****** ****** ******
      ****** ****** ****** ****** ****** ****** ****** ****** ****** ******
  12  ****** ****** ****** ****** ****** ****** ****** ****** ****** ******
      ****** ****** ****** ****** ****** ****** ****** ****** ****** ******
      ****** ****** ****** ****** ****** ****** ****** ****** ****** ******
  13  ****** ****** ****** ****** ****** ****** ****** ****** ****** ******
      ****** ****** ****** ****** ****** ****** ****** ****** ****** ******
      ****** ****** ****** ****** ****** ****** ****** ****** ****** ******
  14  ****** ****** ****** ****** ****** ****** ****** ****** ****** ******
      ****** ****** ****** ****** ****** ****** ****** ****** ****** ******
      ****** ****** ****** ****** ****** ****** ****** ****** ****** ******
  15  ****** ****** ****** ****** ****** ****** ****** ****** ****** ******
      ****** ****** ****** ****** ****** ****** ****** ****** ****** ******
      ****** ****** ****** ****** ****** ****** ****** ****** ****** ******
  16  ****** ****** ****** ****** ****** ****** ****** ****** ****** ******
      ****** ****** ****** ****** ****** ****** ****** ****** ****** ******
      ****** ****** ****** ****** ****** ****** ****** ****** ****** ******
  17  ****** ****** ****** ****** ****** ****** ****** ****** ****** ******
      ****** ****** ****** ****** ****** ****** ****** ****** ****** ******
      ****** ****** ****** ****** ****** ****** ****** ****** ****** ******
  18  ****** ****** ****** ****** ****** ****** ****** ****** ****** ******
      ****** ****** ****** ****** ****** ****** ****** ****** ****** ******
      ****** ****** ****** ****** ****** ****** ****** ****** ****** ******
  19  ****** ****** ****** ****** ****** ****** ****** ****** ****** ******
      ****** ****** ****** ****** ****** ****** ****** ****** ****** ******
      ****** ****** ****** ****** ****** ****** ****** ****** ****** ******
  20  ****** ****** ****** ****** ****** ****** ****** ****** ****** ******
      ****** ****** ****** ****** ****** ****** ****** ****** ****** ******
      ****** ****** ****** ****** ****** ****** ****** ****** ****** ******
  21  ****** ****** ****** ****** ****** ****** ****** ****** ****** ******
      ****** ****** ****** ****** ****** ****** ****** ****** ****** ******
      ****** ****** ****** ****** ****** ****** ****** ****** ****** ******
  22  ****** ****** ****** ****** ****** ****** ****** ****** ****** ******
      ****** ****** ****** ****** ****** ****** ****** ****** ****** ******
      ****** ****** ****** ****** ****** ****** ****** ****** ****** ******
  23  ****** ****** ****** ****** ****** ****** ****** ****** ****** ******
      ****** ****** ****** ****** ****** ****** ****** ****** ****** ******
      ****** ****** ****** ****** ****** ****** ****** ****** ****** ******
  24  ****** ****** ****** ****** ****** ****** ****** ****** ****** ******
      ****** ****** ****** ****** ****** ****** ****** ****** ****** ******
      ****** ****** ****** ****** ****** ****** ****** ****** ****** ******
  25  ****** ****** ****** ****** ****** ****** ****** ****** ****** ******
      ****** ****** ****** ****** ****** ****** ****** ****** ****** ******
      ****** ****** ****** ****** ****** ****** ****** ****** ****** ******

 HEAD WILL BE SAVED ON UNIT   51 AT END OF TIME STEP    1, STRESS PERIOD    5
1
  VOLUMETRIC BUDGET FOR ENTIRE MODEL AT END OF TIME STEP    1, STRESS PERIOD   5
  ------------------------------------------------------------------------------

     CUMULATIVE VOLUMES      L**3       RATES FOR THIS TIME STEP      L**3/T
     ------------------                 ------------------------

           IN:                                      IN:
           ---                                      ---
             STORAGE =    23797816.2589               STORAGE =        4510.2274
       CONSTANT HEAD =    73192730.5073         CONSTANT HEAD =      177430.9563
               WELLS =           0.0000                 WELLS =           0.0000
            RECHARGE =    10074000.0000              RECHARGE =       13800.0000
      STREAM LEAKAGE =     3006185.7126        STREAM LEAKAGE =        7105.7572

            TOTAL IN =   110070732.4789              TOTAL IN =      202846.9409

          OUT:                                     OUT:
          ----                                     ----
             STORAGE =       21869.8951               STORAGE =           0.0000
       CONSTANT HEAD =           0.0000         CONSTANT HEAD =           0.0000
               WELLS =    40350696.3584                 WELLS =       88294.7404
            RECHARGE =           0.0000              RECHARGE =           0.0000
      STREAM LEAKAGE =    69698166.9896        STREAM LEAKAGE =      114552.2013

           TOTAL OUT =   110070733.2431             TOTAL OUT =      202846.9417

            IN - OUT =          -0.7642              IN - OUT =      -7.9677E-04

 PERCENT DISCREPANCY =          -0.00     PERCENT DISCREPANCY =          -0.00






         TIME SUMMARY AT END OF TIME STEP    1 IN STRESS PERIOD    5
                    SECONDS     MINUTES      HOURS       DAYS        YEARS
                    -----------------------------------------------------------
   TIME STEP LENGTH 7.94880E+06 1.32480E+05  2208.0      92.000     0.25188    
 STRESS PERIOD TIME 7.94880E+06 1.32480E+05  2208.0      92.000     0.25188    
         TOTAL TIME 3.94848E+07 6.58080E+05  10968.      457.00      1.2512    
1
1
                            STRESS PERIOD NO.    6, LENGTH =   91.00000    
                            -----------------------------------------------

                              NUMBER OF TIME STEPS =     1

                               MULTIPLIER FOR DELT =     1.500

                            INITIAL TIME STEP SIZE =   91.00000    

 WELL NO.  LAYER   ROW   COL   STRESS RATE         
 --------------------------------------------------
      1      1     21     15      -9504.    
      2      1     23     15     -0.2528E+05
      3      1     23     11     -0.3088E+05
      4      1     21     17     -0.2263E+05

      4 WELLS

                 RECHARGE =  2.000000E-03

 REUSING STREAM SEGMENT DATA FROM LAST STRESS PERIOD
 
 SOLVING FOR HEAD 


     7 CALLS TO PCG ROUTINE FOR TIME STEP   1 IN STRESS PERIOD    6
    26 TOTAL ITERATIONS

 OUTPUT CONTROL FOR STRESS PERIOD    6   TIME STEP    1
    SAVE BUDGET
    SAVE HEAD FOR ALL LAYERS
    PRINT HEAD FOR ALL LAYERS
 UBDSV2 SAVING "STREAMFLOW OUT  " ON UNIT  50 AT TIME STEP  1, STRESS PERIOD   6



 STREAM LISTING     PERIOD      6   STEP        1

 LAYER ROW COL. STREAM  RCH.  FLOW INTO     FLOW TO   FLOW OUT OF   OVRLND.     DIRECT     STREAM       STREAM     STREAM     STREAM   STREAMBED  STREAMBED
                SEG.NO.  NO.  STRM. RCH.    AQUIFER    STRM. RCH.    RUNOFF     PRECIP       ET          HEAD       DEPTH      WIDTH   CONDCTNC.   GRADIENT

   1   13    1     1     1    1.0000E+05 -3.1251E+03   1.0313E+05  0.000E+00  0.000E+00  0.000E+00  4.84074E+01  1.460E-01  2.000E+01  2.000E+04 -1.563E-01
   1   13    2     1     2    1.0313E+05 -5.1829E+03   1.0831E+05  0.000E+00  0.000E+00  0.000E+00  4.79336E+01  1.496E-01  2.000E+01  2.000E+04 -2.591E-01
   1   14    3     1     3    1.0831E+05 -4.1585E+03   1.1247E+05  0.000E+00  0.000E+00  0.000E+00  4.74603E+01  1.535E-01  2.000E+01  2.000E+04 -2.079E-01
   1   15    4     1     4    1.1247E+05 -3.9501E+03   1.1642E+05  0.000E+00  0.000E+00  0.000E+00  4.69864E+01  1.568E-01  2.000E+01  2.000E+04 -1.975E-01
   1   16    5     1     5    1.1642E+05 -3.9297E+03   1.2035E+05  0.000E+00  0.000E+00  0.000E+00  4.65123E+01  1.601E-01  2.000E+01  2.000E+04 -1.965E-01
   1   16    6     1     6    1.2035E+05 -3.0357E+03   1.2338E+05  0.000E+00  0.000E+00  0.000E+00  4.60379E+01  1.629E-01  2.000E+01  2.000E+04 -1.518E-01
   1   16    7     1     7    1.2338E+05 -2.9721E+03   1.2635E+05  0.000E+00  0.000E+00  0.000E+00  4.55630E+01  1.653E-01  2.000E+01  2.000E+04 -1.486E-01
   1   16    8     1     8    1.2635E+05 -2.8317E+03   1.2919E+05  0.000E+00  0.000E+00  0.000E+00  4.50880E+01  1.676E-01  2.000E+01  2.000E+04 -1.416E-01
   1   16    9     1     9    1.2919E+05 -2.6062E+03   1.3179E+05  0.000E+00  0.000E+00  0.000E+00  4.46129E+01  1.697E-01  2.000E+01  2.000E+04 -1.303E-01
   1   16   10     1    10    1.3179E+05 -2.2983E+03   1.3409E+05  0.000E+00  0.000E+00  0.000E+00  4.41375E+01  1.716E-01  2.000E+01  2.000E+04 -1.149E-01
   1   16   11     1    11    1.3409E+05 -1.8947E+03   1.3598E+05  0.000E+00  0.000E+00  0.000E+00  4.36619E+01  1.732E-01  2.000E+01  2.000E+04 -9.474E-02
   1   16   12     1    12    1.3598E+05 -1.4475E+03   1.3743E+05  0.000E+00  0.000E+00  0.000E+00  4.31859E+01  1.745E-01  2.000E+01  2.000E+04 -7.238E-02
   1   15   13     1    13    1.3743E+05 -2.2678E+03   1.3970E+05  0.000E+00  0.000E+00  0.000E+00  4.27100E+01  1.759E-01  2.000E+01  2.000E+04 -1.134E-01
   1   14   14     1    14    1.3970E+05 -2.9592E+03   1.4266E+05  0.000E+00  0.000E+00  0.000E+00  4.22347E+01  1.779E-01  2.000E+01  2.000E+04 -1.480E-01
   1   13   15     1    15    1.4266E+05 -3.7778E+03   1.4644E+05  0.000E+00  0.000E+00  0.000E+00  4.17600E+01  1.804E-01  2.000E+01  2.000E+04 -1.889E-01
   1   12   16     1    16    1.4644E+05 -5.5340E+03   1.5197E+05  0.000E+00  0.000E+00  0.000E+00  4.12862E+01  1.839E-01  2.000E+01  2.000E+04 -2.767E-01
   1   12   17     1    17    1.5197E+05 -3.4539E+03   1.5543E+05  0.000E+00  0.000E+00  0.000E+00  4.08122E+01  1.872E-01  2.000E+01  2.000E+04 -1.727E-01
   1   12   18     1    18    1.5543E+05 -3.3316E+03   1.5876E+05  0.000E+00  0.000E+00  0.000E+00  4.03374E+01  1.897E-01  2.000E+01  2.000E+04 -1.666E-01
   1   12   19     1    19    1.5876E+05 -4.5869E+03   1.6334E+05  0.000E+00  0.000E+00  0.000E+00  3.98630E+01  1.925E-01  2.000E+01  2.000E+04 -2.293E-01
   1   13   20     1    20    1.6334E+05 -2.5835E+03   1.6593E+05  0.000E+00  0.000E+00  0.000E+00  3.93883E+01  1.951E-01  2.000E+01  2.000E+04 -1.292E-01
   1   14   21     1    21    1.6593E+05 -1.4269E+03   1.6735E+05  0.000E+00  0.000E+00  0.000E+00  3.89124E+01  1.965E-01  2.000E+01  2.000E+04 -7.134E-02
   1   14   22     1    22    1.6735E+05  5.0331E+03   1.6232E+05  0.000E+00  0.000E+00  0.000E+00  3.84339E+01  1.952E-01  2.000E+01  2.000E+04  2.517E-01
   1    9   30     2     1    5.0000E+04 -3.0448E+03   5.3045E+04  0.000E+00  0.000E+00  0.000E+00  4.02430E+01  1.180E-01  2.000E+01  2.000E+04 -1.522E-01
   1    9   29     2     2    5.3045E+04 -3.3748E+03   5.6420E+04  0.000E+00  0.000E+00  0.000E+00  3.99973E+01  1.223E-01  2.000E+01  2.000E+04 -1.687E-01
   1    9   28     2     3    5.6420E+04 -3.7546E+03   6.0174E+04  0.000E+00  0.000E+00  0.000E+00  3.97520E+01  1.270E-01  2.000E+01  2.000E+04 -1.877E-01
   1    9   27     2     4    6.0174E+04 -6.5757E+03   6.6750E+04  0.000E+00  0.000E+00  0.000E+00  3.95087E+01  1.337E-01  2.000E+01  2.000E+04 -3.288E-01
   1   10   26     2     5    6.6750E+04 -4.2172E+03   7.0967E+04  0.000E+00  0.000E+00  0.000E+00  3.92654E+01  1.404E-01  2.000E+01  2.000E+04 -2.109E-01
   1   11   25     2     6    7.0967E+04 -3.1561E+03   7.4123E+04  0.000E+00  0.000E+00  0.000E+00  3.90199E+01  1.449E-01  2.000E+01  2.000E+04 -1.578E-01
   1   12   24     2     7    7.4123E+04 -2.2676E+03   7.6391E+04  0.000E+00  0.000E+00  0.000E+00  3.87731E+01  1.481E-01  2.000E+01  2.000E+04 -1.134E-01
   1   13   23     2     8    7.6391E+04 -1.3710E+03   7.7762E+04  0.000E+00  0.000E+00  0.000E+00  3.85252E+01  1.502E-01  2.000E+01  2.000E+04 -6.855E-02
   1   14   22     2     9    7.7762E+04  1.8544E+03   7.5907E+04  0.000E+00  0.000E+00  0.000E+00  3.82749E+01  1.499E-01  2.000E+01  2.000E+04  9.272E-02
   1   14   22     3     1    2.3823E+05 -8.4490E+03   2.4668E+05  0.000E+00  0.000E+00  0.000E+00  3.77598E+01  2.042E-01  2.000E+01  2.000E+04 -4.225E-01
   1   15   23     3     2    2.4668E+05 -2.2926E+03   2.4897E+05  0.000E+00  0.000E+00  0.000E+00  3.68736E+01  2.069E-01  2.000E+01  2.000E+04 -1.146E-01
   1   15   24     3     3    2.4897E+05 -1.8859E+03   2.5086E+05  0.000E+00  0.000E+00  0.000E+00  3.59857E+01  2.080E-01  2.000E+01  2.000E+04 -9.430E-02
   1   15   25     3     4    2.5086E+05 -1.9214E+03   2.5278E+05  0.000E+00  0.000E+00  0.000E+00  3.50978E+01  2.089E-01  2.000E+01  2.000E+04 -9.607E-02
   1   15   26     3     5    2.5278E+05 -2.4648E+03   2.5524E+05  0.000E+00  0.000E+00  0.000E+00  3.42100E+01  2.100E-01  2.000E+01  2.000E+04 -1.232E-01
   1   16   27     3     6    2.5524E+05 -3.3496E+03   2.5859E+05  0.000E+00  0.000E+00  0.000E+00  3.33225E+01  2.114E-01  2.000E+01  2.000E+04 -1.675E-01
   1   17   28     3     7    2.5859E+05 -4.1986E+03   2.6279E+05  0.000E+00  0.000E+00  0.000E+00  3.24355E+01  2.133E-01  2.000E+01  2.000E+04 -2.099E-01
   1   18   29     3     8    2.6279E+05 -5.8745E+03   2.6866E+05  0.000E+00  0.000E+00  0.000E+00  3.15491E+01  2.158E-01  2.000E+01  2.000E+04 -2.937E-01
   1   18   30     3     9    2.6866E+05 -4.9829E+03   2.7365E+05  0.000E+00  0.000E+00  0.000E+00  3.06628E+01  2.184E-01  2.000E+01  2.000E+04 -2.491E-01



1
              HEAD IN LAYER   1 AT END OF TIME STEP   1 IN STRESS PERIOD    6
  ---------------------------------------------------------------------------

          1      2      3      4      5      6      7      8      9     10
         11     12     13     14     15     16     17     18     19     20
         21     22     23     24     25     26     27     28     29     30
 .........................................................................
   1  ****** ****** ****** ****** ****** ****** ****** ****** ****** ******
      ****** ****** ****** ****** ****** ****** ****** ****** ****** ******
      ****** ****** ****** ****** ****** ****** ****** ****** ****** ******
   2  ****** ****** ****** ****** ****** ****** ****** ****** ****** ******
      ****** ****** ****** ****** ****** ****** ****** ****** ****** ******
      ****** ****** ****** ****** ****** ****** ****** ****** ****** ******
   3  ****** ****** ****** ****** ****** ****** ****** ****** ****** ******
      ****** ****** ****** ****** ****** ****** ****** ****** ****** ******
      ****** ****** ****** ****** ****** ****** ****** ****** ****** ******
   4  ****** ****** ****** ****** ****** ****** ****** ****** ****** ******
      ****** ****** ****** ****** ****** ****** ****** ****** ****** ******
      ****** ****** ****** ****** ****** ****** ****** ****** ****** ******
   5  ****** ****** ****** ****** ****** ****** ****** ****** ****** ******
      ****** ****** ****** ****** ****** ****** ****** ****** ****** ******
      ****** ****** ****** ****** ****** ****** ****** ****** ****** ******
   6  ****** ****** ****** ****** ****** ****** ****** ****** ****** ******
      ****** ****** ****** ****** ****** ****** ****** ****** ****** ******
      ****** ****** ****** ****** ****** ****** ****** ****** ****** ******
   7  ****** ****** ****** ****** ****** ****** ****** ****** ****** ******
      ****** ****** ****** ****** ****** ****** ****** ****** ****** ******
      ****** ****** ****** ****** ****** ****** ****** ****** ****** ******
   8  ****** ****** ****** ****** ****** ****** ****** ****** ****** ******
      ****** ****** ****** ****** ****** ****** ****** ****** ****** ******
      ****** ****** ****** ****** ****** ****** ****** ****** ****** ******
   9  ****** ****** ****** ****** ****** ****** ****** ****** ****** ******
      ****** ****** ****** ****** ****** ****** ****** ****** ****** ******
      ****** ****** ****** ****** ****** ****** ****** ****** ****** ******
  10  ****** ****** ****** ****** ****** ****** ****** ****** ****** ******
      ****** ****** ****** ****** ****** ****** ****** ****** ****** ******
      ****** ****** ****** ****** ****** ****** ****** ****** ****** ******
  11  ****** ****** ****** ****** ****** ****** ****** ****** ****** ******
      ****** ****** ****** ****** ****** ****** ****** ****** ****** ******
      ****** ****** ****** ****** ****** ****** ****** ****** ****** ******
  12  ****** ****** ****** ****** ****** ****** ****** ****** ****** ******
      ****** ****** ****** ****** ****** ****** ****** ****** ****** ******
      ****** ****** ****** ****** ****** ****** ****** ****** ****** ******
  13  ****** ****** ****** ****** ****** ****** ****** ****** ****** ******
      ****** ****** ****** ****** ****** ****** ****** ****** ****** ******
      ****** ****** ****** ****** ****** ****** ****** ****** ****** ******
  14  ****** ****** ****** ****** ****** ****** ****** ****** ****** ******
      ****** ****** ****** ****** ****** ****** ****** ****** ****** ******
      ****** ****** ****** ****** ****** ****** ****** ****** ****** ******
  15  ****** ****** ****** ****** ****** ****** ****** ****** ****** ******
      ****** ****** ****** ****** ****** ****** ****** ****** ****** ******
      ****** ****** ****** ****** ****** ****** ****** ****** ****** ******
  16  ****** ****** ****** ****** ****** ****** ****** ****** ****** ******
      ****** ****** ****** ****** ****** ****** ****** ****** ****** ******
      ****** ****** ****** ****** ****** ****** ****** ****** ****** ******
  17  ****** ****** ****** ****** ****** ****** ****** ****** ****** ******
      ****** ****** ****** ****** ****** ****** ****** ****** ****** ******
      ****** ****** ****** ****** ****** ****** ****** ****** ****** ******
  18  ****** ****** ****** ****** ****** ****** ****** ****** ****** ******
      ****** ****** ****** ****** ****** ****** ****** ****** ****** ******
      ****** ****** ****** ****** ****** ****** ****** ****** ****** ******
  19  ****** ****** ****** ****** ****** ****** ****** ****** ****** ******
      ****** ****** ****** ****** ****** ****** ****** ****** ****** ******
      ****** ****** ****** ****** ****** ****** ****** ****** ****** ******
  20  ****** ****** ****** ****** ****** ****** ****** ****** ****** ******
      ****** ****** ****** ****** ****** ****** ****** ****** ****** ******
      ****** ****** ****** ****** ****** ****** ****** ****** ****** ******
  21  ****** ****** ****** ****** ****** ****** ****** ****** ****** ******
      ****** ****** ****** ****** ****** ****** ****** ****** ****** ******
      ****** ****** ****** ****** ****** ****** ****** ****** ****** ******
  22  ****** ****** ****** ****** ****** ****** ****** ****** ****** ******
      ****** ****** ****** ****** ****** ****** ****** ****** ****** ******
      ****** ****** ****** ****** ****** ****** ****** ****** ****** ******
  23  ****** ****** ****** ****** ****** ****** ****** ****** ****** ******
      ****** ****** ****** ****** ****** ****** ****** ****** ****** ******
      ****** ****** ****** ****** ****** ****** ****** ****** ****** ******
  24  ****** ****** ****** ****** ****** ****** ****** ****** ****** ******
      ****** ****** ****** ****** ****** ****** ****** ****** ****** ******
      ****** ****** ****** ****** ****** ****** ****** ****** ****** ******
  25  ****** ****** ****** ****** ****** ****** ****** ****** ****** ******
      ****** ****** ****** ****** ****** ****** ****** ****** ****** ******
      ****** ****** ****** ****** ****** ****** ****** ****** ****** ******

 HEAD WILL BE SAVED ON UNIT   51 AT END OF TIME STEP    1, STRESS PERIOD    6
1
  VOLUMETRIC BUDGET FOR ENTIRE MODEL AT END OF TIME STEP    1, STRESS PERIOD   6
  ------------------------------------------------------------------------------

     CUMULATIVE VOLUMES      L**3       RATES FOR THIS TIME STEP      L**3/T
     ------------------                 ------------------------

           IN:                                      IN:
           ---                                      ---
             STORAGE =    23797816.2589               STORAGE =           0.0000
       CONSTANT HEAD =    88373144.1327         CONSTANT HEAD =      166817.7321
               WELLS =           0.0000                 WELLS =           0.0000
            RECHARGE =    15097200.0000              RECHARGE =       55200.0000
      STREAM LEAKAGE =     3632942.9023        STREAM LEAKAGE =        6887.4416

            TOTAL IN =   130901103.2940              TOTAL IN =      228905.1738

          OUT:                                     OUT:
          ----                                     ----
             STORAGE =      938720.3989               STORAGE =       10075.2803
       CONSTANT HEAD =           0.0000         CONSTANT HEAD =           0.0000
               WELLS =    48385517.7340                 WELLS =       88294.7404
            RECHARGE =           0.0000              RECHARGE =           0.0000
      STREAM LEAKAGE =    81576865.7708        STREAM LEAKAGE =      130535.1514

           TOTAL OUT =   130901103.9037             TOTAL OUT =      228905.1721

            IN - OUT =          -0.6097              IN - OUT =       1.6979E-03

 PERCENT DISCREPANCY =          -0.00     PERCENT DISCREPANCY =           0.00






         TIME SUMMARY AT END OF TIME STEP    1 IN STRESS PERIOD    6
                    SECONDS     MINUTES      HOURS       DAYS        YEARS
                    -----------------------------------------------------------
   TIME STEP LENGTH 7.86240E+06 1.31040E+05  2184.0      91.000     0.24914    
 STRESS PERIOD TIME 7.86240E+06 1.31040E+05  2184.0      91.000     0.24914    
         TOTAL TIME 4.73472E+07 7.89120E+05  13152.      548.00      1.5003    
1
1
                            STRESS PERIOD NO.    7, LENGTH =   91.00000    
                            -----------------------------------------------

                              NUMBER OF TIME STEPS =     1

                               MULTIPLIER FOR DELT =     1.500

                            INITIAL TIME STEP SIZE =   91.00000    

 WELL NO.  LAYER   ROW   COL   STRESS RATE         
 --------------------------------------------------
      1      1     21     15      -9504.    
      2      1     23     15     -0.2528E+05
      3      1     23     11     -0.3088E+05
      4      1     21     17     -0.2263E+05

      4 WELLS

                 RECHARGE =   0.00000    

 REUSING STREAM SEGMENT DATA FROM LAST STRESS PERIOD
 
 SOLVING FOR HEAD 


     7 CALLS TO PCG ROUTINE FOR TIME STEP   1 IN STRESS PERIOD    7
    26 TOTAL ITERATIONS

 OUTPUT CONTROL FOR STRESS PERIOD    7   TIME STEP    1
    SAVE BUDGET
    SAVE HEAD FOR ALL LAYERS
    PRINT HEAD FOR ALL LAYERS
 UBDSV2 SAVING "STREAMFLOW OUT  " ON UNIT  50 AT TIME STEP  1, STRESS PERIOD   7



 STREAM LISTING     PERIOD      7   STEP        1

 LAYER ROW COL. STREAM  RCH.  FLOW INTO     FLOW TO   FLOW OUT OF   OVRLND.     DIRECT     STREAM       STREAM     STREAM     STREAM   STREAMBED  STREAMBED
                SEG.NO.  NO.  STRM. RCH.    AQUIFER    STRM. RCH.    RUNOFF     PRECIP       ET          HEAD       DEPTH      WIDTH   CONDCTNC.   GRADIENT

   1   13    1     1     1    1.0000E+05 -2.6309E+03   1.0263E+05  0.000E+00  0.000E+00  0.000E+00  4.84072E+01  1.458E-01  2.000E+01  2.000E+04 -1.315E-01
   1   13    2     1     2    1.0263E+05 -4.5343E+03   1.0717E+05  0.000E+00  0.000E+00  0.000E+00  4.79330E+01  1.489E-01  2.000E+01  2.000E+04 -2.267E-01
   1   14    3     1     3    1.0717E+05 -3.4922E+03   1.1066E+05  0.000E+00  0.000E+00  0.000E+00  4.74591E+01  1.523E-01  2.000E+01  2.000E+04 -1.746E-01
   1   15    4     1     4    1.1066E+05 -3.2890E+03   1.1395E+05  0.000E+00  0.000E+00  0.000E+00  4.69846E+01  1.551E-01  2.000E+01  2.000E+04 -1.644E-01
   1   16    5     1     5    1.1395E+05 -3.3213E+03   1.1727E+05  0.000E+00  0.000E+00  0.000E+00  4.65101E+01  1.578E-01  2.000E+01  2.000E+04 -1.661E-01
   1   16    6     1     6    1.1727E+05 -2.5534E+03   1.1982E+05  0.000E+00  0.000E+00  0.000E+00  4.60352E+01  1.602E-01  2.000E+01  2.000E+04 -1.277E-01
   1   16    7     1     7    1.1982E+05 -2.4824E+03   1.2230E+05  0.000E+00  0.000E+00  0.000E+00  4.55600E+01  1.622E-01  2.000E+01  2.000E+04 -1.241E-01
   1   16    8     1     8    1.2230E+05 -2.3377E+03   1.2464E+05  0.000E+00  0.000E+00  0.000E+00  4.50846E+01  1.642E-01  2.000E+01  2.000E+04 -1.169E-01
   1   16    9     1     9    1.2464E+05 -2.1122E+03   1.2675E+05  0.000E+00  0.000E+00  0.000E+00  4.46091E+01  1.659E-01  2.000E+01  2.000E+04 -1.056E-01
   1   16   10     1    10    1.2675E+05 -1.8086E+03   1.2856E+05  0.000E+00  0.000E+00  0.000E+00  4.41334E+01  1.675E-01  2.000E+01  2.000E+04 -9.043E-02
   1   16   11     1    11    1.2856E+05 -1.4116E+03   1.2997E+05  0.000E+00  0.000E+00  0.000E+00  4.36574E+01  1.687E-01  2.000E+01  2.000E+04 -7.058E-02
   1   16   12     1    12    1.2997E+05 -8.2935E+02   1.3080E+05  0.000E+00  0.000E+00  0.000E+00  4.31810E+01  1.696E-01  2.000E+01  2.000E+04 -4.147E-02
   1   15   13     1    13    1.3080E+05 -1.5936E+03   1.3240E+05  0.000E+00  0.000E+00  0.000E+00  4.27047E+01  1.706E-01  2.000E+01  2.000E+04 -7.968E-02
   1   14   14     1    14    1.3240E+05 -2.2730E+03   1.3467E+05  0.000E+00  0.000E+00  0.000E+00  4.22289E+01  1.721E-01  2.000E+01  2.000E+04 -1.137E-01
   1   13   15     1    15    1.3467E+05 -3.1035E+03   1.3777E+05  0.000E+00  0.000E+00  0.000E+00  4.17537E+01  1.741E-01  2.000E+01  2.000E+04 -1.552E-01
   1   12   16     1    16    1.3777E+05 -4.8942E+03   1.4267E+05  0.000E+00  0.000E+00  0.000E+00  4.12795E+01  1.772E-01  2.000E+01  2.000E+04 -2.447E-01
   1   12   17     1    17    1.4267E+05 -2.9734E+03   1.4564E+05  0.000E+00  0.000E+00  0.000E+00  4.08051E+01  1.801E-01  2.000E+01  2.000E+04 -1.487E-01
   1   12   18     1    18    1.4564E+05 -2.8585E+03   1.4850E+05  0.000E+00  0.000E+00  0.000E+00  4.03300E+01  1.823E-01  2.000E+01  2.000E+04 -1.429E-01
   1   12   19     1    19    1.4850E+05 -4.0107E+03   1.5251E+05  0.000E+00  0.000E+00  0.000E+00  3.98553E+01  1.849E-01  2.000E+01  2.000E+04 -2.005E-01
   1   13   20     1    20    1.5251E+05 -2.0151E+03   1.5452E+05  0.000E+00  0.000E+00  0.000E+00  3.93803E+01  1.871E-01  2.000E+01  2.000E+04 -1.008E-01
   1   14   21     1    21    1.5452E+05 -9.0626E+02   1.5543E+05  0.000E+00  0.000E+00  0.000E+00  3.89041E+01  1.881E-01  2.000E+01  2.000E+04 -4.531E-02
   1   14   22     1    22    1.5543E+05  5.1324E+03   1.5030E+05  0.000E+00  0.000E+00  0.000E+00  3.84252E+01  1.866E-01  2.000E+01  2.000E+04  2.566E-01
   1    9   30     2     1    5.0000E+04 -2.6021E+03   5.2602E+04  0.000E+00  0.000E+00  0.000E+00  4.02427E+01  1.177E-01  2.000E+01  2.000E+04 -1.301E-01
   1    9   29     2     2    5.2602E+04 -2.9357E+03   5.5538E+04  0.000E+00  0.000E+00  0.000E+00  3.99964E+01  1.214E-01  2.000E+01  2.000E+04 -1.468E-01
   1    9   28     2     3    5.5538E+04 -3.3188E+03   5.8857E+04  0.000E+00  0.000E+00  0.000E+00  3.97506E+01  1.256E-01  2.000E+01  2.000E+04 -1.659E-01
   1    9   27     2     4    5.8857E+04 -6.0006E+03   6.4857E+04  0.000E+00  0.000E+00  0.000E+00  3.95066E+01  1.316E-01  2.000E+01  2.000E+04 -3.000E-01
   1   10   26     2     5    6.4857E+04 -3.6164E+03   6.8474E+04  0.000E+00  0.000E+00  0.000E+00  3.92627E+01  1.377E-01  2.000E+01  2.000E+04 -1.808E-01
   1   11   25     2     6    6.8474E+04 -2.5786E+03   7.1052E+04  0.000E+00  0.000E+00  0.000E+00  3.90165E+01  1.415E-01  2.000E+01  2.000E+04 -1.289E-01
   1   12   24     2     7    7.1052E+04 -1.7536E+03   7.2806E+04  0.000E+00  0.000E+00  0.000E+00  3.87691E+01  1.441E-01  2.000E+01  2.000E+04 -8.768E-02
   1   13   23     2     8    7.2806E+04 -9.6597E+02   7.3772E+04  0.000E+00  0.000E+00  0.000E+00  3.85207E+01  1.457E-01  2.000E+01  2.000E+04 -4.830E-02
   1   14   22     2     9    7.3772E+04  2.0299E+03   7.1742E+04  0.000E+00  0.000E+00  0.000E+00  3.82701E+01  1.451E-01  2.000E+01  2.000E+04  1.015E-01
   1   14   22     3     1    2.2204E+05 -8.3435E+03   2.3038E+05  0.000E+00  0.000E+00  0.000E+00  3.77514E+01  1.959E-01  2.000E+01  2.000E+04 -4.172E-01
   1   15   23     3     2    2.3038E+05 -1.8062E+03   2.3219E+05  0.000E+00  0.000E+00  0.000E+00  3.68652E+01  1.985E-01  2.000E+01  2.000E+04 -9.031E-02
   1   15   24     3     3    2.3219E+05 -1.5284E+03   2.3372E+05  0.000E+00  0.000E+00  0.000E+00  3.59771E+01  1.994E-01  2.000E+01  2.000E+04 -7.642E-02
   1   15   25     3     4    2.3372E+05 -1.5608E+03   2.3528E+05  0.000E+00  0.000E+00  0.000E+00  3.50891E+01  2.002E-01  2.000E+01  2.000E+04 -7.804E-02
   1   15   26     3     5    2.3528E+05 -1.9992E+03   2.3728E+05  0.000E+00  0.000E+00  0.000E+00  3.42011E+01  2.011E-01  2.000E+01  2.000E+04 -9.996E-02
   1   16   27     3     6    2.3728E+05 -2.7709E+03   2.4005E+05  0.000E+00  0.000E+00  0.000E+00  3.33134E+01  2.023E-01  2.000E+01  2.000E+04 -1.385E-01
   1   17   28     3     7    2.4005E+05 -3.6092E+03   2.4366E+05  0.000E+00  0.000E+00  0.000E+00  3.24261E+01  2.039E-01  2.000E+01  2.000E+04 -1.805E-01
   1   18   29     3     8    2.4366E+05 -5.3246E+03   2.4898E+05  0.000E+00  0.000E+00  0.000E+00  3.15395E+01  2.062E-01  2.000E+01  2.000E+04 -2.662E-01
   1   18   30     3     9    2.4898E+05 -4.5643E+03   2.5355E+05  0.000E+00  0.000E+00  0.000E+00  3.06531E+01  2.086E-01  2.000E+01  2.000E+04 -2.282E-01



1
              HEAD IN LAYER   1 AT END OF TIME STEP   1 IN STRESS PERIOD    7
  ---------------------------------------------------------------------------

          1      2      3      4      5      6      7      8      9     10
         11     12     13     14     15     16     17     18     19     20
         21     22     23     24     25     26     27     28     29     30
 .........................................................................
   1  ****** ****** ****** ****** ****** ****** ****** ****** ****** ******
      ****** ****** ****** ****** ****** ****** ****** ****** ****** ******
      ****** ****** ****** ****** ****** ****** ****** ****** ****** ******
   2  ****** ****** ****** ****** ****** ****** ****** ****** ****** ******
      ****** ****** ****** ****** ****** ****** ****** ****** ****** ******
      ****** ****** ****** ****** ****** ****** ****** ****** ****** ******
   3  ****** ****** ****** ****** ****** ****** ****** ****** ****** ******
      ****** ****** ****** ****** ****** ****** ****** ****** ****** ******
      ****** ****** ****** ****** ****** ****** ****** ****** ****** ******
   4  ****** ****** ****** ****** ****** ****** ****** ****** ****** ******
      ****** ****** ****** ****** ****** ****** ****** ****** ****** ******
      ****** ****** ****** ****** ****** ****** ****** ****** ****** ******
   5  ****** ****** ****** ****** ****** ****** ****** ****** ****** ******
      ****** ****** ****** ****** ****** ****** ****** ****** ****** ******
      ****** ****** ****** ****** ****** ****** ****** ****** ****** ******
   6  ****** ****** ****** ****** ****** ****** ****** ****** ****** ******
      ****** ****** ****** ****** ****** ****** ****** ****** ****** ******
      ****** ****** ****** ****** ****** ****** ****** ****** ****** ******
   7  ****** ****** ****** ****** ****** ****** ****** ****** ****** ******
      ****** ****** ****** ****** ****** ****** ****** ****** ****** ******
      ****** ****** ****** ****** ****** ****** ****** ****** ****** ******
   8  ****** ****** ****** ****** ****** ****** ****** ****** ****** ******
      ****** ****** ****** ****** ****** ****** ****** ****** ****** ******
      ****** ****** ****** ****** ****** ****** ****** ****** ****** ******
   9  ****** ****** ****** ****** ****** ****** ****** ****** ****** ******
      ****** ****** ****** ****** ****** ****** ****** ****** ****** ******
      ****** ****** ****** ****** ****** ****** ****** ****** ****** ******
  10  ****** ****** ****** ****** ****** ****** ****** ****** ****** ******
      ****** ****** ****** ****** ****** ****** ****** ****** ****** ******
      ****** ****** ****** ****** ****** ****** ****** ****** ****** ******
  11  ****** ****** ****** ****** ****** ****** ****** ****** ****** ******
      ****** ****** ****** ****** ****** ****** ****** ****** ****** ******
      ****** ****** ****** ****** ****** ****** ****** ****** ****** ******
  12  ****** ****** ****** ****** ****** ****** ****** ****** ****** ******
      ****** ****** ****** ****** ****** ****** ****** ****** ****** ******
      ****** ****** ****** ****** ****** ****** ****** ****** ****** ******
  13  ****** ****** ****** ****** ****** ****** ****** ****** ****** ******
      ****** ****** ****** ****** ****** ****** ****** ****** ****** ******
      ****** ****** ****** ****** ****** ****** ****** ****** ****** ******
  14  ****** ****** ****** ****** ****** ****** ****** ****** ****** ******
      ****** ****** ****** ****** ****** ****** ****** ****** ****** ******
      ****** ****** ****** ****** ****** ****** ****** ****** ****** ******
  15  ****** ****** ****** ****** ****** ****** ****** ****** ****** ******
      ****** ****** ****** ****** ****** ****** ****** ****** ****** ******
      ****** ****** ****** ****** ****** ****** ****** ****** ****** ******
  16  ****** ****** ****** ****** ****** ****** ****** ****** ****** ******
      ****** ****** ****** ****** ****** ****** ****** ****** ****** ******
      ****** ****** ****** ****** ****** ****** ****** ****** ****** ******
  17  ****** ****** ****** ****** ****** ****** ****** ****** ****** ******
      ****** ****** ****** ****** ****** ****** ****** ****** ****** ******
      ****** ****** ****** ****** ****** ****** ****** ****** ****** ******
  18  ****** ****** ****** ****** ****** ****** ****** ****** ****** ******
      ****** ****** ****** ****** ****** ****** ****** ****** ****** ******
      ****** ****** ****** ****** ****** ****** ****** ****** ****** ******
  19  ****** ****** ****** ****** ****** ****** ****** ****** ****** ******
      ****** ****** ****** ****** ****** ****** ****** ****** ****** ******
      ****** ****** ****** ****** ****** ****** ****** ****** ****** ******
  20  ****** ****** ****** ****** ****** ****** ****** ****** ****** ******
      ****** ****** ****** ****** ****** ****** ****** ****** ****** ******
      ****** ****** ****** ****** ****** ****** ****** ****** ****** ******
  21  ****** ****** ****** ****** ****** ****** ****** ****** ****** ******
      ****** ****** ****** ****** ****** ****** ****** ****** ****** ******
      ****** ****** ****** ****** ****** ****** ****** ****** ****** ******
  22  ****** ****** ****** ****** ****** ****** ****** ****** ****** ******
      ****** ****** ****** ****** ****** ****** ****** ****** ****** ******
      ****** ****** ****** ****** ****** ****** ****** ****** ****** ******
  23  ****** ****** ****** ****** ****** ****** ****** ****** ****** ******
      ****** ****** ****** ****** ****** ****** ****** ****** ****** ******
      ****** ****** ****** ****** ****** ****** ****** ****** ****** ******
  24  ****** ****** ****** ****** ****** ****** ****** ****** ****** ******
      ****** ****** ****** ****** ****** ****** ****** ****** ****** ******
      ****** ****** ****** ****** ****** ****** ****** ****** ****** ******
  25  ****** ****** ****** ****** ****** ****** ****** ****** ****** ******
      ****** ****** ****** ****** ****** ****** ****** ****** ****** ******
      ****** ****** ****** ****** ****** ****** ****** ****** ****** ******

 HEAD WILL BE SAVED ON UNIT   51 AT END OF TIME STEP    1, STRESS PERIOD    7
1
  VOLUMETRIC BUDGET FOR ENTIRE MODEL AT END OF TIME STEP    1, STRESS PERIOD   7
  ------------------------------------------------------------------------------

     CUMULATIVE VOLUMES      L**3       RATES FOR THIS TIME STEP      L**3/T
     ------------------                 ------------------------

           IN:                                      IN:
           ---                                      ---
             STORAGE =    24899948.3994               STORAGE =       12111.3422
       CONSTANT HEAD =   104728676.8308         CONSTANT HEAD =      179731.1286
               WELLS =           0.0000                 WELLS =           0.0000
            RECHARGE =    15097200.0000              RECHARGE =           0.0000
      STREAM LEAKAGE =     4284704.7470        STREAM LEAKAGE =        7162.2181

            TOTAL IN =   149010529.9773              TOTAL IN =      199004.6888

          OUT:                                     OUT:
          ----                                     ----
             STORAGE =      938720.3989               STORAGE =           0.0000
       CONSTANT HEAD =           0.0000         CONSTANT HEAD =           0.0000
               WELLS =    56420339.1095                 WELLS =       88294.7404
            RECHARGE =           0.0000              RECHARGE =           0.0000
      STREAM LEAKAGE =    91651471.2811        STREAM LEAKAGE =      110709.9507

           TOTAL OUT =   149010530.7896             TOTAL OUT =      199004.6911

            IN - OUT =          -0.8123              IN - OUT =      -2.2261E-03

 PERCENT DISCREPANCY =          -0.00     PERCENT DISCREPANCY =          -0.00






         TIME SUMMARY AT END OF TIME STEP    1 IN STRESS PERIOD    7
                    SECONDS     MINUTES      HOURS       DAYS        YEARS
                    -----------------------------------------------------------
   TIME STEP LENGTH 7.86240E+06 1.31040E+05  2184.0      91.000     0.24914    
 STRESS PERIOD TIME 7.86240E+06 1.31040E+05  2184.0      91.000     0.24914    
         TOTAL TIME 5.52096E+07 9.20160E+05  15336.      639.00      1.7495    
1
1
                            STRESS PERIOD NO.    8, LENGTH =   91.00000    
                            -----------------------------------------------

                              NUMBER OF TIME STEPS =     1

                               MULTIPLIER FOR DELT =     1.500

                            INITIAL TIME STEP SIZE =   91.00000    

 WELL NO.  LAYER   ROW   COL   STRESS RATE         
 --------------------------------------------------
      1      1     21     15      -9504.    
      2      1     23     15     -0.2528E+05
      3      1     23     11     -0.3088E+05
      4      1     21     17     -0.2263E+05

      4 WELLS

                 RECHARGE =  1.000000E-03

 REUSING STREAM SEGMENT DATA FROM LAST STRESS PERIOD
 
 SOLVING FOR HEAD 


     6 CALLS TO PCG ROUTINE FOR TIME STEP   1 IN STRESS PERIOD    8
    23 TOTAL ITERATIONS

 OUTPUT CONTROL FOR STRESS PERIOD    8   TIME STEP    1
    SAVE BUDGET
    SAVE HEAD FOR ALL LAYERS
    PRINT HEAD FOR ALL LAYERS
 UBDSV2 SAVING "STREAMFLOW OUT  " ON UNIT  50 AT TIME STEP  1, STRESS PERIOD   8



 STREAM LISTING     PERIOD      8   STEP        1

 LAYER ROW COL. STREAM  RCH.  FLOW INTO     FLOW TO   FLOW OUT OF   OVRLND.     DIRECT     STREAM       STREAM     STREAM     STREAM   STREAMBED  STREAMBED
                SEG.NO.  NO.  STRM. RCH.    AQUIFER    STRM. RCH.    RUNOFF     PRECIP       ET          HEAD       DEPTH      WIDTH   CONDCTNC.   GRADIENT

   1   13    1     1     1    1.0000E+05 -2.8002E+03   1.0280E+05  0.000E+00  0.000E+00  0.000E+00  4.84072E+01  1.459E-01  2.000E+01  2.000E+04 -1.400E-01
   1   13    2     1     2    1.0280E+05 -4.7457E+03   1.0755E+05  0.000E+00  0.000E+00  0.000E+00  4.79332E+01  1.491E-01  2.000E+01  2.000E+04 -2.373E-01
   1   14    3     1     3    1.0755E+05 -3.7265E+03   1.1127E+05  0.000E+00  0.000E+00  0.000E+00  4.74595E+01  1.527E-01  2.000E+01  2.000E+04 -1.863E-01
   1   15    4     1     4    1.1127E+05 -3.5263E+03   1.1480E+05  0.000E+00  0.000E+00  0.000E+00  4.69852E+01  1.557E-01  2.000E+01  2.000E+04 -1.763E-01
   1   16    5     1     5    1.1480E+05 -3.5414E+03   1.1834E+05  0.000E+00  0.000E+00  0.000E+00  4.65109E+01  1.586E-01  2.000E+01  2.000E+04 -1.771E-01
   1   16    6     1     6    1.1834E+05 -2.7281E+03   1.2107E+05  0.000E+00  0.000E+00  0.000E+00  4.60361E+01  1.611E-01  2.000E+01  2.000E+04 -1.364E-01
   1   16    7     1     7    1.2107E+05 -2.6587E+03   1.2373E+05  0.000E+00  0.000E+00  0.000E+00  4.55610E+01  1.633E-01  2.000E+01  2.000E+04 -1.329E-01
   1   16    8     1     8    1.2373E+05 -2.5150E+03   1.2624E+05  0.000E+00  0.000E+00  0.000E+00  4.50858E+01  1.654E-01  2.000E+01  2.000E+04 -1.257E-01
   1   16    9     1     9    1.2624E+05 -2.2895E+03   1.2853E+05  0.000E+00  0.000E+00  0.000E+00  4.46104E+01  1.673E-01  2.000E+01  2.000E+04 -1.145E-01
   1   16   10     1    10    1.2853E+05 -1.9847E+03   1.3052E+05  0.000E+00  0.000E+00  0.000E+00  4.41348E+01  1.689E-01  2.000E+01  2.000E+04 -9.924E-02
   1   16   11     1    11    1.3052E+05 -1.5859E+03   1.3210E+05  0.000E+00  0.000E+00  0.000E+00  4.36590E+01  1.703E-01  2.000E+01  2.000E+04 -7.930E-02
   1   16   12     1    12    1.3210E+05 -1.0492E+03   1.3315E+05  0.000E+00  0.000E+00  0.000E+00  4.31827E+01  1.714E-01  2.000E+01  2.000E+04 -5.246E-02
   1   15   13     1    13    1.3315E+05 -1.8330E+03   1.3498E+05  0.000E+00  0.000E+00  0.000E+00  4.27066E+01  1.725E-01  2.000E+01  2.000E+04 -9.165E-02
   1   14   14     1    14    1.3498E+05 -2.5147E+03   1.3750E+05  0.000E+00  0.000E+00  0.000E+00  4.22310E+01  1.741E-01  2.000E+01  2.000E+04 -1.257E-01
   1   13   15     1    15    1.3750E+05 -3.3395E+03   1.4084E+05  0.000E+00  0.000E+00  0.000E+00  4.17559E+01  1.764E-01  2.000E+01  2.000E+04 -1.670E-01
   1   12   16     1    16    1.4084E+05 -5.1088E+03   1.4595E+05  0.000E+00  0.000E+00  0.000E+00  4.12818E+01  1.796E-01  2.000E+01  2.000E+04 -2.554E-01
   1   12   17     1    17    1.4595E+05 -3.1444E+03   1.4909E+05  0.000E+00  0.000E+00  0.000E+00  4.08077E+01  1.827E-01  2.000E+01  2.000E+04 -1.572E-01
   1   12   18     1    18    1.4909E+05 -3.0293E+03   1.5212E+05  0.000E+00  0.000E+00  0.000E+00  4.03327E+01  1.849E-01  2.000E+01  2.000E+04 -1.515E-01
   1   12   19     1    19    1.5212E+05 -4.2194E+03   1.5634E+05  0.000E+00  0.000E+00  0.000E+00  3.98581E+01  1.876E-01  2.000E+01  2.000E+04 -2.110E-01
   1   13   20     1    20    1.5634E+05 -2.2320E+03   1.5857E+05  0.000E+00  0.000E+00  0.000E+00  3.93831E+01  1.899E-01  2.000E+01  2.000E+04 -1.116E-01
   1   14   21     1    21    1.5857E+05 -1.1013E+03   1.5967E+05  0.000E+00  0.000E+00  0.000E+00  3.89071E+01  1.911E-01  2.000E+01  2.000E+04 -5.507E-02
   1   14   22     1    22    1.5967E+05  5.0892E+03   1.5458E+05  0.000E+00  0.000E+00  0.000E+00  3.84283E+01  1.897E-01  2.000E+01  2.000E+04  2.545E-01
   1    9   30     2     1    5.0000E+04 -2.7811E+03   5.2781E+04  0.000E+00  0.000E+00  0.000E+00  4.02428E+01  1.178E-01  2.000E+01  2.000E+04 -1.391E-01
   1    9   29     2     2    5.2781E+04 -3.1129E+03   5.5894E+04  0.000E+00  0.000E+00  0.000E+00  3.99968E+01  1.218E-01  2.000E+01  2.000E+04 -1.556E-01
   1    9   28     2     3    5.5894E+04 -3.4933E+03   5.9387E+04  0.000E+00  0.000E+00  0.000E+00  3.97512E+01  1.262E-01  2.000E+01  2.000E+04 -1.747E-01
   1    9   27     2     4    5.9387E+04 -6.2200E+03   6.5607E+04  0.000E+00  0.000E+00  0.000E+00  3.95075E+01  1.325E-01  2.000E+01  2.000E+04 -3.110E-01
   1   10   26     2     5    6.5607E+04 -3.8527E+03   6.9460E+04  0.000E+00  0.000E+00  0.000E+00  3.92638E+01  1.388E-01  2.000E+01  2.000E+04 -1.926E-01
   1   11   25     2     6    6.9460E+04 -2.8085E+03   7.2269E+04  0.000E+00  0.000E+00  0.000E+00  3.90178E+01  1.428E-01  2.000E+01  2.000E+04 -1.404E-01
   1   12   24     2     7    7.2269E+04 -1.9624E+03   7.4231E+04  0.000E+00  0.000E+00  0.000E+00  3.87707E+01  1.457E-01  2.000E+01  2.000E+04 -9.812E-02
   1   13   23     2     8    7.4231E+04 -1.1356E+03   7.5367E+04  0.000E+00  0.000E+00  0.000E+00  3.85225E+01  1.475E-01  2.000E+01  2.000E+04 -5.678E-02
   1   14   22     2     9    7.5367E+04  1.9634E+03   7.3403E+04  0.000E+00  0.000E+00  0.000E+00  3.82720E+01  1.470E-01  2.000E+01  2.000E+04  9.817E-02
   1   14   22     3     1    2.2799E+05 -8.3870E+03   2.3637E+05  0.000E+00  0.000E+00  0.000E+00  3.77545E+01  1.990E-01  2.000E+01  2.000E+04 -4.194E-01
   1   15   23     3     2    2.3637E+05 -1.9893E+03   2.3836E+05  0.000E+00  0.000E+00  0.000E+00  3.68683E+01  2.016E-01  2.000E+01  2.000E+04 -9.946E-02
   1   15   24     3     3    2.3836E+05 -1.6721E+03   2.4004E+05  0.000E+00  0.000E+00  0.000E+00  3.59803E+01  2.026E-01  2.000E+01  2.000E+04 -8.360E-02
   1   15   25     3     4    2.4004E+05 -1.7094E+03   2.4175E+05  0.000E+00  0.000E+00  0.000E+00  3.50923E+01  2.034E-01  2.000E+01  2.000E+04 -8.547E-02
   1   15   26     3     5    2.4175E+05 -2.1938E+03   2.4394E+05  0.000E+00  0.000E+00  0.000E+00  3.42044E+01  2.044E-01  2.000E+01  2.000E+04 -1.097E-01
   1   16   27     3     6    2.4394E+05 -3.0046E+03   2.4694E+05  0.000E+00  0.000E+00  0.000E+00  3.33168E+01  2.057E-01  2.000E+01  2.000E+04 -1.502E-01
   1   17   28     3     7    2.4694E+05 -3.8453E+03   2.5079E+05  0.000E+00  0.000E+00  0.000E+00  3.24297E+01  2.074E-01  2.000E+01  2.000E+04 -1.923E-01
   1   18   29     3     8    2.5079E+05 -5.5404E+03   2.5633E+05  0.000E+00  0.000E+00  0.000E+00  3.15431E+01  2.098E-01  2.000E+01  2.000E+04 -2.770E-01
   1   18   30     3     9    2.5633E+05 -4.7346E+03   2.6106E+05  0.000E+00  0.000E+00  0.000E+00  3.06568E+01  2.123E-01  2.000E+01  2.000E+04 -2.367E-01



1
              HEAD IN LAYER   1 AT END OF TIME STEP   1 IN STRESS PERIOD    8
  ---------------------------------------------------------------------------

          1      2      3      4      5      6      7      8      9     10
         11     12     13     14     15     16     17     18     19     20
         21     22     23     24     25     26     27     28     29     30
 .........................................................................
   1  ****** ****** ****** ****** ****** ****** ****** ****** ****** ******
      ****** ****** ****** ****** ****** ****** ****** ****** ****** ******
      ****** ****** ****** ****** ****** ****** ****** ****** ****** ******
   2  ****** ****** ****** ****** ****** ****** ****** ****** ****** ******
      ****** ****** ****** ****** ****** ****** ****** ****** ****** ******
      ****** ****** ****** ****** ****** ****** ****** ****** ****** ******
   3  ****** ****** ****** ****** ****** ****** ****** ****** ****** ******
      ****** ****** ****** ****** ****** ****** ****** ****** ****** ******
      ****** ****** ****** ****** ****** ****** ****** ****** ****** ******
   4  ****** ****** ****** ****** ****** ****** ****** ****** ****** ******
      ****** ****** ****** ****** ****** ****** ****** ****** ****** ******
      ****** ****** ****** ****** ****** ****** ****** ****** ****** ******
   5  ****** ****** ****** ****** ****** ****** ****** ****** ****** ******
      ****** ****** ****** ****** ****** ****** ****** ****** ****** ******
      ****** ****** ****** ****** ****** ****** ****** ****** ****** ******
   6  ****** ****** ****** ****** ****** ****** ****** ****** ****** ******
      ****** ****** ****** ****** ****** ****** ****** ****** ****** ******
      ****** ****** ****** ****** ****** ****** ****** ****** ****** ******
   7  ****** ****** ****** ****** ****** ****** ****** ****** ****** ******
      ****** ****** ****** ****** ****** ****** ****** ****** ****** ******
      ****** ****** ****** ****** ****** ****** ****** ****** ****** ******
   8  ****** ****** ****** ****** ****** ****** ****** ****** ****** ******
      ****** ****** ****** ****** ****** ****** ****** ****** ****** ******
      ****** ****** ****** ****** ****** ****** ****** ****** ****** ******
   9  ****** ****** ****** ****** ****** ****** ****** ****** ****** ******
      ****** ****** ****** ****** ****** ****** ****** ****** ****** ******
      ****** ****** ****** ****** ****** ****** ****** ****** ****** ******
  10  ****** ****** ****** ****** ****** ****** ****** ****** ****** ******
      ****** ****** ****** ****** ****** ****** ****** ****** ****** ******
      ****** ****** ****** ****** ****** ****** ****** ****** ****** ******
  11  ****** ****** ****** ****** ****** ****** ****** ****** ****** ******
      ****** ****** ****** ****** ****** ****** ****** ****** ****** ******
      ****** ****** ****** ****** ****** ****** ****** ****** ****** ******
  12  ****** ****** ****** ****** ****** ****** ****** ****** ****** ******
      ****** ****** ****** ****** ****** ****** ****** ****** ****** ******
      ****** ****** ****** ****** ****** ****** ****** ****** ****** ******
  13  ****** ****** ****** ****** ****** ****** ****** ****** ****** ******
      ****** ****** ****** ****** ****** ****** ****** ****** ****** ******
      ****** ****** ****** ****** ****** ****** ****** ****** ****** ******
  14  ****** ****** ****** ****** ****** ****** ****** ****** ****** ******
      ****** ****** ****** ****** ****** ****** ****** ****** ****** ******
      ****** ****** ****** ****** ****** ****** ****** ****** ****** ******
  15  ****** ****** ****** ****** ****** ****** ****** ****** ****** ******
      ****** ****** ****** ****** ****** ****** ****** ****** ****** ******
      ****** ****** ****** ****** ****** ****** ****** ****** ****** ******
  16  ****** ****** ****** ****** ****** ****** ****** ****** ****** ******
      ****** ****** ****** ****** ****** ****** ****** ****** ****** ******
      ****** ****** ****** ****** ****** ****** ****** ****** ****** ******
  17  ****** ****** ****** ****** ****** ****** ****** ****** ****** ******
      ****** ****** ****** ****** ****** ****** ****** ****** ****** ******
      ****** ****** ****** ****** ****** ****** ****** ****** ****** ******
  18  ****** ****** ****** ****** ****** ****** ****** ****** ****** ******
      ****** ****** ****** ****** ****** ****** ****** ****** ****** ******
      ****** ****** ****** ****** ****** ****** ****** ****** ****** ******
  19  ****** ****** ****** ****** ****** ****** ****** ****** ****** ******
      ****** ****** ****** ****** ****** ****** ****** ****** ****** ******
      ****** ****** ****** ****** ****** ****** ****** ****** ****** ******
  20  ****** ****** ****** ****** ****** ****** ****** ****** ****** ******
      ****** ****** ****** ****** ****** ****** ****** ****** ****** ******
      ****** ****** ****** ****** ****** ****** ****** ****** ****** ******
  21  ****** ****** ****** ****** ****** ****** ****** ****** ****** ******
      ****** ****** ****** ****** ****** ****** ****** ****** ****** ******
      ****** ****** ****** ****** ****** ****** ****** ****** ****** ******
  22  ****** ****** ****** ****** ****** ****** ****** ****** ****** ******
      ****** ****** ****** ****** ****** ****** ****** ****** ****** ******
      ****** ****** ****** ****** ****** ****** ****** ****** ****** ******
  23  ****** ****** ****** ****** ****** ****** ****** ****** ****** ******
      ****** ****** ****** ****** ****** ****** ****** ****** ****** ******
      ****** ****** ****** ****** ****** ****** ****** ****** ****** ******
  24  ****** ****** ****** ****** ****** ****** ****** ****** ****** ******
      ****** ****** ****** ****** ****** ****** ****** ****** ****** ******
      ****** ****** ****** ****** ****** ****** ****** ****** ****** ******
  25  ****** ****** ****** ****** ****** ****** ****** ****** ****** ******
      ****** ****** ****** ****** ****** ****** ****** ****** ****** ******
      ****** ****** ****** ****** ****** ****** ****** ****** ****** ******

 HEAD WILL BE SAVED ON UNIT   51 AT END OF TIME STEP    1, STRESS PERIOD    8
1
  VOLUMETRIC BUDGET FOR ENTIRE MODEL AT END OF TIME STEP    1, STRESS PERIOD   8
  ------------------------------------------------------------------------------

     CUMULATIVE VOLUMES      L**3       RATES FOR THIS TIME STEP      L**3/T
     ------------------                 ------------------------

           IN:                                      IN:
           ---                                      ---
             STORAGE =    24899948.3994               STORAGE =           0.0000
       CONSTANT HEAD =   120689223.0486         CONSTANT HEAD =      175390.6178
               WELLS =           0.0000                 WELLS =           0.0000
            RECHARGE =    17608800.0000              RECHARGE =       27600.0000
      STREAM LEAKAGE =     4926486.2265        STREAM LEAKAGE =        7052.5437

            TOTAL IN =   168124457.6745              TOTAL IN =      210043.1615

          OUT:                                     OUT:
          ----                                     ----
             STORAGE =     1269185.2720               STORAGE =        3631.4821
       CONSTANT HEAD =           0.0000         CONSTANT HEAD =           0.0000
               WELLS =    64455160.4851                 WELLS =       88294.7404
            RECHARGE =           0.0000              RECHARGE =           0.0000
      STREAM LEAKAGE =   102400112.6523        STREAM LEAKAGE =      118116.9381

           TOTAL OUT =   168124458.4093             TOTAL OUT =      210043.1607

            IN - OUT =          -0.7348              IN - OUT =       8.5129E-04

 PERCENT DISCREPANCY =          -0.00     PERCENT DISCREPANCY =           0.00






         TIME SUMMARY AT END OF TIME STEP    1 IN STRESS PERIOD    8
                    SECONDS     MINUTES      HOURS       DAYS        YEARS
                    -----------------------------------------------------------
   TIME STEP LENGTH 7.86240E+06 1.31040E+05  2184.0      91.000     0.24914    
 STRESS PERIOD TIME 7.86240E+06 1.31040E+05  2184.0      91.000     0.24914    
         TOTAL TIME 6.30720E+07 1.05120E+06  17520.      730.00      1.9986    
1
1
                            STRESS PERIOD NO.    9, LENGTH =   92.00000    
                            -----------------------------------------------

                              NUMBER OF TIME STEPS =     1

                               MULTIPLIER FOR DELT =     1.500

                            INITIAL TIME STEP SIZE =   92.00000    

 WELL NO.  LAYER   ROW   COL   STRESS RATE         
 --------------------------------------------------
      1      1     21     15      -9504.    
      2      1     23     15     -0.2528E+05
      3      1     23     11     -0.3088E+05
      4      1     21     17     -0.2263E+05

      4 WELLS

                 RECHARGE =  5.000000E-04

 REUSING STREAM SEGMENT DATA FROM LAST STRESS PERIOD
 
 SOLVING FOR HEAD 


     6 CALLS TO PCG ROUTINE FOR TIME STEP   1 IN STRESS PERIOD    9
    22 TOTAL ITERATIONS

 OUTPUT CONTROL FOR STRESS PERIOD    9   TIME STEP    1
    SAVE BUDGET
    SAVE HEAD FOR ALL LAYERS
    PRINT HEAD FOR ALL LAYERS
 UBDSV2 SAVING "STREAMFLOW OUT  " ON UNIT  50 AT TIME STEP  1, STRESS PERIOD   9



 STREAM LISTING     PERIOD      9   STEP        1

 LAYER ROW COL. STREAM  RCH.  FLOW INTO     FLOW TO   FLOW OUT OF   OVRLND.     DIRECT     STREAM       STREAM     STREAM     STREAM   STREAMBED  STREAMBED
                SEG.NO.  NO.  STRM. RCH.    AQUIFER    STRM. RCH.    RUNOFF     PRECIP       ET          HEAD       DEPTH      WIDTH   CONDCTNC.   GRADIENT

   1   13    1     1     1    1.0000E+05 -2.6847E+03   1.0268E+05  0.000E+00  0.000E+00  0.000E+00  4.84072E+01  1.458E-01  2.000E+01  2.000E+04 -1.342E-01
   1   13    2     1     2    1.0268E+05 -4.5936E+03   1.0728E+05  0.000E+00  0.000E+00  0.000E+00  4.79330E+01  1.489E-01  2.000E+01  2.000E+04 -2.297E-01
   1   14    3     1     3    1.0728E+05 -3.5722E+03   1.1085E+05  0.000E+00  0.000E+00  0.000E+00  4.74592E+01  1.524E-01  2.000E+01  2.000E+04 -1.786E-01
   1   15    4     1     4    1.1085E+05 -3.3745E+03   1.1422E+05  0.000E+00  0.000E+00  0.000E+00  4.69848E+01  1.553E-01  2.000E+01  2.000E+04 -1.687E-01
   1   16    5     1     5    1.1422E+05 -3.4039E+03   1.1763E+05  0.000E+00  0.000E+00  0.000E+00  4.65103E+01  1.581E-01  2.000E+01  2.000E+04 -1.702E-01
   1   16    6     1     6    1.1763E+05 -2.6177E+03   1.2025E+05  0.000E+00  0.000E+00  0.000E+00  4.60355E+01  1.605E-01  2.000E+01  2.000E+04 -1.309E-01
   1   16    7     1     7    1.2025E+05 -2.5464E+03   1.2279E+05  0.000E+00  0.000E+00  0.000E+00  4.55603E+01  1.626E-01  2.000E+01  2.000E+04 -1.273E-01
   1   16    8     1     8    1.2279E+05 -2.4017E+03   1.2519E+05  0.000E+00  0.000E+00  0.000E+00  4.50850E+01  1.646E-01  2.000E+01  2.000E+04 -1.201E-01
   1   16    9     1     9    1.2519E+05 -2.1762E+03   1.2737E+05  0.000E+00  0.000E+00  0.000E+00  4.46096E+01  1.664E-01  2.000E+01  2.000E+04 -1.088E-01
   1   16   10     1    10    1.2737E+05 -1.8725E+03   1.2924E+05  0.000E+00  0.000E+00  0.000E+00  4.41339E+01  1.680E-01  2.000E+01  2.000E+04 -9.363E-02
   1   16   11     1    11    1.2924E+05 -1.4755E+03   1.3072E+05  0.000E+00  0.000E+00  0.000E+00  4.36579E+01  1.693E-01  2.000E+01  2.000E+04 -7.377E-02
   1   16   12     1    12    1.3072E+05 -9.0966E+02   1.3163E+05  0.000E+00  0.000E+00  0.000E+00  4.31816E+01  1.702E-01  2.000E+01  2.000E+04 -4.548E-02
   1   15   13     1    13    1.3163E+05 -1.6789E+03   1.3331E+05  0.000E+00  0.000E+00  0.000E+00  4.27053E+01  1.712E-01  2.000E+01  2.000E+04 -8.394E-02
   1   14   14     1    14    1.3331E+05 -2.3573E+03   1.3566E+05  0.000E+00  0.000E+00  0.000E+00  4.22296E+01  1.728E-01  2.000E+01  2.000E+04 -1.179E-01
   1   13   15     1    15    1.3566E+05 -3.1842E+03   1.3885E+05  0.000E+00  0.000E+00  0.000E+00  4.17545E+01  1.749E-01  2.000E+01  2.000E+04 -1.592E-01
   1   12   16     1    16    1.3885E+05 -4.9611E+03   1.4381E+05  0.000E+00  0.000E+00  0.000E+00  4.12803E+01  1.780E-01  2.000E+01  2.000E+04 -2.481E-01
   1   12   17     1    17    1.4381E+05 -3.0339E+03   1.4684E+05  0.000E+00  0.000E+00  0.000E+00  4.08060E+01  1.810E-01  2.000E+01  2.000E+04 -1.517E-01
   1   12   18     1    18    1.4684E+05 -2.9209E+03   1.4976E+05  0.000E+00  0.000E+00  0.000E+00  4.03310E+01  1.832E-01  2.000E+01  2.000E+04 -1.460E-01
   1   12   19     1    19    1.4976E+05 -4.0879E+03   1.5385E+05  0.000E+00  0.000E+00  0.000E+00  3.98563E+01  1.858E-01  2.000E+01  2.000E+04 -2.044E-01
   1   13   20     1    20    1.5385E+05 -2.1023E+03   1.5596E+05  0.000E+00  0.000E+00  0.000E+00  3.93813E+01  1.881E-01  2.000E+01  2.000E+04 -1.051E-01
   1   14   21     1    21    1.5596E+05 -9.8350E+02   1.5694E+05  0.000E+00  0.000E+00  0.000E+00  3.89051E+01  1.892E-01  2.000E+01  2.000E+04 -4.918E-02
   1   14   22     1    22    1.5694E+05  5.1120E+03   1.5183E+05  0.000E+00  0.000E+00  0.000E+00  3.84263E+01  1.877E-01  2.000E+01  2.000E+04  2.556E-01
   1    9   30     2     1    5.0000E+04 -2.6816E+03   5.2682E+04  0.000E+00  0.000E+00  0.000E+00  4.02427E+01  1.177E-01  2.000E+01  2.000E+04 -1.341E-01
   1    9   29     2     2    5.2682E+04 -3.0141E+03   5.5696E+04  0.000E+00  0.000E+00  0.000E+00  3.99966E+01  1.216E-01  2.000E+01  2.000E+04 -1.507E-01
   1    9   28     2     3    5.5696E+04 -3.3950E+03   5.9091E+04  0.000E+00  0.000E+00  0.000E+00  3.97509E+01  1.259E-01  2.000E+01  2.000E+04 -1.697E-01
   1    9   27     2     4    5.9091E+04 -6.0907E+03   6.5181E+04  0.000E+00  0.000E+00  0.000E+00  3.95070E+01  1.320E-01  2.000E+01  2.000E+04 -3.045E-01
   1   10   26     2     5    6.5181E+04 -3.7168E+03   6.8898E+04  0.000E+00  0.000E+00  0.000E+00  3.92632E+01  1.382E-01  2.000E+01  2.000E+04 -1.858E-01
   1   11   25     2     6    6.8898E+04 -2.6771E+03   7.1575E+04  0.000E+00  0.000E+00  0.000E+00  3.90171E+01  1.421E-01  2.000E+01  2.000E+04 -1.339E-01
   1   12   24     2     7    7.1575E+04 -1.8443E+03   7.3420E+04  0.000E+00  0.000E+00  0.000E+00  3.87698E+01  1.448E-01  2.000E+01  2.000E+04 -9.222E-02
   1   13   23     2     8    7.3420E+04 -1.0413E+03   7.4461E+04  0.000E+00  0.000E+00  0.000E+00  3.85215E+01  1.465E-01  2.000E+01  2.000E+04 -5.207E-02
   1   14   22     2     9    7.4461E+04  2.0041E+03   7.2457E+04  0.000E+00  0.000E+00  0.000E+00  3.82709E+01  1.459E-01  2.000E+01  2.000E+04  1.002E-01
   1   14   22     3     1    2.2428E+05 -8.3627E+03   2.3265E+05  0.000E+00  0.000E+00  0.000E+00  3.77526E+01  1.971E-01  2.000E+01  2.000E+04 -4.181E-01
   1   15   23     3     2    2.3265E+05 -1.8794E+03   2.3453E+05  0.000E+00  0.000E+00  0.000E+00  3.68664E+01  1.997E-01  2.000E+01  2.000E+04 -9.397E-02
   1   15   24     3     3    2.3453E+05 -1.5903E+03   2.3612E+05  0.000E+00  0.000E+00  0.000E+00  3.59784E+01  2.006E-01  2.000E+01  2.000E+04 -7.951E-02
   1   15   25     3     4    2.3612E+05 -1.6269E+03   2.3774E+05  0.000E+00  0.000E+00  0.000E+00  3.50903E+01  2.014E-01  2.000E+01  2.000E+04 -8.135E-02
   1   15   26     3     5    2.3774E+05 -2.0883E+03   2.3983E+05  0.000E+00  0.000E+00  0.000E+00  3.42024E+01  2.024E-01  2.000E+01  2.000E+04 -1.044E-01
   1   16   27     3     6    2.3983E+05 -2.8744E+03   2.4271E+05  0.000E+00  0.000E+00  0.000E+00  3.33147E+01  2.036E-01  2.000E+01  2.000E+04 -1.437E-01
   1   17   28     3     7    2.4271E+05 -3.7130E+03   2.4642E+05  0.000E+00  0.000E+00  0.000E+00  3.24275E+01  2.053E-01  2.000E+01  2.000E+04 -1.856E-01
   1   18   29     3     8    2.4642E+05 -5.4174E+03   2.5184E+05  0.000E+00  0.000E+00  0.000E+00  3.15409E+01  2.076E-01  2.000E+01  2.000E+04 -2.709E-01
   1   18   30     3     9    2.5184E+05 -4.6404E+03   2.5648E+05  0.000E+00  0.000E+00  0.000E+00  3.06545E+01  2.101E-01  2.000E+01  2.000E+04 -2.320E-01



1
              HEAD IN LAYER   1 AT END OF TIME STEP   1 IN STRESS PERIOD    9
  ---------------------------------------------------------------------------

          1      2      3      4      5      6      7      8      9     10
         11     12     13     14     15     16     17     18     19     20
         21     22     23     24     25     26     27     28     29     30
 .........................................................................
   1  ****** ****** ****** ****** ****** ****** ****** ****** ****** ******
      ****** ****** ****** ****** ****** ****** ****** ****** ****** ******
      ****** ****** ****** ****** ****** ****** ****** ****** ****** ******
   2  ****** ****** ****** ****** ****** ****** ****** ****** ****** ******
      ****** ****** ****** ****** ****** ****** ****** ****** ****** ******
      ****** ****** ****** ****** ****** ****** ****** ****** ****** ******
   3  ****** ****** ****** ****** ****** ****** ****** ****** ****** ******
      ****** ****** ****** ****** ****** ****** ****** ****** ****** ******
      ****** ****** ****** ****** ****** ****** ****** ****** ****** ******
   4  ****** ****** ****** ****** ****** ****** ****** ****** ****** ******
      ****** ****** ****** ****** ****** ****** ****** ****** ****** ******
      ****** ****** ****** ****** ****** ****** ****** ****** ****** ******
   5  ****** ****** ****** ****** ****** ****** ****** ****** ****** ******
      ****** ****** ****** ****** ****** ****** ****** ****** ****** ******
      ****** ****** ****** ****** ****** ****** ****** ****** ****** ******
   6  ****** ****** ****** ****** ****** ****** ****** ****** ****** ******
      ****** ****** ****** ****** ****** ****** ****** ****** ****** ******
      ****** ****** ****** ****** ****** ****** ****** ****** ****** ******
   7  ****** ****** ****** ****** ****** ****** ****** ****** ****** ******
      ****** ****** ****** ****** ****** ****** ****** ****** ****** ******
      ****** ****** ****** ****** ****** ****** ****** ****** ****** ******
   8  ****** ****** ****** ****** ****** ****** ****** ****** ****** ******
      ****** ****** ****** ****** ****** ****** ****** ****** ****** ******
      ****** ****** ****** ****** ****** ****** ****** ****** ****** ******
   9  ****** ****** ****** ****** ****** ****** ****** ****** ****** ******
      ****** ****** ****** ****** ****** ****** ****** ****** ****** ******
      ****** ****** ****** ****** ****** ****** ****** ****** ****** ******
  10  ****** ****** ****** ****** ****** ****** ****** ****** ****** ******
      ****** ****** ****** ****** ****** ****** ****** ****** ****** ******
      ****** ****** ****** ****** ****** ****** ****** ****** ****** ******
  11  ****** ****** ****** ****** ****** ****** ****** ****** ****** ******
      ****** ****** ****** ****** ****** ****** ****** ****** ****** ******
      ****** ****** ****** ****** ****** ****** ****** ****** ****** ******
  12  ****** ****** ****** ****** ****** ****** ****** ****** ****** ******
      ****** ****** ****** ****** ****** ****** ****** ****** ****** ******
      ****** ****** ****** ****** ****** ****** ****** ****** ****** ******
  13  ****** ****** ****** ****** ****** ****** ****** ****** ****** ******
      ****** ****** ****** ****** ****** ****** ****** ****** ****** ******
      ****** ****** ****** ****** ****** ****** ****** ****** ****** ******
  14  ****** ****** ****** ****** ****** ****** ****** ****** ****** ******
      ****** ****** ****** ****** ****** ****** ****** ****** ****** ******
      ****** ****** ****** ****** ****** ****** ****** ****** ****** ******
  15  ****** ****** ****** ****** ****** ****** ****** ****** ****** ******
      ****** ****** ****** ****** ****** ****** ****** ****** ****** ******
      ****** ****** ****** ****** ****** ****** ****** ****** ****** ******
  16  ****** ****** ****** ****** ****** ****** ****** ****** ****** ******
      ****** ****** ****** ****** ****** ****** ****** ****** ****** ******
      ****** ****** ****** ****** ****** ****** ****** ****** ****** ******
  17  ****** ****** ****** ****** ****** ****** ****** ****** ****** ******
      ****** ****** ****** ****** ****** ****** ****** ****** ****** ******
      ****** ****** ****** ****** ****** ****** ****** ****** ****** ******
  18  ****** ****** ****** ****** ****** ****** ****** ****** ****** ******
      ****** ****** ****** ****** ****** ****** ****** ****** ****** ******
      ****** ****** ****** ****** ****** ****** ****** ****** ****** ******
  19  ****** ****** ****** ****** ****** ****** ****** ****** ****** ******
      ****** ****** ****** ****** ****** ****** ****** ****** ****** ******
      ****** ****** ****** ****** ****** ****** ****** ****** ****** ******
  20  ****** ****** ****** ****** ****** ****** ****** ****** ****** ******
      ****** ****** ****** ****** ****** ****** ****** ****** ****** ******
      ****** ****** ****** ****** ****** ****** ****** ****** ****** ******
  21  ****** ****** ****** ****** ****** ****** ****** ****** ****** ******
      ****** ****** ****** ****** ****** ****** ****** ****** ****** ******
      ****** ****** ****** ****** ****** ****** ****** ****** ****** ******
  22  ****** ****** ****** ****** ****** ****** ****** ****** ****** ******
      ****** ****** ****** ****** ****** ****** ****** ****** ****** ******
      ****** ****** ****** ****** ****** ****** ****** ****** ****** ******
  23  ****** ****** ****** ****** ****** ****** ****** ****** ****** ******
      ****** ****** ****** ****** ****** ****** ****** ****** ****** ******
      ****** ****** ****** ****** ****** ****** ****** ****** ****** ******
  24  ****** ****** ****** ****** ****** ****** ****** ****** ****** ******
      ****** ****** ****** ****** ****** ****** ****** ****** ****** ******
      ****** ****** ****** ****** ****** ****** ****** ****** ****** ******
  25  ****** ****** ****** ****** ****** ****** ****** ****** ****** ******
      ****** ****** ****** ****** ****** ****** ****** ****** ****** ******
      ****** ****** ****** ****** ****** ****** ****** ****** ****** ******

 HEAD WILL BE SAVED ON UNIT   51 AT END OF TIME STEP    1, STRESS PERIOD    9
1
  VOLUMETRIC BUDGET FOR ENTIRE MODEL AT END OF TIME STEP    1, STRESS PERIOD   9
  ------------------------------------------------------------------------------

     CUMULATIVE VOLUMES      L**3       RATES FOR THIS TIME STEP      L**3/T
     ------------------                 ------------------------

           IN:                                      IN:
           ---                                      ---
             STORAGE =    25146629.3193               STORAGE =        2681.3143
       CONSTANT HEAD =   137091869.7369         CONSTANT HEAD =      178289.6379
               WELLS =           0.0000                 WELLS =           0.0000
            RECHARGE =    18878400.0000              RECHARGE =       13800.0000
      STREAM LEAKAGE =     5581161.1645        STREAM LEAKAGE =        7116.0319

            TOTAL IN =   186698060.2207              TOTAL IN =      201886.9842

          OUT:                                     OUT:
          ----                                     ----
             STORAGE =     1269185.2720               STORAGE =           0.0000
       CONSTANT HEAD =           0.0000         CONSTANT HEAD =           0.0000
               WELLS =    72578276.6010                 WELLS =       88294.7404
            RECHARGE =           0.0000              RECHARGE =           0.0000
      STREAM LEAKAGE =   112850599.3713        STREAM LEAKAGE =      113592.2469

           TOTAL OUT =   186698061.2442             TOTAL OUT =      201886.9873

            IN - OUT =          -1.0235              IN - OUT =      -3.1376E-03

 PERCENT DISCREPANCY =          -0.00     PERCENT DISCREPANCY =          -0.00






         TIME SUMMARY AT END OF TIME STEP    1 IN STRESS PERIOD    9
                    SECONDS     MINUTES      HOURS       DAYS        YEARS
                    -----------------------------------------------------------
   TIME STEP LENGTH 7.94880E+06 1.32480E+05  2208.0      92.000     0.25188    
 STRESS PERIOD TIME 7.94880E+06 1.32480E+05  2208.0      92.000     0.25188    
         TOTAL TIME 7.10208E+07 1.18368E+06  19728.      822.00      2.2505    
1
1
                            STRESS PERIOD NO.   10, LENGTH =   91.00000    
                            -----------------------------------------------

                              NUMBER OF TIME STEPS =     1

                               MULTIPLIER FOR DELT =     1.500

                            INITIAL TIME STEP SIZE =   91.00000    

 WELL NO.  LAYER   ROW   COL   STRESS RATE         
 --------------------------------------------------
      1      1     21     15      -9504.    
      2      1     23     15     -0.2528E+05
      3      1     23     11     -0.3088E+05
      4      1     21     17     -0.2263E+05

      4 WELLS

                 RECHARGE =  2.000000E-03

 REUSING STREAM SEGMENT DATA FROM LAST STRESS PERIOD
 
 SOLVING FOR HEAD 


     7 CALLS TO PCG ROUTINE FOR TIME STEP   1 IN STRESS PERIOD   10
    26 TOTAL ITERATIONS

 OUTPUT CONTROL FOR STRESS PERIOD   10   TIME STEP    1
    SAVE BUDGET
    SAVE HEAD FOR ALL LAYERS
    PRINT HEAD FOR ALL LAYERS
 UBDSV2 SAVING "STREAMFLOW OUT  " ON UNIT  50 AT TIME STEP  1, STRESS PERIOD  10



 STREAM LISTING     PERIOD     10   STEP        1

 LAYER ROW COL. STREAM  RCH.  FLOW INTO     FLOW TO   FLOW OUT OF   OVRLND.     DIRECT     STREAM       STREAM     STREAM     STREAM   STREAMBED  STREAMBED
                SEG.NO.  NO.  STRM. RCH.    AQUIFER    STRM. RCH.    RUNOFF     PRECIP       ET          HEAD       DEPTH      WIDTH   CONDCTNC.   GRADIENT

   1   13    1     1     1    1.0000E+05 -3.1078E+03   1.0311E+05  0.000E+00  0.000E+00  0.000E+00  4.84074E+01  1.460E-01  2.000E+01  2.000E+04 -1.554E-01
   1   13    2     1     2    1.0311E+05 -5.1558E+03   1.0826E+05  0.000E+00  0.000E+00  0.000E+00  4.79336E+01  1.495E-01  2.000E+01  2.000E+04 -2.578E-01
   1   14    3     1     3    1.0826E+05 -4.1390E+03   1.1240E+05  0.000E+00  0.000E+00  0.000E+00  4.74603E+01  1.534E-01  2.000E+01  2.000E+04 -2.069E-01
   1   15    4     1     4    1.1240E+05 -3.9342E+03   1.1634E+05  0.000E+00  0.000E+00  0.000E+00  4.69863E+01  1.568E-01  2.000E+01  2.000E+04 -1.967E-01
   1   16    5     1     5    1.1634E+05 -3.9190E+03   1.2026E+05  0.000E+00  0.000E+00  0.000E+00  4.65123E+01  1.600E-01  2.000E+01  2.000E+04 -1.959E-01
   1   16    6     1     6    1.2026E+05 -3.0251E+03   1.2328E+05  0.000E+00  0.000E+00  0.000E+00  4.60378E+01  1.628E-01  2.000E+01  2.000E+04 -1.513E-01
   1   16    7     1     7    1.2328E+05 -2.9606E+03   1.2624E+05  0.000E+00  0.000E+00  0.000E+00  4.55629E+01  1.652E-01  2.000E+01  2.000E+04 -1.480E-01
   1   16    8     1     8    1.2624E+05 -2.8197E+03   1.2906E+05  0.000E+00  0.000E+00  0.000E+00  4.50879E+01  1.675E-01  2.000E+01  2.000E+04 -1.410E-01
   1   16    9     1     9    1.2906E+05 -2.5942E+03   1.3166E+05  0.000E+00  0.000E+00  0.000E+00  4.46128E+01  1.696E-01  2.000E+01  2.000E+04 -1.297E-01
   1   16   10     1    10    1.3166E+05 -2.2866E+03   1.3394E+05  0.000E+00  0.000E+00  0.000E+00  4.41374E+01  1.715E-01  2.000E+01  2.000E+04 -1.143E-01
   1   16   11     1    11    1.3394E+05 -1.8836E+03   1.3583E+05  0.000E+00  0.000E+00  0.000E+00  4.36617E+01  1.731E-01  2.000E+01  2.000E+04 -9.418E-02
   1   16   12     1    12    1.3583E+05 -1.4343E+03   1.3726E+05  0.000E+00  0.000E+00  0.000E+00  4.31857E+01  1.744E-01  2.000E+01  2.000E+04 -7.172E-02
   1   15   13     1    13    1.3726E+05 -2.2509E+03   1.3951E+05  0.000E+00  0.000E+00  0.000E+00  4.27099E+01  1.758E-01  2.000E+01  2.000E+04 -1.125E-01
   1   14   14     1    14    1.3951E+05 -2.9407E+03   1.4245E+05  0.000E+00  0.000E+00  0.000E+00  4.22346E+01  1.778E-01  2.000E+01  2.000E+04 -1.470E-01
   1   13   15     1    15    1.4245E+05 -3.7588E+03   1.4621E+05  0.000E+00  0.000E+00  0.000E+00  4.17598E+01  1.803E-01  2.000E+01  2.000E+04 -1.879E-01
   1   12   16     1    16    1.4621E+05 -5.5134E+03   1.5172E+05  0.000E+00  0.000E+00  0.000E+00  4.12860E+01  1.837E-01  2.000E+01  2.000E+04 -2.757E-01
   1   12   17     1    17    1.5172E+05 -3.4423E+03   1.5517E+05  0.000E+00  0.000E+00  0.000E+00  4.08120E+01  1.870E-01  2.000E+01  2.000E+04 -1.721E-01
   1   12   18     1    18    1.5517E+05 -3.3214E+03   1.5849E+05  0.000E+00  0.000E+00  0.000E+00  4.03372E+01  1.895E-01  2.000E+01  2.000E+04 -1.661E-01
   1   12   19     1    19    1.5849E+05 -4.5755E+03   1.6306E+05  0.000E+00  0.000E+00  0.000E+00  3.98628E+01  1.923E-01  2.000E+01  2.000E+04 -2.288E-01
   1   13   20     1    20    1.6306E+05 -2.5751E+03   1.6564E+05  0.000E+00  0.000E+00  0.000E+00  3.93881E+01  1.949E-01  2.000E+01  2.000E+04 -1.288E-01
   1   14   21     1    21    1.6564E+05 -1.4188E+03   1.6706E+05  0.000E+00  0.000E+00  0.000E+00  3.89122E+01  1.963E-01  2.000E+01  2.000E+04 -7.094E-02
   1   14   22     1    22    1.6706E+05  5.0331E+03   1.6202E+05  0.000E+00  0.000E+00  0.000E+00  3.84337E+01  1.950E-01  2.000E+01  2.000E+04  2.517E-01
   1    9   30     2     1    5.0000E+04 -3.0429E+03   5.3043E+04  0.000E+00  0.000E+00  0.000E+00  4.02430E+01  1.180E-01  2.000E+01  2.000E+04 -1.521E-01
   1    9   29     2     2    5.3043E+04 -3.3727E+03   5.6416E+04  0.000E+00  0.000E+00  0.000E+00  3.99973E+01  1.223E-01  2.000E+01  2.000E+04 -1.686E-01
   1    9   28     2     3    5.6416E+04 -3.7521E+03   6.0168E+04  0.000E+00  0.000E+00  0.000E+00  3.97520E+01  1.270E-01  2.000E+01  2.000E+04 -1.876E-01
   1    9   27     2     4    6.0168E+04 -6.5703E+03   6.6738E+04  0.000E+00  0.000E+00  0.000E+00  3.95087E+01  1.337E-01  2.000E+01  2.000E+04 -3.285E-01
   1   10   26     2     5    6.6738E+04 -4.2121E+03   7.0950E+04  0.000E+00  0.000E+00  0.000E+00  3.92654E+01  1.404E-01  2.000E+01  2.000E+04 -2.106E-01
   1   11   25     2     6    7.0950E+04 -3.1511E+03   7.4101E+04  0.000E+00  0.000E+00  0.000E+00  3.90198E+01  1.448E-01  2.000E+01  2.000E+04 -1.576E-01
   1   12   24     2     7    7.4101E+04 -2.2631E+03   7.6364E+04  0.000E+00  0.000E+00  0.000E+00  3.87731E+01  1.481E-01  2.000E+01  2.000E+04 -1.132E-01
   1   13   23     2     8    7.6364E+04 -1.3677E+03   7.7732E+04  0.000E+00  0.000E+00  0.000E+00  3.85252E+01  1.502E-01  2.000E+01  2.000E+04 -6.838E-02
   1   14   22     2     9    7.7732E+04  1.8578E+03   7.5874E+04  0.000E+00  0.000E+00  0.000E+00  3.82749E+01  1.499E-01  2.000E+01  2.000E+04  9.289E-02
   1   14   22     3     1    2.3790E+05 -8.4482E+03   2.4635E+05  0.000E+00  0.000E+00  0.000E+00  3.77596E+01  2.040E-01  2.000E+01  2.000E+04 -4.224E-01
   1   15   23     3     2    2.4635E+05 -2.2856E+03   2.4863E+05  0.000E+00  0.000E+00  0.000E+00  3.68734E+01  2.067E-01  2.000E+01  2.000E+04 -1.143E-01
   1   15   24     3     3    2.4863E+05 -1.8824E+03   2.5051E+05  0.000E+00  0.000E+00  0.000E+00  3.59856E+01  2.078E-01  2.000E+01  2.000E+04 -9.412E-02
   1   15   25     3     4    2.5051E+05 -1.9188E+03   2.5243E+05  0.000E+00  0.000E+00  0.000E+00  3.50976E+01  2.087E-01  2.000E+01  2.000E+04 -9.594E-02
   1   15   26     3     5    2.5243E+05 -2.4629E+03   2.5490E+05  0.000E+00  0.000E+00  0.000E+00  3.42098E+01  2.098E-01  2.000E+01  2.000E+04 -1.231E-01
   1   16   27     3     6    2.5490E+05 -3.3460E+03   2.5824E+05  0.000E+00  0.000E+00  0.000E+00  3.33224E+01  2.113E-01  2.000E+01  2.000E+04 -1.673E-01
   1   17   28     3     7    2.5824E+05 -4.1948E+03   2.6244E+05  0.000E+00  0.000E+00  0.000E+00  3.24353E+01  2.131E-01  2.000E+01  2.000E+04 -2.097E-01
   1   18   29     3     8    2.6244E+05 -5.8703E+03   2.6831E+05  0.000E+00  0.000E+00  0.000E+00  3.15489E+01  2.156E-01  2.000E+01  2.000E+04 -2.935E-01
   1   18   30     3     9    2.6831E+05 -4.9808E+03   2.7329E+05  0.000E+00  0.000E+00  0.000E+00  3.06627E+01  2.182E-01  2.000E+01  2.000E+04 -2.490E-01



1
              HEAD IN LAYER   1 AT END OF TIME STEP   1 IN STRESS PERIOD   10
  ---------------------------------------------------------------------------

          1      2      3      4      5      6      7      8      9     10
         11     12     13     14     15     16     17     18     19     20
         21     22     23     24     25     26     27     28     29     30
 .........................................................................
   1  ****** ****** ****** ****** ****** ****** ****** ****** ****** ******
      ****** ****** ****** ****** ****** ****** ****** ****** ****** ******
      ****** ****** ****** ****** ****** ****** ****** ****** ****** ******
   2  ****** ****** ****** ****** ****** ****** ****** ****** ****** ******
      ****** ****** ****** ****** ****** ****** ****** ****** ****** ******
      ****** ****** ****** ****** ****** ****** ****** ****** ****** ******
   3  ****** ****** ****** ****** ****** ****** ****** ****** ****** ******
      ****** ****** ****** ****** ****** ****** ****** ****** ****** ******
      ****** ****** ****** ****** ****** ****** ****** ****** ****** ******
   4  ****** ****** ****** ****** ****** ****** ****** ****** ****** ******
      ****** ****** ****** ****** ****** ****** ****** ****** ****** ******
      ****** ****** ****** ****** ****** ****** ****** ****** ****** ******
   5  ****** ****** ****** ****** ****** ****** ****** ****** ****** ******
      ****** ****** ****** ****** ****** ****** ****** ****** ****** ******
      ****** ****** ****** ****** ****** ****** ****** ****** ****** ******
   6  ****** ****** ****** ****** ****** ****** ****** ****** ****** ******
      ****** ****** ****** ****** ****** ****** ****** ****** ****** ******
      ****** ****** ****** ****** ****** ****** ****** ****** ****** ******
   7  ****** ****** ****** ****** ****** ****** ****** ****** ****** ******
      ****** ****** ****** ****** ****** ****** ****** ****** ****** ******
      ****** ****** ****** ****** ****** ****** ****** ****** ****** ******
   8  ****** ****** ****** ****** ****** ****** ****** ****** ****** ******
      ****** ****** ****** ****** ****** ****** ****** ****** ****** ******
      ****** ****** ****** ****** ****** ****** ****** ****** ****** ******
   9  ****** ****** ****** ****** ****** ****** ****** ****** ****** ******
      ****** ****** ****** ****** ****** ****** ****** ****** ****** ******
      ****** ****** ****** ****** ****** ****** ****** ****** ****** ******
  10  ****** ****** ****** ****** ****** ****** ****** ****** ****** ******
      ****** ****** ****** ****** ****** ****** ****** ****** ****** ******
      ****** ****** ****** ****** ****** ****** ****** ****** ****** ******
  11  ****** ****** ****** ****** ****** ****** ****** ****** ****** ******
      ****** ****** ****** ****** ****** ****** ****** ****** ****** ******
      ****** ****** ****** ****** ****** ****** ****** ****** ****** ******
  12  ****** ****** ****** ****** ****** ****** ****** ****** ****** ******
      ****** ****** ****** ****** ****** ****** ****** ****** ****** ******
      ****** ****** ****** ****** ****** ****** ****** ****** ****** ******
  13  ****** ****** ****** ****** ****** ****** ****** ****** ****** ******
      ****** ****** ****** ****** ****** ****** ****** ****** ****** ******
      ****** ****** ****** ****** ****** ****** ****** ****** ****** ******
  14  ****** ****** ****** ****** ****** ****** ****** ****** ****** ******
      ****** ****** ****** ****** ****** ****** ****** ****** ****** ******
      ****** ****** ****** ****** ****** ****** ****** ****** ****** ******
  15  ****** ****** ****** ****** ****** ****** ****** ****** ****** ******
      ****** ****** ****** ****** ****** ****** ****** ****** ****** ******
      ****** ****** ****** ****** ****** ****** ****** ****** ****** ******
  16  ****** ****** ****** ****** ****** ****** ****** ****** ****** ******
      ****** ****** ****** ****** ****** ****** ****** ****** ****** ******
      ****** ****** ****** ****** ****** ****** ****** ****** ****** ******
  17  ****** ****** ****** ****** ****** ****** ****** ****** ****** ******
      ****** ****** ****** ****** ****** ****** ****** ****** ****** ******
      ****** ****** ****** ****** ****** ****** ****** ****** ****** ******
  18  ****** ****** ****** ****** ****** ****** ****** ****** ****** ******
      ****** ****** ****** ****** ****** ****** ****** ****** ****** ******
      ****** ****** ****** ****** ****** ****** ****** ****** ****** ******
  19  ****** ****** ****** ****** ****** ****** ****** ****** ****** ******
      ****** ****** ****** ****** ****** ****** ****** ****** ****** ******
      ****** ****** ****** ****** ****** ****** ****** ****** ****** ******
  20  ****** ****** ****** ****** ****** ****** ****** ****** ****** ******
      ****** ****** ****** ****** ****** ****** ****** ****** ****** ******
      ****** ****** ****** ****** ****** ****** ****** ****** ****** ******
  21  ****** ****** ****** ****** ****** ****** ****** ****** ****** ******
      ****** ****** ****** ****** ****** ****** ****** ****** ****** ******
      ****** ****** ****** ****** ****** ****** ****** ****** ****** ******
  22  ****** ****** ****** ****** ****** ****** ****** ****** ****** ******
      ****** ****** ****** ****** ****** ****** ****** ****** ****** ******
      ****** ****** ****** ****** ****** ****** ****** ****** ****** ******
  23  ****** ****** ****** ****** ****** ****** ****** ****** ****** ******
      ****** ****** ****** ****** ****** ****** ****** ****** ****** ******
      ****** ****** ****** ****** ****** ****** ****** ****** ****** ******
  24  ****** ****** ****** ****** ****** ****** ****** ****** ****** ******
      ****** ****** ****** ****** ****** ****** ****** ****** ****** ******
      ****** ****** ****** ****** ****** ****** ****** ****** ****** ******
  25  ****** ****** ****** ****** ****** ****** ****** ****** ****** ******
      ****** ****** ****** ****** ****** ****** ****** ****** ****** ******
      ****** ****** ****** ****** ****** ****** ****** ****** ****** ******

 HEAD WILL BE SAVED ON UNIT   51 AT END OF TIME STEP    1, STRESS PERIOD   10
1
  VOLUMETRIC BUDGET FOR ENTIRE MODEL AT END OF TIME STEP    1, STRESS PERIOD  10
  ------------------------------------------------------------------------------

     CUMULATIVE VOLUMES      L**3       RATES FOR THIS TIME STEP      L**3/T
     ------------------                 ------------------------

           IN:                                      IN:
           ---                                      ---
             STORAGE =    25146629.3193               STORAGE =           0.0000
       CONSTANT HEAD =   152301693.6307         CONSTANT HEAD =      167140.9219
               WELLS =           0.0000                 WELLS =           0.0000
            RECHARGE =    23901600.0000              RECHARGE =       55200.0000
      STREAM LEAKAGE =     6208232.8965        STREAM LEAKAGE =        6890.8982

            TOTAL IN =   207558155.8466              TOTAL IN =      229231.8201

          OUT:                                     OUT:
          ----                                     ----
             STORAGE =     2248216.8223               STORAGE =       10758.5885
       CONSTANT HEAD =           0.0000         CONSTANT HEAD =           0.0000
               WELLS =    80613097.9765                 WELLS =       88294.7404
            RECHARGE =           0.0000              RECHARGE =           0.0000
      STREAM LEAKAGE =   124696841.9092        STREAM LEAKAGE =      130178.4894

           TOTAL OUT =   207558156.7080             TOTAL OUT =      229231.8183

            IN - OUT =          -0.8614              IN - OUT =       1.7811E-03

 PERCENT DISCREPANCY =          -0.00     PERCENT DISCREPANCY =           0.00






         TIME SUMMARY AT END OF TIME STEP    1 IN STRESS PERIOD   10
                    SECONDS     MINUTES      HOURS       DAYS        YEARS
                    -----------------------------------------------------------
   TIME STEP LENGTH 7.86240E+06 1.31040E+05  2184.0      91.000     0.24914    
 STRESS PERIOD TIME 7.86240E+06 1.31040E+05  2184.0      91.000     0.24914    
         TOTAL TIME 7.88832E+07 1.31472E+06  21912.      913.00      2.4997    
1
1
                            STRESS PERIOD NO.   11, LENGTH =   91.00000    
                            -----------------------------------------------

                              NUMBER OF TIME STEPS =     1

                               MULTIPLIER FOR DELT =     1.500

                            INITIAL TIME STEP SIZE =   91.00000    

 WELL NO.  LAYER   ROW   COL   STRESS RATE         
 --------------------------------------------------
      1      1     21     15      -9504.    
      2      1     23     15     -0.2528E+05
      3      1     23     11     -0.3088E+05
      4      1     21     17     -0.2263E+05

      4 WELLS

                 RECHARGE =   0.00000    

 REUSING STREAM SEGMENT DATA FROM LAST STRESS PERIOD
 
 SOLVING FOR HEAD 


     7 CALLS TO PCG ROUTINE FOR TIME STEP   1 IN STRESS PERIOD   11
    26 TOTAL ITERATIONS

 OUTPUT CONTROL FOR STRESS PERIOD   11   TIME STEP    1
    SAVE BUDGET
    SAVE HEAD FOR ALL LAYERS
    PRINT HEAD FOR ALL LAYERS
 UBDSV2 SAVING "STREAMFLOW OUT  " ON UNIT  50 AT TIME STEP  1, STRESS PERIOD  11



 STREAM LISTING     PERIOD     11   STEP        1

 LAYER ROW COL. STREAM  RCH.  FLOW INTO     FLOW TO   FLOW OUT OF   OVRLND.     DIRECT     STREAM       STREAM     STREAM     STREAM   STREAMBED  STREAMBED
                SEG.NO.  NO.  STRM. RCH.    AQUIFER    STRM. RCH.    RUNOFF     PRECIP       ET          HEAD       DEPTH      WIDTH   CONDCTNC.   GRADIENT

   1   13    1     1     1    1.0000E+05 -2.6236E+03   1.0262E+05  0.000E+00  0.000E+00  0.000E+00  4.84072E+01  1.458E-01  2.000E+01  2.000E+04 -1.312E-01
   1   13    2     1     2    1.0262E+05 -4.5228E+03   1.0715E+05  0.000E+00  0.000E+00  0.000E+00  4.79329E+01  1.489E-01  2.000E+01  2.000E+04 -2.261E-01
   1   14    3     1     3    1.0715E+05 -3.4841E+03   1.1063E+05  0.000E+00  0.000E+00  0.000E+00  4.74591E+01  1.522E-01  2.000E+01  2.000E+04 -1.742E-01
   1   15    4     1     4    1.1063E+05 -3.2826E+03   1.1391E+05  0.000E+00  0.000E+00  0.000E+00  4.69846E+01  1.551E-01  2.000E+01  2.000E+04 -1.641E-01
   1   16    5     1     5    1.1391E+05 -3.3174E+03   1.1723E+05  0.000E+00  0.000E+00  0.000E+00  4.65100E+01  1.578E-01  2.000E+01  2.000E+04 -1.659E-01
   1   16    6     1     6    1.1723E+05 -2.5493E+03   1.1978E+05  0.000E+00  0.000E+00  0.000E+00  4.60352E+01  1.602E-01  2.000E+01  2.000E+04 -1.275E-01
   1   16    7     1     7    1.1978E+05 -2.4779E+03   1.2226E+05  0.000E+00  0.000E+00  0.000E+00  4.55599E+01  1.622E-01  2.000E+01  2.000E+04 -1.239E-01
   1   16    8     1     8    1.2226E+05 -2.3330E+03   1.2459E+05  0.000E+00  0.000E+00  0.000E+00  4.50846E+01  1.641E-01  2.000E+01  2.000E+04 -1.166E-01
   1   16    9     1     9    1.2459E+05 -2.1076E+03   1.2670E+05  0.000E+00  0.000E+00  0.000E+00  4.46091E+01  1.659E-01  2.000E+01  2.000E+04 -1.054E-01
   1   16   10     1    10    1.2670E+05 -1.8041E+03   1.2850E+05  0.000E+00  0.000E+00  0.000E+00  4.41333E+01  1.674E-01  2.000E+01  2.000E+04 -9.020E-02
   1   16   11     1    11    1.2850E+05 -1.4074E+03   1.2991E+05  0.000E+00  0.000E+00  0.000E+00  4.36573E+01  1.687E-01  2.000E+01  2.000E+04 -7.037E-02
   1   16   12     1    12    1.2991E+05 -8.2474E+02   1.3073E+05  0.000E+00  0.000E+00  0.000E+00  4.31809E+01  1.696E-01  2.000E+01  2.000E+04 -4.124E-02
   1   15   13     1    13    1.3073E+05 -1.5872E+03   1.3232E+05  0.000E+00  0.000E+00  0.000E+00  4.27046E+01  1.705E-01  2.000E+01  2.000E+04 -7.936E-02
   1   14   14     1    14    1.3232E+05 -2.2659E+03   1.3459E+05  0.000E+00  0.000E+00  0.000E+00  4.22288E+01  1.720E-01  2.000E+01  2.000E+04 -1.133E-01
   1   13   15     1    15    1.3459E+05 -3.0960E+03   1.3768E+05  0.000E+00  0.000E+00  0.000E+00  4.17536E+01  1.741E-01  2.000E+01  2.000E+04 -1.548E-01
   1   12   16     1    16    1.3768E+05 -4.8860E+03   1.4257E+05  0.000E+00  0.000E+00  0.000E+00  4.12794E+01  1.771E-01  2.000E+01  2.000E+04 -2.443E-01
   1   12   17     1    17    1.4257E+05 -2.9689E+03   1.4554E+05  0.000E+00  0.000E+00  0.000E+00  4.08051E+01  1.801E-01  2.000E+01  2.000E+04 -1.484E-01
   1   12   18     1    18    1.4554E+05 -2.8546E+03   1.4839E+05  0.000E+00  0.000E+00  0.000E+00  4.03300E+01  1.822E-01  2.000E+01  2.000E+04 -1.427E-01
   1   12   19     1    19    1.4839E+05 -4.0064E+03   1.5240E+05  0.000E+00  0.000E+00  0.000E+00  3.98552E+01  1.848E-01  2.000E+01  2.000E+04 -2.003E-01
   1   13   20     1    20    1.5240E+05 -2.0121E+03   1.5441E+05  0.000E+00  0.000E+00  0.000E+00  3.93802E+01  1.870E-01  2.000E+01  2.000E+04 -1.006E-01
   1   14   21     1    21    1.5441E+05 -9.0364E+02   1.5532E+05  0.000E+00  0.000E+00  0.000E+00  3.89040E+01  1.881E-01  2.000E+01  2.000E+04 -4.518E-02
   1   14   22     1    22    1.5532E+05  5.1323E+03   1.5018E+05  0.000E+00  0.000E+00  0.000E+00  3.84252E+01  1.865E-01  2.000E+01  2.000E+04  2.566E-01
   1    9   30     2     1    5.0000E+04 -2.6015E+03   5.2601E+04  0.000E+00  0.000E+00  0.000E+00  4.02427E+01  1.177E-01  2.000E+01  2.000E+04 -1.301E-01
   1    9   29     2     2    5.2601E+04 -2.9350E+03   5.5536E+04  0.000E+00  0.000E+00  0.000E+00  3.99964E+01  1.214E-01  2.000E+01  2.000E+04 -1.468E-01
   1    9   28     2     3    5.5536E+04 -3.3179E+03   5.8854E+04  0.000E+00  0.000E+00  0.000E+00  3.97506E+01  1.256E-01  2.000E+01  2.000E+04 -1.659E-01
   1    9   27     2     4    5.8854E+04 -5.9986E+03   6.4853E+04  0.000E+00  0.000E+00  0.000E+00  3.95066E+01  1.316E-01  2.000E+01  2.000E+04 -2.999E-01
   1   10   26     2     5    6.4853E+04 -3.6145E+03   6.8467E+04  0.000E+00  0.000E+00  0.000E+00  3.92627E+01  1.377E-01  2.000E+01  2.000E+04 -1.807E-01
   1   11   25     2     6    6.8467E+04 -2.5767E+03   7.1044E+04  0.000E+00  0.000E+00  0.000E+00  3.90165E+01  1.415E-01  2.000E+01  2.000E+04 -1.288E-01
   1   12   24     2     7    7.1044E+04 -1.7519E+03   7.2796E+04  0.000E+00  0.000E+00  0.000E+00  3.87691E+01  1.441E-01  2.000E+01  2.000E+04 -8.759E-02
   1   13   23     2     8    7.2796E+04 -9.6470E+02   7.3761E+04  0.000E+00  0.000E+00  0.000E+00  3.85207E+01  1.457E-01  2.000E+01  2.000E+04 -4.824E-02
   1   14   22     2     9    7.3761E+04  2.0312E+03   7.1730E+04  0.000E+00  0.000E+00  0.000E+00  3.82701E+01  1.451E-01  2.000E+01  2.000E+04  1.016E-01
   1   14   22     3     1    2.2191E+05 -8.3432E+03   2.3026E+05  0.000E+00  0.000E+00  0.000E+00  3.77514E+01  1.958E-01  2.000E+01  2.000E+04 -4.172E-01
   1   15   23     3     2    2.3026E+05 -1.8040E+03   2.3206E+05  0.000E+00  0.000E+00  0.000E+00  3.68651E+01  1.984E-01  2.000E+01  2.000E+04 -9.020E-02
   1   15   24     3     3    2.3206E+05 -1.5273E+03   2.3359E+05  0.000E+00  0.000E+00  0.000E+00  3.59771E+01  1.993E-01  2.000E+01  2.000E+04 -7.636E-02
   1   15   25     3     4    2.3359E+05 -1.5600E+03   2.3515E+05  0.000E+00  0.000E+00  0.000E+00  3.50890E+01  2.001E-01  2.000E+01  2.000E+04 -7.800E-02
   1   15   26     3     5    2.3515E+05 -1.9986E+03   2.3715E+05  0.000E+00  0.000E+00  0.000E+00  3.42010E+01  2.010E-01  2.000E+01  2.000E+04 -9.993E-02
   1   16   27     3     6    2.3715E+05 -2.7698E+03   2.3992E+05  0.000E+00  0.000E+00  0.000E+00  3.33133E+01  2.022E-01  2.000E+01  2.000E+04 -1.385E-01
   1   17   28     3     7    2.3992E+05 -3.6080E+03   2.4352E+05  0.000E+00  0.000E+00  0.000E+00  3.24261E+01  2.038E-01  2.000E+01  2.000E+04 -1.804E-01
   1   18   29     3     8    2.4352E+05 -5.3234E+03   2.4885E+05  0.000E+00  0.000E+00  0.000E+00  3.15394E+01  2.061E-01  2.000E+01  2.000E+04 -2.662E-01
   1   18   30     3     9    2.4885E+05 -4.5637E+03   2.5341E+05  0.000E+00  0.000E+00  0.000E+00  3.06530E+01  2.086E-01  2.000E+01  2.000E+04 -2.282E-01



1
              HEAD IN LAYER   1 AT END OF TIME STEP   1 IN STRESS PERIOD   11
  ---------------------------------------------------------------------------

          1      2      3      4      5      6      7      8      9     10
         11     12     13     14     15     16     17     18     19     20
         21     22     23     24     25     26     27     28     29     30
 .........................................................................
   1  ****** ****** ****** ****** ****** ****** ****** ****** ****** ******
      ****** ****** ****** ****** ****** ****** ****** ****** ****** ******
      ****** ****** ****** ****** ****** ****** ****** ****** ****** ******
   2  ****** ****** ****** ****** ****** ****** ****** ****** ****** ******
      ****** ****** ****** ****** ****** ****** ****** ****** ****** ******
      ****** ****** ****** ****** ****** ****** ****** ****** ****** ******
   3  ****** ****** ****** ****** ****** ****** ****** ****** ****** ******
      ****** ****** ****** ****** ****** ****** ****** ****** ****** ******
      ****** ****** ****** ****** ****** ****** ****** ****** ****** ******
   4  ****** ****** ****** ****** ****** ****** ****** ****** ****** ******
      ****** ****** ****** ****** ****** ****** ****** ****** ****** ******
      ****** ****** ****** ****** ****** ****** ****** ****** ****** ******
   5  ****** ****** ****** ****** ****** ****** ****** ****** ****** ******
      ****** ****** ****** ****** ****** ****** ****** ****** ****** ******
      ****** ****** ****** ****** ****** ****** ****** ****** ****** ******
   6  ****** ****** ****** ****** ****** ****** ****** ****** ****** ******
      ****** ****** ****** ****** ****** ****** ****** ****** ****** ******
      ****** ****** ****** ****** ****** ****** ****** ****** ****** ******
   7  ****** ****** ****** ****** ****** ****** ****** ****** ****** ******
      ****** ****** ****** ****** ****** ****** ****** ****** ****** ******
      ****** ****** ****** ****** ****** ****** ****** ****** ****** ******
   8  ****** ****** ****** ****** ****** ****** ****** ****** ****** ******
      ****** ****** ****** ****** ****** ****** ****** ****** ****** ******
      ****** ****** ****** ****** ****** ****** ****** ****** ****** ******
   9  ****** ****** ****** ****** ****** ****** ****** ****** ****** ******
      ****** ****** ****** ****** ****** ****** ****** ****** ****** ******
      ****** ****** ****** ****** ****** ****** ****** ****** ****** ******
  10  ****** ****** ****** ****** ****** ****** ****** ****** ****** ******
      ****** ****** ****** ****** ****** ****** ****** ****** ****** ******
      ****** ****** ****** ****** ****** ****** ****** ****** ****** ******
  11  ****** ****** ****** ****** ****** ****** ****** ****** ****** ******
      ****** ****** ****** ****** ****** ****** ****** ****** ****** ******
      ****** ****** ****** ****** ****** ****** ****** ****** ****** ******
  12  ****** ****** ****** ****** ****** ****** ****** ****** ****** ******
      ****** ****** ****** ****** ****** ****** ****** ****** ****** ******
      ****** ****** ****** ****** ****** ****** ****** ****** ****** ******
  13  ****** ****** ****** ****** ****** ****** ****** ****** ****** ******
      ****** ****** ****** ****** ****** ****** ****** ****** ****** ******
      ****** ****** ****** ****** ****** ****** ****** ****** ****** ******
  14  ****** ****** ****** ****** ****** ****** ****** ****** ****** ******
      ****** ****** ****** ****** ****** ****** ****** ****** ****** ******
      ****** ****** ****** ****** ****** ****** ****** ****** ****** ******
  15  ****** ****** ****** ****** ****** ****** ****** ****** ****** ******
      ****** ****** ****** ****** ****** ****** ****** ****** ****** ******
      ****** ****** ****** ****** ****** ****** ****** ****** ****** ******
  16  ****** ****** ****** ****** ****** ****** ****** ****** ****** ******
      ****** ****** ****** ****** ****** ****** ****** ****** ****** ******
      ****** ****** ****** ****** ****** ****** ****** ****** ****** ******
  17  ****** ****** ****** ****** ****** ****** ****** ****** ****** ******
      ****** ****** ****** ****** ****** ****** ****** ****** ****** ******
      ****** ****** ****** ****** ****** ****** ****** ****** ****** ******
  18  ****** ****** ****** ****** ****** ****** ****** ****** ****** ******
      ****** ****** ****** ****** ****** ****** ****** ****** ****** ******
      ****** ****** ****** ****** ****** ****** ****** ****** ****** ******
  19  ****** ****** ****** ****** ****** ****** ****** ****** ****** ******
      ****** ****** ****** ****** ****** ****** ****** ****** ****** ******
      ****** ****** ****** ****** ****** ****** ****** ****** ****** ******
  20  ****** ****** ****** ****** ****** ****** ****** ****** ****** ******
      ****** ****** ****** ****** ****** ****** ****** ****** ****** ******
      ****** ****** ****** ****** ****** ****** ****** ****** ****** ******
  21  ****** ****** ****** ****** ****** ****** ****** ****** ****** ******
      ****** ****** ****** ****** ****** ****** ****** ****** ****** ******
      ****** ****** ****** ****** ****** ****** ****** ****** ****** ******
  22  ****** ****** ****** ****** ****** ****** ****** ****** ****** ******
      ****** ****** ****** ****** ****** ****** ****** ****** ****** ******
      ****** ****** ****** ****** ****** ****** ****** ****** ****** ******
  23  ****** ****** ****** ****** ****** ****** ****** ****** ****** ******
      ****** ****** ****** ****** ****** ****** ****** ****** ****** ******
      ****** ****** ****** ****** ****** ****** ****** ****** ****** ******
  24  ****** ****** ****** ****** ****** ****** ****** ****** ****** ******
      ****** ****** ****** ****** ****** ****** ****** ****** ****** ******
      ****** ****** ****** ****** ****** ****** ****** ****** ****** ******
  25  ****** ****** ****** ****** ****** ****** ****** ****** ****** ******
      ****** ****** ****** ****** ****** ****** ****** ****** ****** ******
      ****** ****** ****** ****** ****** ****** ****** ****** ****** ******

 HEAD WILL BE SAVED ON UNIT   51 AT END OF TIME STEP    1, STRESS PERIOD   11
1
  VOLUMETRIC BUDGET FOR ENTIRE MODEL AT END OF TIME STEP    1, STRESS PERIOD  11
  ------------------------------------------------------------------------------

     CUMULATIVE VOLUMES      L**3       RATES FOR THIS TIME STEP      L**3/T
     ------------------                 ------------------------

           IN:                                      IN:
           ---                                      ---
             STORAGE =    26224960.4324               STORAGE =       11849.7925
       CONSTANT HEAD =   168668523.5278         CONSTANT HEAD =      179855.2736
               WELLS =           0.0000                 WELLS =           0.0000
            RECHARGE =    23901600.0000              RECHARGE =           0.0000
      STREAM LEAKAGE =     6860103.5731        STREAM LEAKAGE =        7163.4140

            TOTAL IN =   225655187.5333              TOTAL IN =      198868.4801

          OUT:                                     OUT:
          ----                                     ----
             STORAGE =     2248216.8223               STORAGE =           0.0000
       CONSTANT HEAD =           0.0000         CONSTANT HEAD =           0.0000
               WELLS =    88647919.3520                 WELLS =       88294.7404
            RECHARGE =           0.0000              RECHARGE =           0.0000
      STREAM LEAKAGE =   134759052.4203        STREAM LEAKAGE =      110573.7419

           TOTAL OUT =   225655188.5946             TOTAL OUT =      198868.4823

            IN - OUT =          -1.0612              IN - OUT =      -2.1958E-03

 PERCENT DISCREPANCY =          -0.00     PERCENT DISCREPANCY =          -0.00






         TIME SUMMARY AT END OF TIME STEP    1 IN STRESS PERIOD   11
                    SECONDS     MINUTES      HOURS       DAYS        YEARS
                    -----------------------------------------------------------
   TIME STEP LENGTH 7.86240E+06 1.31040E+05  2184.0      91.000     0.24914    
 STRESS PERIOD TIME 7.86240E+06 1.31040E+05  2184.0      91.000     0.24914    
         TOTAL TIME 8.67456E+07 1.44576E+06  24096.      1004.0      2.7488    
1
1
                            STRESS PERIOD NO.   12, LENGTH =   91.00000    
                            -----------------------------------------------

                              NUMBER OF TIME STEPS =     1

                               MULTIPLIER FOR DELT =     1.500

                            INITIAL TIME STEP SIZE =   91.00000    

 WELL NO.  LAYER   ROW   COL   STRESS RATE         
 --------------------------------------------------
      1      1     21     15      -9504.    
      2      1     23     15     -0.2528E+05
      3      1     23     11     -0.3088E+05
      4      1     21     17     -0.2263E+05

      4 WELLS

                 RECHARGE =  1.000000E-03

 REUSING STREAM SEGMENT DATA FROM LAST STRESS PERIOD
 
 SOLVING FOR HEAD 


     6 CALLS TO PCG ROUTINE FOR TIME STEP   1 IN STRESS PERIOD   12
    23 TOTAL ITERATIONS

 OUTPUT CONTROL FOR STRESS PERIOD   12   TIME STEP    1
    SAVE BUDGET
    SAVE HEAD FOR ALL LAYERS
    PRINT HEAD FOR ALL LAYERS
 UBDSV2 SAVING "STREAMFLOW OUT  " ON UNIT  50 AT TIME STEP  1, STRESS PERIOD  12



 STREAM LISTING     PERIOD     12   STEP        1

 LAYER ROW COL. STREAM  RCH.  FLOW INTO     FLOW TO   FLOW OUT OF   OVRLND.     DIRECT     STREAM       STREAM     STREAM     STREAM   STREAMBED  STREAMBED
                SEG.NO.  NO.  STRM. RCH.    AQUIFER    STRM. RCH.    RUNOFF     PRECIP       ET          HEAD       DEPTH      WIDTH   CONDCTNC.   GRADIENT

   1   13    1     1     1    1.0000E+05 -2.7972E+03   1.0280E+05  0.000E+00  0.000E+00  0.000E+00  4.84072E+01  1.459E-01  2.000E+01  2.000E+04 -1.399E-01
   1   13    2     1     2    1.0280E+05 -4.7408E+03   1.0754E+05  0.000E+00  0.000E+00  0.000E+00  4.79332E+01  1.491E-01  2.000E+01  2.000E+04 -2.370E-01
   1   14    3     1     3    1.0754E+05 -3.7232E+03   1.1126E+05  0.000E+00  0.000E+00  0.000E+00  4.74595E+01  1.527E-01  2.000E+01  2.000E+04 -1.862E-01
   1   15    4     1     4    1.1126E+05 -3.5237E+03   1.1478E+05  0.000E+00  0.000E+00  0.000E+00  4.69852E+01  1.557E-01  2.000E+01  2.000E+04 -1.762E-01
   1   16    5     1     5    1.1478E+05 -3.5399E+03   1.1832E+05  0.000E+00  0.000E+00  0.000E+00  4.65109E+01  1.586E-01  2.000E+01  2.000E+04 -1.770E-01
   1   16    6     1     6    1.1832E+05 -2.7264E+03   1.2105E+05  0.000E+00  0.000E+00  0.000E+00  4.60361E+01  1.611E-01  2.000E+01  2.000E+04 -1.363E-01
   1   16    7     1     7    1.2105E+05 -2.6569E+03   1.2371E+05  0.000E+00  0.000E+00  0.000E+00  4.55610E+01  1.633E-01  2.000E+01  2.000E+04 -1.328E-01
   1   16    8     1     8    1.2371E+05 -2.5131E+03   1.2622E+05  0.000E+00  0.000E+00  0.000E+00  4.50858E+01  1.653E-01  2.000E+01  2.000E+04 -1.257E-01
   1   16    9     1     9    1.2622E+05 -2.2876E+03   1.2851E+05  0.000E+00  0.000E+00  0.000E+00  4.46104E+01  1.672E-01  2.000E+01  2.000E+04 -1.144E-01
   1   16   10     1    10    1.2851E+05 -1.9829E+03   1.3049E+05  0.000E+00  0.000E+00  0.000E+00  4.41348E+01  1.689E-01  2.000E+01  2.000E+04 -9.915E-02
   1   16   11     1    11    1.3049E+05 -1.5843E+03   1.3208E+05  0.000E+00  0.000E+00  0.000E+00  4.36590E+01  1.703E-01  2.000E+01  2.000E+04 -7.922E-02
   1   16   12     1    12    1.3208E+05 -1.0476E+03   1.3312E+05  0.000E+00  0.000E+00  0.000E+00  4.31827E+01  1.713E-01  2.000E+01  2.000E+04 -5.238E-02
   1   15   13     1    13    1.3312E+05 -1.8305E+03   1.3495E+05  0.000E+00  0.000E+00  0.000E+00  4.27065E+01  1.724E-01  2.000E+01  2.000E+04 -9.153E-02
   1   14   14     1    14    1.3495E+05 -2.5119E+03   1.3747E+05  0.000E+00  0.000E+00  0.000E+00  4.22309E+01  1.741E-01  2.000E+01  2.000E+04 -1.256E-01
   1   13   15     1    15    1.3747E+05 -3.3365E+03   1.4080E+05  0.000E+00  0.000E+00  0.000E+00  4.17559E+01  1.764E-01  2.000E+01  2.000E+04 -1.668E-01
   1   12   16     1    16    1.4080E+05 -5.1055E+03   1.4591E+05  0.000E+00  0.000E+00  0.000E+00  4.12818E+01  1.795E-01  2.000E+01  2.000E+04 -2.553E-01
   1   12   17     1    17    1.4591E+05 -3.1426E+03   1.4905E+05  0.000E+00  0.000E+00  0.000E+00  4.08076E+01  1.826E-01  2.000E+01  2.000E+04 -1.571E-01
   1   12   18     1    18    1.4905E+05 -3.0278E+03   1.5208E+05  0.000E+00  0.000E+00  0.000E+00  4.03326E+01  1.849E-01  2.000E+01  2.000E+04 -1.514E-01
   1   12   19     1    19    1.5208E+05 -4.2177E+03   1.5630E+05  0.000E+00  0.000E+00  0.000E+00  3.98580E+01  1.876E-01  2.000E+01  2.000E+04 -2.109E-01
   1   13   20     1    20    1.5630E+05 -2.2310E+03   1.5853E+05  0.000E+00  0.000E+00  0.000E+00  3.93831E+01  1.899E-01  2.000E+01  2.000E+04 -1.115E-01
   1   14   21     1    21    1.5853E+05 -1.1005E+03   1.5963E+05  0.000E+00  0.000E+00  0.000E+00  3.89070E+01  1.911E-01  2.000E+01  2.000E+04 -5.502E-02
   1   14   22     1    22    1.5963E+05  5.0891E+03   1.5454E+05  0.000E+00  0.000E+00  0.000E+00  3.84283E+01  1.897E-01  2.000E+01  2.000E+04  2.545E-01
   1    9   30     2     1    5.0000E+04 -2.7809E+03   5.2781E+04  0.000E+00  0.000E+00  0.000E+00  4.02428E+01  1.178E-01  2.000E+01  2.000E+04 -1.390E-01
   1    9   29     2     2    5.2781E+04 -3.1127E+03   5.5894E+04  0.000E+00  0.000E+00  0.000E+00  3.99968E+01  1.218E-01  2.000E+01  2.000E+04 -1.556E-01
   1    9   28     2     3    5.5894E+04 -3.4930E+03   5.9387E+04  0.000E+00  0.000E+00  0.000E+00  3.97512E+01  1.262E-01  2.000E+01  2.000E+04 -1.746E-01
   1    9   27     2     4    5.9387E+04 -6.2192E+03   6.5606E+04  0.000E+00  0.000E+00  0.000E+00  3.95075E+01  1.325E-01  2.000E+01  2.000E+04 -3.110E-01
   1   10   26     2     5    6.5606E+04 -3.8520E+03   6.9458E+04  0.000E+00  0.000E+00  0.000E+00  3.92638E+01  1.388E-01  2.000E+01  2.000E+04 -1.926E-01
   1   11   25     2     6    6.9458E+04 -2.8078E+03   7.2266E+04  0.000E+00  0.000E+00  0.000E+00  3.90178E+01  1.428E-01  2.000E+01  2.000E+04 -1.404E-01
   1   12   24     2     7    7.2266E+04 -1.9617E+03   7.4227E+04  0.000E+00  0.000E+00  0.000E+00  3.87707E+01  1.457E-01  2.000E+01  2.000E+04 -9.808E-02
   1   13   23     2     8    7.4227E+04 -1.1352E+03   7.5362E+04  0.000E+00  0.000E+00  0.000E+00  3.85225E+01  1.475E-01  2.000E+01  2.000E+04 -5.676E-02
   1   14   22     2     9    7.5362E+04  1.9638E+03   7.3399E+04  0.000E+00  0.000E+00  0.000E+00  3.82720E+01  1.470E-01  2.000E+01  2.000E+04  9.819E-02
   1   14   22     3     1    2.2794E+05 -8.3870E+03   2.3632E+05  0.000E+00  0.000E+00  0.000E+00  3.77545E+01  1.989E-01  2.000E+01  2.000E+04 -4.193E-01
   1   15   23     3     2    2.3632E+05 -1.9886E+03   2.3831E+05  0.000E+00  0.000E+00  0.000E+00  3.68683E+01  2.016E-01  2.000E+01  2.000E+04 -9.943E-02
   1   15   24     3     3    2.3831E+05 -1.6717E+03   2.3998E+05  0.000E+00  0.000E+00  0.000E+00  3.59803E+01  2.025E-01  2.000E+01  2.000E+04 -8.359E-02
   1   15   25     3     4    2.3998E+05 -1.7092E+03   2.4169E+05  0.000E+00  0.000E+00  0.000E+00  3.50923E+01  2.034E-01  2.000E+01  2.000E+04 -8.546E-02
   1   15   26     3     5    2.4169E+05 -2.1936E+03   2.4389E+05  0.000E+00  0.000E+00  0.000E+00  3.42044E+01  2.044E-01  2.000E+01  2.000E+04 -1.097E-01
   1   16   27     3     6    2.4389E+05 -3.0043E+03   2.4689E+05  0.000E+00  0.000E+00  0.000E+00  3.33168E+01  2.057E-01  2.000E+01  2.000E+04 -1.502E-01
   1   17   28     3     7    2.4689E+05 -3.8450E+03   2.5074E+05  0.000E+00  0.000E+00  0.000E+00  3.24296E+01  2.074E-01  2.000E+01  2.000E+04 -1.922E-01
   1   18   29     3     8    2.5074E+05 -5.5400E+03   2.5628E+05  0.000E+00  0.000E+00  0.000E+00  3.15431E+01  2.097E-01  2.000E+01  2.000E+04 -2.770E-01
   1   18   30     3     9    2.5628E+05 -4.7344E+03   2.6101E+05  0.000E+00  0.000E+00  0.000E+00  3.06567E+01  2.123E-01  2.000E+01  2.000E+04 -2.367E-01



1
              HEAD IN LAYER   1 AT END OF TIME STEP   1 IN STRESS PERIOD   12
  ---------------------------------------------------------------------------

          1      2      3      4      5      6      7      8      9     10
         11     12     13     14     15     16     17     18     19     20
         21     22     23     24     25     26     27     28     29     30
 .........................................................................
   1  ****** ****** ****** ****** ****** ****** ****** ****** ****** ******
      ****** ****** ****** ****** ****** ****** ****** ****** ****** ******
      ****** ****** ****** ****** ****** ****** ****** ****** ****** ******
   2  ****** ****** ****** ****** ****** ****** ****** ****** ****** ******
      ****** ****** ****** ****** ****** ****** ****** ****** ****** ******
      ****** ****** ****** ****** ****** ****** ****** ****** ****** ******
   3  ****** ****** ****** ****** ****** ****** ****** ****** ****** ******
      ****** ****** ****** ****** ****** ****** ****** ****** ****** ******
      ****** ****** ****** ****** ****** ****** ****** ****** ****** ******
   4  ****** ****** ****** ****** ****** ****** ****** ****** ****** ******
      ****** ****** ****** ****** ****** ****** ****** ****** ****** ******
      ****** ****** ****** ****** ****** ****** ****** ****** ****** ******
   5  ****** ****** ****** ****** ****** ****** ****** ****** ****** ******
      ****** ****** ****** ****** ****** ****** ****** ****** ****** ******
      ****** ****** ****** ****** ****** ****** ****** ****** ****** ******
   6  ****** ****** ****** ****** ****** ****** ****** ****** ****** ******
      ****** ****** ****** ****** ****** ****** ****** ****** ****** ******
      ****** ****** ****** ****** ****** ****** ****** ****** ****** ******
   7  ****** ****** ****** ****** ****** ****** ****** ****** ****** ******
      ****** ****** ****** ****** ****** ****** ****** ****** ****** ******
      ****** ****** ****** ****** ****** ****** ****** ****** ****** ******
   8  ****** ****** ****** ****** ****** ****** ****** ****** ****** ******
      ****** ****** ****** ****** ****** ****** ****** ****** ****** ******
      ****** ****** ****** ****** ****** ****** ****** ****** ****** ******
   9  ****** ****** ****** ****** ****** ****** ****** ****** ****** ******
      ****** ****** ****** ****** ****** ****** ****** ****** ****** ******
      ****** ****** ****** ****** ****** ****** ****** ****** ****** ******
  10  ****** ****** ****** ****** ****** ****** ****** ****** ****** ******
      ****** ****** ****** ****** ****** ****** ****** ****** ****** ******
      ****** ****** ****** ****** ****** ****** ****** ****** ****** ******
  11  ****** ****** ****** ****** ****** ****** ****** ****** ****** ******
      ****** ****** ****** ****** ****** ****** ****** ****** ****** ******
      ****** ****** ****** ****** ****** ****** ****** ****** ****** ******
  12  ****** ****** ****** ****** ****** ****** ****** ****** ****** ******
      ****** ****** ****** ****** ****** ****** ****** ****** ****** ******
      ****** ****** ****** ****** ****** ****** ****** ****** ****** ******
  13  ****** ****** ****** ****** ****** ****** ****** ****** ****** ******
      ****** ****** ****** ****** ****** ****** ****** ****** ****** ******
      ****** ****** ****** ****** ****** ****** ****** ****** ****** ******
  14  ****** ****** ****** ****** ****** ****** ****** ****** ****** ******
      ****** ****** ****** ****** ****** ****** ****** ****** ****** ******
      ****** ****** ****** ****** ****** ****** ****** ****** ****** ******
  15  ****** ****** ****** ****** ****** ****** ****** ****** ****** ******
      ****** ****** ****** ****** ****** ****** ****** ****** ****** ******
      ****** ****** ****** ****** ****** ****** ****** ****** ****** ******
  16  ****** ****** ****** ****** ****** ****** ****** ****** ****** ******
      ****** ****** ****** ****** ****** ****** ****** ****** ****** ******
      ****** ****** ****** ****** ****** ****** ****** ****** ****** ******
  17  ****** ****** ****** ****** ****** ****** ****** ****** ****** ******
      ****** ****** ****** ****** ****** ****** ****** ****** ****** ******
      ****** ****** ****** ****** ****** ****** ****** ****** ****** ******
  18  ****** ****** ****** ****** ****** ****** ****** ****** ****** ******
      ****** ****** ****** ****** ****** ****** ****** ****** ****** ******
      ****** ****** ****** ****** ****** ****** ****** ****** ****** ******
  19  ****** ****** ****** ****** ****** ****** ****** ****** ****** ******
      ****** ****** ****** ****** ****** ****** ****** ****** ****** ******
      ****** ****** ****** ****** ****** ****** ****** ****** ****** ******
  20  ****** ****** ****** ****** ****** ****** ****** ****** ****** ******
      ****** ****** ****** ****** ****** ****** ****** ****** ****** ******
      ****** ****** ****** ****** ****** ****** ****** ****** ****** ******
  21  ****** ****** ****** ****** ****** ****** ****** ****** ****** ******
      ****** ****** ****** ****** ****** ****** ****** ****** ****** ******
      ****** ****** ****** ****** ****** ****** ****** ****** ****** ******
  22  ****** ****** ****** ****** ****** ****** ****** ****** ****** ******
      ****** ****** ****** ****** ****** ****** ****** ****** ****** ******
      ****** ****** ****** ****** ****** ****** ****** ****** ****** ******
  23  ****** ****** ****** ****** ****** ****** ****** ****** ****** ******
      ****** ****** ****** ****** ****** ****** ****** ****** ****** ******
      ****** ****** ****** ****** ****** ****** ****** ****** ****** ******
  24  ****** ****** ****** ****** ****** ****** ****** ****** ****** ******
      ****** ****** ****** ****** ****** ****** ****** ****** ****** ******
      ****** ****** ****** ****** ****** ****** ****** ****** ****** ******
  25  ****** ****** ****** ****** ****** ****** ****** ****** ****** ******
      ****** ****** ****** ****** ****** ****** ****** ****** ****** ******
      ****** ****** ****** ****** ****** ****** ****** ****** ****** ******

 HEAD WILL BE SAVED ON UNIT   51 AT END OF TIME STEP    1, STRESS PERIOD   12
1
  VOLUMETRIC BUDGET FOR ENTIRE MODEL AT END OF TIME STEP    1, STRESS PERIOD  12
  ------------------------------------------------------------------------------

     CUMULATIVE VOLUMES      L**3       RATES FOR THIS TIME STEP      L**3/T
     ------------------                 ------------------------

           IN:                                      IN:
           ---                                      ---
             STORAGE =    26224960.4324               STORAGE =           0.0000
       CONSTANT HEAD =   184633491.0587         CONSTANT HEAD =      175439.2036
               WELLS =           0.0000                 WELLS =           0.0000
            RECHARGE =    26413200.0000              RECHARGE =       27600.0000
      STREAM LEAKAGE =     7501923.3302        STREAM LEAKAGE =        7052.9644

            TOTAL IN =   244773574.8213              TOTAL IN =      210092.1680

          OUT:                                     OUT:
          ----                                     ----
             STORAGE =     2587980.7926               STORAGE =        3733.6700
       CONSTANT HEAD =           0.0000         CONSTANT HEAD =           0.0000
               WELLS =    96682740.7276                 WELLS =       88294.7404
            RECHARGE =           0.0000              RECHARGE =           0.0000
      STREAM LEAKAGE =   145502854.2836        STREAM LEAKAGE =      118063.7567

           TOTAL OUT =   244773575.8038             TOTAL OUT =      210092.1671

            IN - OUT =          -0.9825              IN - OUT =       8.6519E-04

 PERCENT DISCREPANCY =          -0.00     PERCENT DISCREPANCY =           0.00






         TIME SUMMARY AT END OF TIME STEP    1 IN STRESS PERIOD   12
                    SECONDS     MINUTES      HOURS       DAYS        YEARS
                    -----------------------------------------------------------
   TIME STEP LENGTH 7.86240E+06 1.31040E+05  2184.0      91.000     0.24914    
 STRESS PERIOD TIME 7.86240E+06 1.31040E+05  2184.0      91.000     0.24914    
         TOTAL TIME 9.46080E+07 1.57680E+06  26280.      1095.0      2.9979    
1

 Run end date and time (yyyy/mm/dd hh:mm:ss): 2018/10/10 13:12:22
 Elapsed run time:  0.051 Seconds

