                                  MODFLOW-2005     
      U.S. GEOLOGICAL SURVEY MODULAR FINITE-DIFFERENCE GROUND-WATER FLOW MODEL
                            VERSION 1.11.00 8/8/2013

 LIST FILE: supply2.lst
                         UNIT   10

 OPENING ..\data\supply.dis
 FILE TYPE:DIS   UNIT   11   STATUS:OLD    
 FORMAT:FORMATTED              ACCESS:SEQUENTIAL          

 OPENING ..\data\supply.ba6
 FILE TYPE:BAS6   UNIT   12   STATUS:OLD    
 FORMAT:FORMATTED              ACCESS:SEQUENTIAL          

 OPENING ..\data\supply.bc6
 FILE TYPE:BCF6   UNIT   13   STATUS:OLD    
 FORMAT:FORMATTED              ACCESS:SEQUENTIAL          

 OPENING ..\data\supply.rch
 FILE TYPE:RCH   UNIT   15   STATUS:OLD    
 FORMAT:FORMATTED              ACCESS:SEQUENTIAL          

 OPENING ..\data\supply2.sfr
 FILE TYPE:SFR   UNIT   16   STATUS:OLD    
 FORMAT:FORMATTED              ACCESS:SEQUENTIAL          

 OPENING ..\data\supply.oc
 FILE TYPE:OC   UNIT   17   STATUS:OLD    
 FORMAT:FORMATTED              ACCESS:SEQUENTIAL          

 OPENING ..\data\supply.pcg
 FILE TYPE:PCG   UNIT   18   STATUS:OLD    
 FORMAT:FORMATTED              ACCESS:SEQUENTIAL          

 OPENING supply2.wel
 FILE TYPE:WEL   UNIT   19   STATUS:OLD    
 FORMAT:FORMATTED              ACCESS:SEQUENTIAL          

 OPENING supply2sf.cbc
 FILE TYPE:DATA(BINARY)   UNIT   50   STATUS:UNKNOWN
 FORMAT:BINARY                 ACCESS:SEQUENTIAL          

 OPENING supply2hd.bhd
 FILE TYPE:DATA(BINARY)   UNIT   51   STATUS:UNKNOWN
 FORMAT:BINARY                 ACCESS:SEQUENTIAL          

 BAS -- BASIC PACKAGE, VERSION 7, 5/2/2005 INPUT READ FROM UNIT   12
 
 MODFLOW was compiled using uniform precision
 Precision of REAL and DOUBLE PRECISION variables:          15

 DISCRETIZATION INPUT DATA READ FROM UNIT   11
    1 LAYERS        25 ROWS        30 COLUMNS
   12 STRESS PERIOD(S) IN SIMULATION
 MODEL TIME UNIT IS DAYS
 MODEL LENGTH UNIT IS UNDEFINED
  Confining bed flag for each layer:
   0

                     DELR =   200.000    

                     DELC =   200.000    

 TOP ELEVATION OF LAYER 1 =  100.0000    

   MODEL LAYER BOTTOM EL. =   0.00000     FOR LAYER   1


 STRESS PERIOD     LENGTH       TIME STEPS     MULTIPLIER FOR DELT    SS FLAG
 ----------------------------------------------------------------------------
        1         92.00000          1                    1.500         TR
        2         91.00000          1                    1.500         TR
        3         91.00000          1                    1.500         TR
        4         91.00000          1                    1.500         TR
        5         92.00000          1                    1.500         TR
        6         91.00000          1                    1.500         TR
        7         91.00000          1                    1.500         TR
        8         91.00000          1                    1.500         TR
        9         92.00000          1                    1.500         TR
       10         91.00000          1                    1.500         TR
       11         91.00000          1                    1.500         TR
       12         91.00000          1                    1.500         TR

 TRANSIENT SIMULATION



 
 #MODOFC transient water supply sample problem                                   
 #                                                                               
 THE FREE FORMAT OPTION HAS BEEN SELECTED



                     BOUNDARY ARRAY FOR LAYER   1
 READING ON UNIT   12 WITH FORMAT: (20I4)              

 AQUIFER HEAD WILL BE SET TO   0.0000     AT ALL NO-FLOW NODES (IBOUND=0).



                       INITIAL HEAD FOR LAYER   1
 READING ON UNIT   12 WITH FORMAT: (10F13.0)           

 OUTPUT CONTROL IS SPECIFIED ONLY AT TIME STEPS FOR WHICH OUTPUT IS DESIRED
 COMPACT CELL-BY-CELL BUDGET FILES WILL BE WRITTEN
 HEAD PRINT FORMAT CODE IS  18    DRAWDOWN PRINT FORMAT CODE IS   0
 HEADS WILL BE SAVED ON UNIT   51    DRAWDOWNS WILL BE SAVED ON UNIT    0

 BCF -- BLOCK-CENTERED FLOW PACKAGE, VERSION 7, 5/2/2005
         INPUT READ FROM UNIT 13
 TRANSIENT SIMULATION
 HEAD AT CELLS THAT CONVERT TO DRY=   0.0000    
 WETTING CAPABILITY IS NOT ACTIVE
      LAYER  LAYER-TYPE CODE     INTERBLOCK T
      --------------------------------------------
         1            0          0 -- HARMONIC    

 COLUMN TO ROW ANISOTROPY =  1.000000    

     PRIMARY STORAGE COEF =  5.000000E-02 FOR LAYER   1

     TRANSMIS. ALONG ROWS =   500.000     FOR LAYER   1

 WEL -- WELL PACKAGE, VERSION 7, 5/2/2005 INPUT READ FROM UNIT   19
 # Well package input file written by MMProc
 No named parameters
 MAXIMUM OF      3 ACTIVE WELLS AT ONE TIME


     0 Well parameters

 RCH -- RECHARGE PACKAGE, VERSION 7, 5/2/2005 INPUT READ FROM UNIT   15
 No named parameters
 OPTION 1 -- RECHARGE TO TOP LAYER


     0 Recharge parameters

 SFR7 -- STREAMFLOW ROUTING PACKAGE, VERSION 1.0.7, 2013-01-15
         INPUT READ FROM UNIT  16
 #  Supply2 test problem for GWM-VI
 #  The eighth entry in the first data line is ISTCB2 -
 #    Setting this to a negative number indicates that
 #    streamflows out of the reach will be saved to a
 #    binary file.  The absolute value of ISTCB2 is the
 #    unit to which unformatted flows will be written.
 #
 No named parameters
 Segment information will not be 
 read by reach
 No named parameters
 No specifed inflow files


 NUMBER OF STREAM REACHES IS   40

 NUMBER OF STREAM SEGMENTS IS    3

 NUMBER OF STREAM PARAMETERS IS    0

 NUMBER OF STREAM SEGMENTS DEFINED USING PARAMETERS IS              0

 MAXIMUM ERROR FOR STREAM LEAKAGE RATES IS  1.00E-04

 CONSTANT FOR MANNINGS EQUATION IS  1.2839E+05





   STREAM NETWORK DESCRIPTION: 

   LAYER    ROW    COL   SEGMENT   REACH     LENGTH
                          NUMBER   NUMBER    IN CELL        
   --------------------------------------------------
      1     13      1       1        1    2.0000E+02
      1     13      2       1        2    2.0000E+02
      1     14      3       1        3    2.0000E+02
      1     15      4       1        4    2.0000E+02
      1     16      5       1        5    2.0000E+02
      1     16      6       1        6    2.0000E+02
      1     16      7       1        7    2.0000E+02
      1     16      8       1        8    2.0000E+02
      1     16      9       1        9    2.0000E+02
      1     16     10       1       10    2.0000E+02
      1     16     11       1       11    2.0000E+02
      1     16     12       1       12    2.0000E+02
      1     15     13       1       13    2.0000E+02
      1     14     14       1       14    2.0000E+02
      1     13     15       1       15    2.0000E+02
      1     12     16       1       16    2.0000E+02
      1     12     17       1       17    2.0000E+02
      1     12     18       1       18    2.0000E+02
      1     12     19       1       19    2.0000E+02
      1     13     20       1       20    2.0000E+02
      1     14     21       1       21    2.0000E+02
      1     14     22       1       22    2.0000E+02
      1      9     30       2        1    2.0000E+02
      1      9     29       2        2    2.0000E+02
      1      9     28       2        3    2.0000E+02
      1      9     27       2        4    2.0000E+02
      1     10     26       2        5    2.0000E+02
      1     11     25       2        6    2.0000E+02
      1     12     24       2        7    2.0000E+02
      1     13     23       2        8    2.0000E+02
      1     14     22       2        9    2.0000E+02
      1     14     22       3        1    2.0000E+02
      1     15     23       3        2    2.0000E+02
      1     15     24       3        3    2.0000E+02
      1     15     25       3        4    2.0000E+02
      1     15     26       3        5    2.0000E+02
      1     16     27       3        6    2.0000E+02
      1     17     28       3        7    2.0000E+02
      1     18     29       3        8    2.0000E+02
      1     18     30       3        9    2.0000E+02




 PCG -- CONJUGATE-GRADIENT SOLUTION PACKAGE, VERSION 7, 5/2/2005
 MAXIMUM OF    500 CALLS OF SOLUTION ROUTINE
 MAXIMUM OF      5 INTERNAL ITERATIONS PER CALL TO SOLUTION ROUTINE
 MATRIX PRECONDITIONING TYPE :    1



                                    SOLUTION BY THE CONJUGATE-GRADIENT METHOD
                                   -------------------------------------------
                    MAXIMUM NUMBER OF CALLS TO PCG ROUTINE =      500
                        MAXIMUM ITERATIONS PER CALL TO PCG =        5
                               MATRIX PRECONDITIONING TYPE =        1
        RELAXATION FACTOR (ONLY USED WITH PRECOND. TYPE 1) =    0.10000E+01
 PARAMETER OF POLYNOMIAL PRECOND. = 2 (2) OR IS CALCULATED :        0
                         HEAD CHANGE CRITERION FOR CLOSURE =    0.10000E-05
                     RESIDUAL CHANGE CRITERION FOR CLOSURE =    0.10000E+01
            PCG HEAD AND RESIDUAL CHANGE PRINTOUT INTERVAL =        1
     PRINTING FROM SOLVER IS LIMITED(1) OR SUPPRESSED (>1) =        1
                            STEADY-STATE DAMPING PARAMETER =    0.10000E+01
                               TRANSIENT DAMPING PARAMETER =    0.10000E+01
1
                            STRESS PERIOD NO.    1, LENGTH =   92.00000    
                            -----------------------------------------------

                              NUMBER OF TIME STEPS =     1

                               MULTIPLIER FOR DELT =     1.500

                            INITIAL TIME STEP SIZE =   92.00000    

 WELL NO.  LAYER   ROW   COL   STRESS RATE         
 --------------------------------------------------
      1      1     23      9     -0.3450E+05
      2      1      3      9     -0.3274E+05
      3      1      3     14     -0.3278E+05

      3 WELLS

                 RECHARGE =  5.000000E-04



 CLASSIFICATION & COUNT OF STREAM SEGMENTS BASED ON SOURCE OF INFLOW:

                HEADWATER     DIVERSION     RECEIVES TRIBUTARY FLOW
                ---------     ---------     -----------------------
                     2              0               1



                    INPUT DATA FOR EACH STREAM SEGMENT
 ---------------------------------------------------------------------------------------------

 SEGMENT    SEG.     INFLOW   OVERLAND   STREAM    STREAM   ICALC  OUTFLOW  DIVERSION PRIORITY
    NO.    LENGTH     RATE     RUNOFF      ET       PPT.    METH.  TO SEG.  FROM SEG.    NO.

      1  4.400E+03 1.000E+05 0.000E+00 0.000E+00 0.000E+00    1        3        0        0
      2  1.800E+03 5.000E+04 0.000E+00 0.000E+00 0.000E+00    1        3        0        0
      3  1.800E+03 0.000E+00 0.000E+00 0.000E+00 0.000E+00    1        0        0        0


         STREAMBED PROPERTIES AND STREAM DIMENSIONS

 SEGMENT     BED HYD. COND.      BED THICKNESS     ELEV.-TOP OF BED     WIDTH OF STREAM     DEPTH OF STREAM    STREAM ROUGHNESS
    No.     UPPER     LOWER     UPPER     LOWER     UPPER     LOWER     UPPER     LOWER     UPPER     LOWER   CHANNEL      BANK

     1  5.000E+00 5.000E+00 1.000E+00 1.000E+00 4.850E+01 3.800E+01 2.000E+01 2.000E+01                     5.000E-02
     2  5.000E+00 5.000E+00 1.000E+00 1.000E+00 4.025E+01 3.800E+01 2.000E+01 2.000E+01                     5.000E-02
     3  5.000E+00 5.000E+00 1.000E+00 1.000E+00 3.800E+01 3.000E+01 2.000E+01 2.000E+01                     5.000E-02



 
 SOLVING FOR HEAD 


     8 CALLS TO PCG ROUTINE FOR TIME STEP   1 IN STRESS PERIOD    1
    34 TOTAL ITERATIONS

 OUTPUT CONTROL FOR STRESS PERIOD    1   TIME STEP    1
    SAVE BUDGET
    SAVE HEAD FOR ALL LAYERS
    PRINT HEAD FOR ALL LAYERS
 UBDSV2 SAVING "STREAMFLOW OUT  " ON UNIT  50 AT TIME STEP  1, STRESS PERIOD   1



 STREAM LISTING     PERIOD      1   STEP        1

 LAYER ROW COL. STREAM  RCH.  FLOW INTO     FLOW TO   FLOW OUT OF   OVRLND.     DIRECT     STREAM       STREAM     STREAM     STREAM   STREAMBED  STREAMBED
                SEG.NO.  NO.  STRM. RCH.    AQUIFER    STRM. RCH.    RUNOFF     PRECIP       ET          HEAD       DEPTH      WIDTH   CONDCTNC.   GRADIENT

   1   13    1     1     1    1.0000E+05 -5.5724E+03   1.0557E+05  0.000E+00  0.000E+00  0.000E+00  4.84084E+01  1.471E-01  2.000E+01  2.000E+04 -2.786E-01
   1   13    2     1     2    1.0557E+05 -8.3198E+03   1.1389E+05  0.000E+00  0.000E+00  0.000E+00  4.79370E+01  1.529E-01  2.000E+01  2.000E+04 -4.160E-01
   1   14    3     1     3    1.1389E+05 -7.6233E+03   1.2152E+05  0.000E+00  0.000E+00  0.000E+00  4.74663E+01  1.595E-01  2.000E+01  2.000E+04 -3.812E-01
   1   15    4     1     4    1.2152E+05 -7.4245E+03   1.2894E+05  0.000E+00  0.000E+00  0.000E+00  4.69951E+01  1.656E-01  2.000E+01  2.000E+04 -3.712E-01
   1   16    5     1     5    1.2894E+05 -7.0640E+03   1.3600E+05  0.000E+00  0.000E+00  0.000E+00  4.65235E+01  1.712E-01  2.000E+01  2.000E+04 -3.532E-01
   1   16    6     1     6    1.3600E+05 -5.5841E+03   1.4159E+05  0.000E+00  0.000E+00  0.000E+00  4.60511E+01  1.761E-01  2.000E+01  2.000E+04 -2.792E-01
   1   16    7     1     7    1.4159E+05 -5.6495E+03   1.4724E+05  0.000E+00  0.000E+00  0.000E+00  4.55781E+01  1.803E-01  2.000E+01  2.000E+04 -2.825E-01
   1   16    8     1     8    1.4724E+05 -5.6780E+03   1.5292E+05  0.000E+00  0.000E+00  0.000E+00  4.51050E+01  1.845E-01  2.000E+01  2.000E+04 -2.839E-01
   1   16    9     1     9    1.5292E+05 -5.6722E+03   1.5859E+05  0.000E+00  0.000E+00  0.000E+00  4.46319E+01  1.887E-01  2.000E+01  2.000E+04 -2.836E-01
   1   16   10     1    10    1.5859E+05 -5.6464E+03   1.6423E+05  0.000E+00  0.000E+00  0.000E+00  4.41587E+01  1.928E-01  2.000E+01  2.000E+04 -2.823E-01
   1   16   11     1    11    1.6423E+05 -5.6264E+03   1.6986E+05  0.000E+00  0.000E+00  0.000E+00  4.36854E+01  1.968E-01  2.000E+01  2.000E+04 -2.813E-01
   1   16   12     1    12    1.6986E+05 -7.4235E+03   1.7728E+05  0.000E+00  0.000E+00  0.000E+00  4.32127E+01  2.014E-01  2.000E+01  2.000E+04 -3.712E-01
   1   15   13     1    13    1.7728E+05 -7.8925E+03   1.8518E+05  0.000E+00  0.000E+00  0.000E+00  4.27408E+01  2.067E-01  2.000E+01  2.000E+04 -3.946E-01
   1   14   14     1    14    1.8518E+05 -8.1305E+03   1.9331E+05  0.000E+00  0.000E+00  0.000E+00  4.22689E+01  2.121E-01  2.000E+01  2.000E+04 -4.065E-01
   1   13   15     1    15    1.9331E+05 -8.2899E+03   2.0160E+05  0.000E+00  0.000E+00  0.000E+00  4.17971E+01  2.176E-01  2.000E+01  2.000E+04 -4.145E-01
   1   12   16     1    16    2.0160E+05 -8.8931E+03   2.1049E+05  0.000E+00  0.000E+00  0.000E+00  4.13255E+01  2.232E-01  2.000E+01  2.000E+04 -4.447E-01
   1   12   17     1    17    2.1049E+05 -6.3795E+03   2.1687E+05  0.000E+00  0.000E+00  0.000E+00  4.08531E+01  2.281E-01  2.000E+01  2.000E+04 -3.190E-01
   1   12   18     1    18    2.1687E+05 -6.2698E+03   2.2314E+05  0.000E+00  0.000E+00  0.000E+00  4.03799E+01  2.322E-01  2.000E+01  2.000E+04 -3.135E-01
   1   12   19     1    19    2.2314E+05 -7.9452E+03   2.3108E+05  0.000E+00  0.000E+00  0.000E+00  3.99071E+01  2.366E-01  2.000E+01  2.000E+04 -3.973E-01
   1   13   20     1    20    2.3108E+05 -6.6803E+03   2.3777E+05  0.000E+00  0.000E+00  0.000E+00  3.94344E+01  2.412E-01  2.000E+01  2.000E+04 -3.340E-01
   1   14   21     1    21    2.3777E+05 -5.6349E+03   2.4340E+05  0.000E+00  0.000E+00  0.000E+00  3.89609E+01  2.450E-01  2.000E+01  2.000E+04 -2.817E-01
   1   14   22     1    22    2.4340E+05  4.3225E+03   2.3908E+05  0.000E+00  0.000E+00  0.000E+00  3.84840E+01  2.454E-01  2.000E+01  2.000E+04  2.161E-01
   1    9   30     2     1    5.0000E+04 -5.5627E+03   5.5563E+04  0.000E+00  0.000E+00  0.000E+00  4.02447E+01  1.197E-01  2.000E+01  2.000E+04 -2.781E-01
   1    9   29     2     2    5.5563E+04 -5.8595E+03   6.1422E+04  0.000E+00  0.000E+00  0.000E+00  4.00023E+01  1.273E-01  2.000E+01  2.000E+04 -2.930E-01
   1    9   28     2     3    6.1422E+04 -6.1778E+03   6.7600E+04  0.000E+00  0.000E+00  0.000E+00  3.97600E+01  1.350E-01  2.000E+01  2.000E+04 -3.089E-01
   1    9   27     2     4    6.7600E+04 -9.5352E+03   7.7135E+04  0.000E+00  0.000E+00  0.000E+00  3.95196E+01  1.446E-01  2.000E+01  2.000E+04 -4.768E-01
   1   10   26     2     5    7.7135E+04 -7.6600E+03   8.4795E+04  0.000E+00  0.000E+00  0.000E+00  3.92797E+01  1.547E-01  2.000E+01  2.000E+04 -3.830E-01
   1   11   25     2     6    8.4795E+04 -6.5285E+03   9.1324E+04  0.000E+00  0.000E+00  0.000E+00  3.90377E+01  1.627E-01  2.000E+01  2.000E+04 -3.264E-01
   1   12   24     2     7    9.1324E+04 -5.2729E+03   9.6597E+04  0.000E+00  0.000E+00  0.000E+00  3.87942E+01  1.692E-01  2.000E+01  2.000E+04 -2.636E-01
   1   13   23     2     8    9.6597E+04 -3.7478E+03   1.0034E+05  0.000E+00  0.000E+00  0.000E+00  3.85490E+01  1.740E-01  2.000E+01  2.000E+04 -1.874E-01
   1   14   22     2     9    1.0034E+05  6.5540E+02   9.9689E+04  0.000E+00  0.000E+00  0.000E+00  3.83006E+01  1.756E-01  2.000E+01  2.000E+04  3.277E-02
   1   14   22     3     1    3.3877E+05 -9.2137E+03   3.4798E+05  0.000E+00  0.000E+00  0.000E+00  3.78072E+01  2.516E-01  2.000E+01  2.000E+04 -4.607E-01
   1   15   23     3     2    3.4798E+05 -6.0297E+03   3.5401E+05  0.000E+00  0.000E+00  0.000E+00  3.69216E+01  2.550E-01  2.000E+01  2.000E+04 -3.015E-01
   1   15   24     3     3    3.5401E+05 -4.3671E+03   3.5838E+05  0.000E+00  0.000E+00  0.000E+00  3.60350E+01  2.572E-01  2.000E+01  2.000E+04 -2.184E-01
   1   15   25     3     4    3.5838E+05 -4.3585E+03   3.6274E+05  0.000E+00  0.000E+00  0.000E+00  3.51480E+01  2.591E-01  2.000E+01  2.000E+04 -2.179E-01
   1   15   26     3     5    3.6274E+05 -5.6754E+03   3.6841E+05  0.000E+00  0.000E+00  0.000E+00  3.42613E+01  2.613E-01  2.000E+01  2.000E+04 -2.838E-01
   1   16   27     3     6    3.6841E+05 -7.2913E+03   3.7570E+05  0.000E+00  0.000E+00  0.000E+00  3.33751E+01  2.640E-01  2.000E+01  2.000E+04 -3.646E-01
   1   17   28     3     7    3.7570E+05 -8.0733E+03   3.8378E+05  0.000E+00  0.000E+00  0.000E+00  3.24895E+01  2.673E-01  2.000E+01  2.000E+04 -4.037E-01
   1   18   29     3     8    3.8378E+05 -9.1229E+03   3.9290E+05  0.000E+00  0.000E+00  0.000E+00  3.16042E+01  2.709E-01  2.000E+01  2.000E+04 -4.561E-01
   1   18   30     3     9    3.9290E+05 -7.5401E+03   4.0044E+05  0.000E+00  0.000E+00  0.000E+00  3.07188E+01  2.744E-01  2.000E+01  2.000E+04 -3.770E-01



1
              HEAD IN LAYER   1 AT END OF TIME STEP   1 IN STRESS PERIOD    1
  ---------------------------------------------------------------------------

          1      2      3      4      5      6      7      8      9     10
         11     12     13     14     15     16     17     18     19     20
         21     22     23     24     25     26     27     28     29     30
 .........................................................................
   1  ****** ****** ****** ****** ****** ****** ****** ****** ****** ******
      ****** ****** ****** ****** ****** ****** ****** ****** ****** ******
      ****** ****** ****** ****** ****** ****** ****** ****** ****** ******
   2  ****** ****** ****** ****** ****** ****** ****** ****** ****** ******
      ****** ****** ****** ****** ****** ****** ****** ****** ****** ******
      ****** ****** ****** ****** ****** ****** ****** ****** ****** ******
   3  ****** ****** ****** ****** ****** ****** ****** ****** ****** ******
      ****** ****** ****** ****** ****** ****** ****** ****** ****** ******
      ****** ****** ****** ****** ****** ****** ****** ****** ****** ******
   4  ****** ****** ****** ****** ****** ****** ****** ****** ****** ******
      ****** ****** ****** ****** ****** ****** ****** ****** ****** ******
      ****** ****** ****** ****** ****** ****** ****** ****** ****** ******
   5  ****** ****** ****** ****** ****** ****** ****** ****** ****** ******
      ****** ****** ****** ****** ****** ****** ****** ****** ****** ******
      ****** ****** ****** ****** ****** ****** ****** ****** ****** ******
   6  ****** ****** ****** ****** ****** ****** ****** ****** ****** ******
      ****** ****** ****** ****** ****** ****** ****** ****** ****** ******
      ****** ****** ****** ****** ****** ****** ****** ****** ****** ******
   7  ****** ****** ****** ****** ****** ****** ****** ****** ****** ******
      ****** ****** ****** ****** ****** ****** ****** ****** ****** ******
      ****** ****** ****** ****** ****** ****** ****** ****** ****** ******
   8  ****** ****** ****** ****** ****** ****** ****** ****** ****** ******
      ****** ****** ****** ****** ****** ****** ****** ****** ****** ******
      ****** ****** ****** ****** ****** ****** ****** ****** ****** ******
   9  ****** ****** ****** ****** ****** ****** ****** ****** ****** ******
      ****** ****** ****** ****** ****** ****** ****** ****** ****** ******
      ****** ****** ****** ****** ****** ****** ****** ****** ****** ******
  10  ****** ****** ****** ****** ****** ****** ****** ****** ****** ******
      ****** ****** ****** ****** ****** ****** ****** ****** ****** ******
      ****** ****** ****** ****** ****** ****** ****** ****** ****** ******
  11  ****** ****** ****** ****** ****** ****** ****** ****** ****** ******
      ****** ****** ****** ****** ****** ****** ****** ****** ****** ******
      ****** ****** ****** ****** ****** ****** ****** ****** ****** ******
  12  ****** ****** ****** ****** ****** ****** ****** ****** ****** ******
      ****** ****** ****** ****** ****** ****** ****** ****** ****** ******
      ****** ****** ****** ****** ****** ****** ****** ****** ****** ******
  13  ****** ****** ****** ****** ****** ****** ****** ****** ****** ******
      ****** ****** ****** ****** ****** ****** ****** ****** ****** ******
      ****** ****** ****** ****** ****** ****** ****** ****** ****** ******
  14  ****** ****** ****** ****** ****** ****** ****** ****** ****** ******
      ****** ****** ****** ****** ****** ****** ****** ****** ****** ******
      ****** ****** ****** ****** ****** ****** ****** ****** ****** ******
  15  ****** ****** ****** ****** ****** ****** ****** ****** ****** ******
      ****** ****** ****** ****** ****** ****** ****** ****** ****** ******
      ****** ****** ****** ****** ****** ****** ****** ****** ****** ******
  16  ****** ****** ****** ****** ****** ****** ****** ****** ****** ******
      ****** ****** ****** ****** ****** ****** ****** ****** ****** ******
      ****** ****** ****** ****** ****** ****** ****** ****** ****** ******
  17  ****** ****** ****** ****** ****** ****** ****** ****** ****** ******
      ****** ****** ****** ****** ****** ****** ****** ****** ****** ******
      ****** ****** ****** ****** ****** ****** ****** ****** ****** ******
  18  ****** ****** ****** ****** ****** ****** ****** ****** ****** ******
      ****** ****** ****** ****** ****** ****** ****** ****** ****** ******
      ****** ****** ****** ****** ****** ****** ****** ****** ****** ******
  19  ****** ****** ****** ****** ****** ****** ****** ****** ****** ******
      ****** ****** ****** ****** ****** ****** ****** ****** ****** ******
      ****** ****** ****** ****** ****** ****** ****** ****** ****** ******
  20  ****** ****** ****** ****** ****** ****** ****** ****** ****** ******
      ****** ****** ****** ****** ****** ****** ****** ****** ****** ******
      ****** ****** ****** ****** ****** ****** ****** ****** ****** ******
  21  ****** ****** ****** ****** ****** ****** ****** ****** ****** ******
      ****** ****** ****** ****** ****** ****** ****** ****** ****** ******
      ****** ****** ****** ****** ****** ****** ****** ****** ****** ******
  22  ****** ****** ****** ****** ****** ****** ****** ****** ****** ******
      ****** ****** ****** ****** ****** ****** ****** ****** ****** ******
      ****** ****** ****** ****** ****** ****** ****** ****** ****** ******
  23  ****** ****** ****** ****** ****** ****** ****** ****** ****** ******
      ****** ****** ****** ****** ****** ****** ****** ****** ****** ******
      ****** ****** ****** ****** ****** ****** ****** ****** ****** ******
  24  ****** ****** ****** ****** ****** ****** ****** ****** ****** ******
      ****** ****** ****** ****** ****** ****** ****** ****** ****** ******
      ****** ****** ****** ****** ****** ****** ****** ****** ****** ******
  25  ****** ****** ****** ****** ****** ****** ****** ****** ****** ******
      ****** ****** ****** ****** ****** ****** ****** ****** ****** ******
      ****** ****** ****** ****** ****** ****** ****** ****** ****** ******

 HEAD WILL BE SAVED ON UNIT   51 AT END OF TIME STEP    1, STRESS PERIOD    1
1
  VOLUMETRIC BUDGET FOR ENTIRE MODEL AT END OF TIME STEP    1, STRESS PERIOD   1
  ------------------------------------------------------------------------------

     CUMULATIVE VOLUMES      L**3       RATES FOR THIS TIME STEP      L**3/T
     ------------------                 ------------------------

           IN:                                      IN:
           ---                                      ---
             STORAGE =    17724807.3932               STORAGE =      192660.9499
       CONSTANT HEAD =    13247900.4814         CONSTANT HEAD =      143998.9183
               WELLS =           0.0000                 WELLS =           0.0000
            RECHARGE =     1269600.0000              RECHARGE =       13800.0000
      STREAM LEAKAGE =      457962.8450        STREAM LEAKAGE =        4977.8570

            TOTAL IN =    32700270.7196              TOTAL IN =      355437.7252

          OUT:                                     OUT:
          ----                                     ----
             STORAGE =           0.0000               STORAGE =           0.0000
       CONSTANT HEAD =           0.0000         CONSTANT HEAD =           0.0000
               WELLS =     9201974.5521                 WELLS =      100021.4625
            RECHARGE =           0.0000              RECHARGE =           0.0000
      STREAM LEAKAGE =    23498296.3044        STREAM LEAKAGE =      255416.2642

           TOTAL OUT =    32700270.8566             TOTAL OUT =      355437.7267

            IN - OUT =          -0.1370              IN - OUT =      -1.4892E-03

 PERCENT DISCREPANCY =          -0.00     PERCENT DISCREPANCY =          -0.00






         TIME SUMMARY AT END OF TIME STEP    1 IN STRESS PERIOD    1
                    SECONDS     MINUTES      HOURS       DAYS        YEARS
                    -----------------------------------------------------------
   TIME STEP LENGTH 7.94880E+06 1.32480E+05  2208.0      92.000     0.25188    
 STRESS PERIOD TIME 7.94880E+06 1.32480E+05  2208.0      92.000     0.25188    
         TOTAL TIME 7.94880E+06 1.32480E+05  2208.0      92.000     0.25188    
1
1
                            STRESS PERIOD NO.    2, LENGTH =   91.00000    
                            -----------------------------------------------

                              NUMBER OF TIME STEPS =     1

                               MULTIPLIER FOR DELT =     1.500

                            INITIAL TIME STEP SIZE =   91.00000    

 WELL NO.  LAYER   ROW   COL   STRESS RATE         
 --------------------------------------------------
      1      1     23      9     -0.3450E+05
      2      1      3      9     -0.3274E+05
      3      1      3     14     -0.3278E+05

      3 WELLS

                 RECHARGE =  2.000000E-03

 REUSING STREAM SEGMENT DATA FROM LAST STRESS PERIOD
 
 SOLVING FOR HEAD 


     7 CALLS TO PCG ROUTINE FOR TIME STEP   1 IN STRESS PERIOD    2
    27 TOTAL ITERATIONS

 OUTPUT CONTROL FOR STRESS PERIOD    2   TIME STEP    1
    SAVE BUDGET
    SAVE HEAD FOR ALL LAYERS
    PRINT HEAD FOR ALL LAYERS
 UBDSV2 SAVING "STREAMFLOW OUT  " ON UNIT  50 AT TIME STEP  1, STRESS PERIOD   2



 STREAM LISTING     PERIOD      2   STEP        1

 LAYER ROW COL. STREAM  RCH.  FLOW INTO     FLOW TO   FLOW OUT OF   OVRLND.     DIRECT     STREAM       STREAM     STREAM     STREAM   STREAMBED  STREAMBED
                SEG.NO.  NO.  STRM. RCH.    AQUIFER    STRM. RCH.    RUNOFF     PRECIP       ET          HEAD       DEPTH      WIDTH   CONDCTNC.   GRADIENT

   1   13    1     1     1    1.0000E+05 -3.4953E+03   1.0350E+05  0.000E+00  0.000E+00  0.000E+00  4.84075E+01  1.462E-01  2.000E+01  2.000E+04 -1.748E-01
   1   13    2     1     2    1.0350E+05 -5.6524E+03   1.0915E+05  0.000E+00  0.000E+00  0.000E+00  4.79342E+01  1.501E-01  2.000E+01  2.000E+04 -2.826E-01
   1   14    3     1     3    1.0915E+05 -4.6846E+03   1.1383E+05  0.000E+00  0.000E+00  0.000E+00  4.74612E+01  1.544E-01  2.000E+01  2.000E+04 -2.342E-01
   1   15    4     1     4    1.1383E+05 -4.5062E+03   1.1834E+05  0.000E+00  0.000E+00  0.000E+00  4.69877E+01  1.582E-01  2.000E+01  2.000E+04 -2.253E-01
   1   16    5     1     5    1.1834E+05 -4.5040E+03   1.2284E+05  0.000E+00  0.000E+00  0.000E+00  4.65141E+01  1.618E-01  2.000E+01  2.000E+04 -2.252E-01
   1   16    6     1     6    1.2284E+05 -3.4693E+03   1.2631E+05  0.000E+00  0.000E+00  0.000E+00  4.60400E+01  1.650E-01  2.000E+01  2.000E+04 -1.735E-01
   1   16    7     1     7    1.2631E+05 -3.4704E+03   1.2978E+05  0.000E+00  0.000E+00  0.000E+00  4.55655E+01  1.678E-01  2.000E+01  2.000E+04 -1.735E-01
   1   16    8     1     8    1.2978E+05 -3.4557E+03   1.3324E+05  0.000E+00  0.000E+00  0.000E+00  4.50909E+01  1.705E-01  2.000E+01  2.000E+04 -1.728E-01
   1   16    9     1     9    1.3324E+05 -3.4342E+03   1.3667E+05  0.000E+00  0.000E+00  0.000E+00  4.46163E+01  1.732E-01  2.000E+01  2.000E+04 -1.717E-01
   1   16   10     1    10    1.3667E+05 -3.4228E+03   1.4010E+05  0.000E+00  0.000E+00  0.000E+00  4.41417E+01  1.758E-01  2.000E+01  2.000E+04 -1.711E-01
   1   16   11     1    11    1.4010E+05 -3.4457E+03   1.4354E+05  0.000E+00  0.000E+00  0.000E+00  4.36670E+01  1.784E-01  2.000E+01  2.000E+04 -1.723E-01
   1   16   12     1    12    1.4354E+05 -4.7641E+03   1.4830E+05  0.000E+00  0.000E+00  0.000E+00  4.31928E+01  1.815E-01  2.000E+01  2.000E+04 -2.382E-01
   1   15   13     1    13    1.4830E+05 -4.8052E+03   1.5311E+05  0.000E+00  0.000E+00  0.000E+00  4.27191E+01  1.850E-01  2.000E+01  2.000E+04 -2.403E-01
   1   14   14     1    14    1.5311E+05 -4.9067E+03   1.5802E+05  0.000E+00  0.000E+00  0.000E+00  4.22454E+01  1.886E-01  2.000E+01  2.000E+04 -2.453E-01
   1   13   15     1    15    1.5802E+05 -5.0672E+03   1.6308E+05  0.000E+00  0.000E+00  0.000E+00  4.17717E+01  1.922E-01  2.000E+01  2.000E+04 -2.534E-01
   1   12   16     1    16    1.6308E+05 -5.9228E+03   1.6901E+05  0.000E+00  0.000E+00  0.000E+00  4.12984E+01  1.961E-01  2.000E+01  2.000E+04 -2.961E-01
   1   12   17     1    17    1.6901E+05 -4.0992E+03   1.7311E+05  0.000E+00  0.000E+00  0.000E+00  4.08246E+01  1.996E-01  2.000E+01  2.000E+04 -2.050E-01
   1   12   18     1    18    1.7311E+05 -4.0342E+03   1.7714E+05  0.000E+00  0.000E+00  0.000E+00  4.03502E+01  2.025E-01  2.000E+01  2.000E+04 -2.017E-01
   1   12   19     1    19    1.7714E+05 -5.2650E+03   1.8241E+05  0.000E+00  0.000E+00  0.000E+00  3.98761E+01  2.057E-01  2.000E+01  2.000E+04 -2.632E-01
   1   13   20     1    20    1.8241E+05 -3.9532E+03   1.8636E+05  0.000E+00  0.000E+00  0.000E+00  3.94020E+01  2.088E-01  2.000E+01  2.000E+04 -1.977E-01
   1   14   21     1    21    1.8636E+05 -3.2960E+03   1.8965E+05  0.000E+00  0.000E+00  0.000E+00  3.89272E+01  2.113E-01  2.000E+01  2.000E+04 -1.648E-01
   1   14   22     1    22    1.8965E+05  4.8489E+03   1.8481E+05  0.000E+00  0.000E+00  0.000E+00  3.84494E+01  2.107E-01  2.000E+01  2.000E+04  2.424E-01
   1    9   30     2     1    5.0000E+04 -3.4395E+03   5.3439E+04  0.000E+00  0.000E+00  0.000E+00  4.02432E+01  1.182E-01  2.000E+01  2.000E+04 -1.720E-01
   1    9   29     2     2    5.3439E+04 -3.7593E+03   5.7199E+04  0.000E+00  0.000E+00  0.000E+00  3.99981E+01  1.231E-01  2.000E+01  2.000E+04 -1.880E-01
   1    9   28     2     3    5.7199E+04 -4.1238E+03   6.1323E+04  0.000E+00  0.000E+00  0.000E+00  3.97533E+01  1.283E-01  2.000E+01  2.000E+04 -2.062E-01
   1    9   27     2     4    6.1323E+04 -7.0618E+03   6.8384E+04  0.000E+00  0.000E+00  0.000E+00  3.95104E+01  1.354E-01  2.000E+01  2.000E+04 -3.531E-01
   1   10   26     2     5    6.8384E+04 -4.7226E+03   7.3107E+04  0.000E+00  0.000E+00  0.000E+00  3.92677E+01  1.427E-01  2.000E+01  2.000E+04 -2.361E-01
   1   11   25     2     6    7.3107E+04 -3.6163E+03   7.6723E+04  0.000E+00  0.000E+00  0.000E+00  3.90227E+01  1.477E-01  2.000E+01  2.000E+04 -1.808E-01
   1   12   24     2     7    7.6723E+04 -2.6316E+03   7.9355E+04  0.000E+00  0.000E+00  0.000E+00  3.87763E+01  1.513E-01  2.000E+01  2.000E+04 -1.316E-01
   1   13   23     2     8    7.9355E+04 -1.6241E+03   8.0979E+04  0.000E+00  0.000E+00  0.000E+00  3.85288E+01  1.538E-01  2.000E+01  2.000E+04 -8.121E-02
   1   14   22     2     9    8.0979E+04  1.4395E+03   7.9539E+04  0.000E+00  0.000E+00  0.000E+00  3.82789E+01  1.539E-01  2.000E+01  2.000E+04  7.198E-02
   1   14   22     3     1    2.6434E+05 -8.6837E+03   2.7303E+05  0.000E+00  0.000E+00  0.000E+00  3.77727E+01  2.172E-01  2.000E+01  2.000E+04 -4.342E-01
   1   15   23     3     2    2.7303E+05 -3.9402E+03   2.7697E+05  0.000E+00  0.000E+00  0.000E+00  3.68869E+01  2.202E-01  2.000E+01  2.000E+04 -1.970E-01
   1   15   24     3     3    2.7697E+05 -2.6712E+03   2.7964E+05  0.000E+00  0.000E+00  0.000E+00  3.59996E+01  2.218E-01  2.000E+01  2.000E+04 -1.336E-01
   1   15   25     3     4    2.7964E+05 -2.5282E+03   2.8217E+05  0.000E+00  0.000E+00  0.000E+00  3.51120E+01  2.231E-01  2.000E+01  2.000E+04 -1.264E-01
   1   15   26     3     5    2.8217E+05 -3.0711E+03   2.8524E+05  0.000E+00  0.000E+00  0.000E+00  3.42244E+01  2.244E-01  2.000E+01  2.000E+04 -1.536E-01
   1   16   27     3     6    2.8524E+05 -4.2627E+03   2.8950E+05  0.000E+00  0.000E+00  0.000E+00  3.33372E+01  2.261E-01  2.000E+01  2.000E+04 -2.131E-01
   1   17   28     3     7    2.8950E+05 -5.0984E+03   2.9460E+05  0.000E+00  0.000E+00  0.000E+00  3.24506E+01  2.283E-01  2.000E+01  2.000E+04 -2.549E-01
   1   18   29     3     8    2.9460E+05 -6.6898E+03   3.0129E+05  0.000E+00  0.000E+00  0.000E+00  3.15644E+01  2.311E-01  2.000E+01  2.000E+04 -3.345E-01
   1   18   30     3     9    3.0129E+05 -5.4737E+03   3.0676E+05  0.000E+00  0.000E+00  0.000E+00  3.06784E+01  2.339E-01  2.000E+01  2.000E+04 -2.737E-01



1
              HEAD IN LAYER   1 AT END OF TIME STEP   1 IN STRESS PERIOD    2
  ---------------------------------------------------------------------------

          1      2      3      4      5      6      7      8      9     10
         11     12     13     14     15     16     17     18     19     20
         21     22     23     24     25     26     27     28     29     30
 .........................................................................
   1  ****** ****** ****** ****** ****** ****** ****** ****** ****** ******
      ****** ****** ****** ****** ****** ****** ****** ****** ****** ******
      ****** ****** ****** ****** ****** ****** ****** ****** ****** ******
   2  ****** ****** ****** ****** ****** ****** ****** ****** ****** ******
      ****** ****** ****** ****** ****** ****** ****** ****** ****** ******
      ****** ****** ****** ****** ****** ****** ****** ****** ****** ******
   3  ****** ****** ****** ****** ****** ****** ****** ****** ****** ******
      ****** ****** ****** ****** ****** ****** ****** ****** ****** ******
      ****** ****** ****** ****** ****** ****** ****** ****** ****** ******
   4  ****** ****** ****** ****** ****** ****** ****** ****** ****** ******
      ****** ****** ****** ****** ****** ****** ****** ****** ****** ******
      ****** ****** ****** ****** ****** ****** ****** ****** ****** ******
   5  ****** ****** ****** ****** ****** ****** ****** ****** ****** ******
      ****** ****** ****** ****** ****** ****** ****** ****** ****** ******
      ****** ****** ****** ****** ****** ****** ****** ****** ****** ******
   6  ****** ****** ****** ****** ****** ****** ****** ****** ****** ******
      ****** ****** ****** ****** ****** ****** ****** ****** ****** ******
      ****** ****** ****** ****** ****** ****** ****** ****** ****** ******
   7  ****** ****** ****** ****** ****** ****** ****** ****** ****** ******
      ****** ****** ****** ****** ****** ****** ****** ****** ****** ******
      ****** ****** ****** ****** ****** ****** ****** ****** ****** ******
   8  ****** ****** ****** ****** ****** ****** ****** ****** ****** ******
      ****** ****** ****** ****** ****** ****** ****** ****** ****** ******
      ****** ****** ****** ****** ****** ****** ****** ****** ****** ******
   9  ****** ****** ****** ****** ****** ****** ****** ****** ****** ******
      ****** ****** ****** ****** ****** ****** ****** ****** ****** ******
      ****** ****** ****** ****** ****** ****** ****** ****** ****** ******
  10  ****** ****** ****** ****** ****** ****** ****** ****** ****** ******
      ****** ****** ****** ****** ****** ****** ****** ****** ****** ******
      ****** ****** ****** ****** ****** ****** ****** ****** ****** ******
  11  ****** ****** ****** ****** ****** ****** ****** ****** ****** ******
      ****** ****** ****** ****** ****** ****** ****** ****** ****** ******
      ****** ****** ****** ****** ****** ****** ****** ****** ****** ******
  12  ****** ****** ****** ****** ****** ****** ****** ****** ****** ******
      ****** ****** ****** ****** ****** ****** ****** ****** ****** ******
      ****** ****** ****** ****** ****** ****** ****** ****** ****** ******
  13  ****** ****** ****** ****** ****** ****** ****** ****** ****** ******
      ****** ****** ****** ****** ****** ****** ****** ****** ****** ******
      ****** ****** ****** ****** ****** ****** ****** ****** ****** ******
  14  ****** ****** ****** ****** ****** ****** ****** ****** ****** ******
      ****** ****** ****** ****** ****** ****** ****** ****** ****** ******
      ****** ****** ****** ****** ****** ****** ****** ****** ****** ******
  15  ****** ****** ****** ****** ****** ****** ****** ****** ****** ******
      ****** ****** ****** ****** ****** ****** ****** ****** ****** ******
      ****** ****** ****** ****** ****** ****** ****** ****** ****** ******
  16  ****** ****** ****** ****** ****** ****** ****** ****** ****** ******
      ****** ****** ****** ****** ****** ****** ****** ****** ****** ******
      ****** ****** ****** ****** ****** ****** ****** ****** ****** ******
  17  ****** ****** ****** ****** ****** ****** ****** ****** ****** ******
      ****** ****** ****** ****** ****** ****** ****** ****** ****** ******
      ****** ****** ****** ****** ****** ****** ****** ****** ****** ******
  18  ****** ****** ****** ****** ****** ****** ****** ****** ****** ******
      ****** ****** ****** ****** ****** ****** ****** ****** ****** ******
      ****** ****** ****** ****** ****** ****** ****** ****** ****** ******
  19  ****** ****** ****** ****** ****** ****** ****** ****** ****** ******
      ****** ****** ****** ****** ****** ****** ****** ****** ****** ******
      ****** ****** ****** ****** ****** ****** ****** ****** ****** ******
  20  ****** ****** ****** ****** ****** ****** ****** ****** ****** ******
      ****** ****** ****** ****** ****** ****** ****** ****** ****** ******
      ****** ****** ****** ****** ****** ****** ****** ****** ****** ******
  21  ****** ****** ****** ****** ****** ****** ****** ****** ****** ******
      ****** ****** ****** ****** ****** ****** ****** ****** ****** ******
      ****** ****** ****** ****** ****** ****** ****** ****** ****** ******
  22  ****** ****** ****** ****** ****** ****** ****** ****** ****** ******
      ****** ****** ****** ****** ****** ****** ****** ****** ****** ******
      ****** ****** ****** ****** ****** ****** ****** ****** ****** ******
  23  ****** ****** ****** ****** ****** ****** ****** ****** ****** ******
      ****** ****** ****** ****** ****** ****** ****** ****** ****** ******
      ****** ****** ****** ****** ****** ****** ****** ****** ****** ******
  24  ****** ****** ****** ****** ****** ****** ****** ****** ****** ******
      ****** ****** ****** ****** ****** ****** ****** ****** ****** ******
      ****** ****** ****** ****** ****** ****** ****** ****** ****** ******
  25  ****** ****** ****** ****** ****** ****** ****** ****** ****** ******
      ****** ****** ****** ****** ****** ****** ****** ****** ****** ******
      ****** ****** ****** ****** ****** ****** ****** ****** ****** ******

 HEAD WILL BE SAVED ON UNIT   51 AT END OF TIME STEP    1, STRESS PERIOD    2
1
  VOLUMETRIC BUDGET FOR ENTIRE MODEL AT END OF TIME STEP    1, STRESS PERIOD   2
  ------------------------------------------------------------------------------

     CUMULATIVE VOLUMES      L**3       RATES FOR THIS TIME STEP      L**3/T
     ------------------                 ------------------------

           IN:                                      IN:
           ---                                      ---
             STORAGE =    20981648.2862               STORAGE =       35789.4604
       CONSTANT HEAD =    28335336.3509         CONSTANT HEAD =      165795.9986
               WELLS =           0.0000                 WELLS =           0.0000
            RECHARGE =     6292800.0000              RECHARGE =       55200.0000
      STREAM LEAKAGE =     1030203.8571        STREAM LEAKAGE =        6288.3628

            TOTAL IN =    56639988.4941              TOTAL IN =      263073.8217

          OUT:                                     OUT:
          ----                                     ----
             STORAGE =           0.0000               STORAGE =           0.0000
       CONSTANT HEAD =           0.0000         CONSTANT HEAD =           0.0000
               WELLS =    18303927.6418                 WELLS =      100021.4625
            RECHARGE =           0.0000              RECHARGE =           0.0000
      STREAM LEAKAGE =    38336061.4680        STREAM LEAKAGE =      163052.3644

           TOTAL OUT =    56639989.1098             TOTAL OUT =      263073.8270

            IN - OUT =          -0.6156              IN - OUT =      -5.2598E-03

 PERCENT DISCREPANCY =          -0.00     PERCENT DISCREPANCY =          -0.00






         TIME SUMMARY AT END OF TIME STEP    1 IN STRESS PERIOD    2
                    SECONDS     MINUTES      HOURS       DAYS        YEARS
                    -----------------------------------------------------------
   TIME STEP LENGTH 7.86240E+06 1.31040E+05  2184.0      91.000     0.24914    
 STRESS PERIOD TIME 7.86240E+06 1.31040E+05  2184.0      91.000     0.24914    
         TOTAL TIME 1.58112E+07 2.63520E+05  4392.0      183.00     0.50103    
1
1
                            STRESS PERIOD NO.    3, LENGTH =   91.00000    
                            -----------------------------------------------

                              NUMBER OF TIME STEPS =     1

                               MULTIPLIER FOR DELT =     1.500

                            INITIAL TIME STEP SIZE =   91.00000    

 WELL NO.  LAYER   ROW   COL   STRESS RATE         
 --------------------------------------------------
      1      1     23      9     -0.3450E+05
      2      1      3      9     -0.3274E+05
      3      1      3     14     -0.3278E+05

      3 WELLS

                 RECHARGE =   0.00000    

 REUSING STREAM SEGMENT DATA FROM LAST STRESS PERIOD
 
 SOLVING FOR HEAD 


     7 CALLS TO PCG ROUTINE FOR TIME STEP   1 IN STRESS PERIOD    3
    27 TOTAL ITERATIONS

 OUTPUT CONTROL FOR STRESS PERIOD    3   TIME STEP    1
    SAVE BUDGET
    SAVE HEAD FOR ALL LAYERS
    PRINT HEAD FOR ALL LAYERS
 UBDSV2 SAVING "STREAMFLOW OUT  " ON UNIT  50 AT TIME STEP  1, STRESS PERIOD   3



 STREAM LISTING     PERIOD      3   STEP        1

 LAYER ROW COL. STREAM  RCH.  FLOW INTO     FLOW TO   FLOW OUT OF   OVRLND.     DIRECT     STREAM       STREAM     STREAM     STREAM   STREAMBED  STREAMBED
                SEG.NO.  NO.  STRM. RCH.    AQUIFER    STRM. RCH.    RUNOFF     PRECIP       ET          HEAD       DEPTH      WIDTH   CONDCTNC.   GRADIENT

   1   13    1     1     1    1.0000E+05 -2.4864E+03   1.0249E+05  0.000E+00  0.000E+00  0.000E+00  4.84071E+01  1.457E-01  2.000E+01  2.000E+04 -1.243E-01
   1   13    2     1     2    1.0249E+05 -4.2511E+03   1.0674E+05  0.000E+00  0.000E+00  0.000E+00  4.79327E+01  1.486E-01  2.000E+01  2.000E+04 -2.126E-01
   1   14    3     1     3    1.0674E+05 -3.3232E+03   1.1006E+05  0.000E+00  0.000E+00  0.000E+00  4.74586E+01  1.518E-01  2.000E+01  2.000E+04 -1.662E-01
   1   15    4     1     4    1.1006E+05 -3.1792E+03   1.1324E+05  0.000E+00  0.000E+00  0.000E+00  4.69841E+01  1.545E-01  2.000E+01  2.000E+04 -1.590E-01
   1   16    5     1     5    1.1324E+05 -3.3055E+03   1.1655E+05  0.000E+00  0.000E+00  0.000E+00  4.65095E+01  1.572E-01  2.000E+01  2.000E+04 -1.653E-01
   1   16    6     1     6    1.1655E+05 -2.5106E+03   1.1906E+05  0.000E+00  0.000E+00  0.000E+00  4.60346E+01  1.596E-01  2.000E+01  2.000E+04 -1.255E-01
   1   16    7     1     7    1.1906E+05 -2.4823E+03   1.2154E+05  0.000E+00  0.000E+00  0.000E+00  4.55593E+01  1.616E-01  2.000E+01  2.000E+04 -1.241E-01
   1   16    8     1     8    1.2154E+05 -2.4497E+03   1.2399E+05  0.000E+00  0.000E+00  0.000E+00  4.50840E+01  1.636E-01  2.000E+01  2.000E+04 -1.225E-01
   1   16    9     1     9    1.2399E+05 -2.4256E+03   1.2641E+05  0.000E+00  0.000E+00  0.000E+00  4.46087E+01  1.655E-01  2.000E+01  2.000E+04 -1.213E-01
   1   16   10     1    10    1.2641E+05 -2.4269E+03   1.2884E+05  0.000E+00  0.000E+00  0.000E+00  4.41334E+01  1.675E-01  2.000E+01  2.000E+04 -1.213E-01
   1   16   11     1    11    1.2884E+05 -2.4732E+03   1.3131E+05  0.000E+00  0.000E+00  0.000E+00  4.36580E+01  1.694E-01  2.000E+01  2.000E+04 -1.237E-01
   1   16   12     1    12    1.3131E+05 -3.5219E+03   1.3484E+05  0.000E+00  0.000E+00  0.000E+00  4.31831E+01  1.717E-01  2.000E+01  2.000E+04 -1.761E-01
   1   15   13     1    13    1.3484E+05 -3.4174E+03   1.3825E+05  0.000E+00  0.000E+00  0.000E+00  4.27085E+01  1.744E-01  2.000E+01  2.000E+04 -1.709E-01
   1   14   14     1    14    1.3825E+05 -3.4662E+03   1.4172E+05  0.000E+00  0.000E+00  0.000E+00  4.22338E+01  1.770E-01  2.000E+01  2.000E+04 -1.733E-01
   1   13   15     1    15    1.4172E+05 -3.6336E+03   1.4535E+05  0.000E+00  0.000E+00  0.000E+00  4.17592E+01  1.797E-01  2.000E+01  2.000E+04 -1.817E-01
   1   12   16     1    16    1.4535E+05 -4.4965E+03   1.4985E+05  0.000E+00  0.000E+00  0.000E+00  4.12850E+01  1.827E-01  2.000E+01  2.000E+04 -2.248E-01
   1   12   17     1    17    1.4985E+05 -3.1084E+03   1.5296E+05  0.000E+00  0.000E+00  0.000E+00  4.08105E+01  1.855E-01  2.000E+01  2.000E+04 -1.554E-01
   1   12   18     1    18    1.5296E+05 -3.0809E+03   1.5604E+05  0.000E+00  0.000E+00  0.000E+00  4.03355E+01  1.878E-01  2.000E+01  2.000E+04 -1.540E-01
   1   12   19     1    19    1.5604E+05 -4.1096E+03   1.6015E+05  0.000E+00  0.000E+00  0.000E+00  3.98609E+01  1.904E-01  2.000E+01  2.000E+04 -2.055E-01
   1   13   20     1    20    1.6015E+05 -2.8962E+03   1.6304E+05  0.000E+00  0.000E+00  0.000E+00  3.93861E+01  1.929E-01  2.000E+01  2.000E+04 -1.448E-01
   1   14   21     1    21    1.6304E+05 -2.3258E+03   1.6537E+05  0.000E+00  0.000E+00  0.000E+00  3.89107E+01  1.948E-01  2.000E+01  2.000E+04 -1.163E-01
   1   14   22     1    22    1.6537E+05  4.9985E+03   1.6037E+05  0.000E+00  0.000E+00  0.000E+00  3.84325E+01  1.938E-01  2.000E+01  2.000E+04  2.499E-01
   1    9   30     2     1    5.0000E+04 -2.6659E+03   5.2666E+04  0.000E+00  0.000E+00  0.000E+00  4.02427E+01  1.177E-01  2.000E+01  2.000E+04 -1.333E-01
   1    9   29     2     2    5.2666E+04 -2.9946E+03   5.5660E+04  0.000E+00  0.000E+00  0.000E+00  3.99966E+01  1.216E-01  2.000E+01  2.000E+04 -1.497E-01
   1    9   28     2     3    5.5660E+04 -3.3671E+03   5.9028E+04  0.000E+00  0.000E+00  0.000E+00  3.97508E+01  1.258E-01  2.000E+01  2.000E+04 -1.684E-01
   1    9   27     2     4    5.9028E+04 -6.0246E+03   6.5052E+04  0.000E+00  0.000E+00  0.000E+00  3.95069E+01  1.319E-01  2.000E+01  2.000E+04 -3.012E-01
   1   10   26     2     5    6.5052E+04 -3.6262E+03   6.8678E+04  0.000E+00  0.000E+00  0.000E+00  3.92629E+01  1.379E-01  2.000E+01  2.000E+04 -1.813E-01
   1   11   25     2     6    6.8678E+04 -2.5679E+03   7.1246E+04  0.000E+00  0.000E+00  0.000E+00  3.90167E+01  1.417E-01  2.000E+01  2.000E+04 -1.284E-01
   1   12   24     2     7    7.1246E+04 -1.7293E+03   7.2976E+04  0.000E+00  0.000E+00  0.000E+00  3.87693E+01  1.443E-01  2.000E+01  2.000E+04 -8.647E-02
   1   13   23     2     8    7.2976E+04 -9.5753E+02   7.3933E+04  0.000E+00  0.000E+00  0.000E+00  3.85209E+01  1.459E-01  2.000E+01  2.000E+04 -4.788E-02
   1   14   22     2     9    7.3933E+04  1.7584E+03   7.2175E+04  0.000E+00  0.000E+00  0.000E+00  3.82705E+01  1.455E-01  2.000E+01  2.000E+04  8.792E-02
   1   14   22     3     1    2.3255E+05 -8.5130E+03   2.4106E+05  0.000E+00  0.000E+00  0.000E+00  3.77569E+01  2.013E-01  2.000E+01  2.000E+04 -4.257E-01
   1   15   23     3     2    2.4106E+05 -3.0623E+03   2.4412E+05  0.000E+00  0.000E+00  0.000E+00  3.68709E+01  2.043E-01  2.000E+01  2.000E+04 -1.531E-01
   1   15   24     3     3    2.4412E+05 -2.0736E+03   2.4620E+05  0.000E+00  0.000E+00  0.000E+00  3.59834E+01  2.056E-01  2.000E+01  2.000E+04 -1.037E-01
   1   15   25     3     4    2.4620E+05 -1.9305E+03   2.4813E+05  0.000E+00  0.000E+00  0.000E+00  3.50955E+01  2.066E-01  2.000E+01  2.000E+04 -9.653E-02
   1   15   26     3     5    2.4813E+05 -2.2539E+03   2.5038E+05  0.000E+00  0.000E+00  0.000E+00  3.42076E+01  2.076E-01  2.000E+01  2.000E+04 -1.127E-01
   1   16   27     3     6    2.5038E+05 -3.2262E+03   2.5361E+05  0.000E+00  0.000E+00  0.000E+00  3.33201E+01  2.090E-01  2.000E+01  2.000E+04 -1.613E-01
   1   17   28     3     7    2.5361E+05 -4.0542E+03   2.5766E+05  0.000E+00  0.000E+00  0.000E+00  3.24330E+01  2.108E-01  2.000E+01  2.000E+04 -2.027E-01
   1   18   29     3     8    2.5766E+05 -5.7460E+03   2.6341E+05  0.000E+00  0.000E+00  0.000E+00  3.15465E+01  2.132E-01  2.000E+01  2.000E+04 -2.873E-01
   1   18   30     3     9    2.6341E+05 -4.7669E+03   2.6817E+05  0.000E+00  0.000E+00  0.000E+00  3.06602E+01  2.158E-01  2.000E+01  2.000E+04 -2.383E-01



1
              HEAD IN LAYER   1 AT END OF TIME STEP   1 IN STRESS PERIOD    3
  ---------------------------------------------------------------------------

          1      2      3      4      5      6      7      8      9     10
         11     12     13     14     15     16     17     18     19     20
         21     22     23     24     25     26     27     28     29     30
 .........................................................................
   1  ****** ****** ****** ****** ****** ****** ****** ****** ****** ******
      ****** ****** ****** ****** ****** ****** ****** ****** ****** ******
      ****** ****** ****** ****** ****** ****** ****** ****** ****** ******
   2  ****** ****** ****** ****** ****** ****** ****** ****** ****** ******
      ****** ****** ****** ****** ****** ****** ****** ****** ****** ******
      ****** ****** ****** ****** ****** ****** ****** ****** ****** ******
   3  ****** ****** ****** ****** ****** ****** ****** ****** ****** ******
      ****** ****** ****** ****** ****** ****** ****** ****** ****** ******
      ****** ****** ****** ****** ****** ****** ****** ****** ****** ******
   4  ****** ****** ****** ****** ****** ****** ****** ****** ****** ******
      ****** ****** ****** ****** ****** ****** ****** ****** ****** ******
      ****** ****** ****** ****** ****** ****** ****** ****** ****** ******
   5  ****** ****** ****** ****** ****** ****** ****** ****** ****** ******
      ****** ****** ****** ****** ****** ****** ****** ****** ****** ******
      ****** ****** ****** ****** ****** ****** ****** ****** ****** ******
   6  ****** ****** ****** ****** ****** ****** ****** ****** ****** ******
      ****** ****** ****** ****** ****** ****** ****** ****** ****** ******
      ****** ****** ****** ****** ****** ****** ****** ****** ****** ******
   7  ****** ****** ****** ****** ****** ****** ****** ****** ****** ******
      ****** ****** ****** ****** ****** ****** ****** ****** ****** ******
      ****** ****** ****** ****** ****** ****** ****** ****** ****** ******
   8  ****** ****** ****** ****** ****** ****** ****** ****** ****** ******
      ****** ****** ****** ****** ****** ****** ****** ****** ****** ******
      ****** ****** ****** ****** ****** ****** ****** ****** ****** ******
   9  ****** ****** ****** ****** ****** ****** ****** ****** ****** ******
      ****** ****** ****** ****** ****** ****** ****** ****** ****** ******
      ****** ****** ****** ****** ****** ****** ****** ****** ****** ******
  10  ****** ****** ****** ****** ****** ****** ****** ****** ****** ******
      ****** ****** ****** ****** ****** ****** ****** ****** ****** ******
      ****** ****** ****** ****** ****** ****** ****** ****** ****** ******
  11  ****** ****** ****** ****** ****** ****** ****** ****** ****** ******
      ****** ****** ****** ****** ****** ****** ****** ****** ****** ******
      ****** ****** ****** ****** ****** ****** ****** ****** ****** ******
  12  ****** ****** ****** ****** ****** ****** ****** ****** ****** ******
      ****** ****** ****** ****** ****** ****** ****** ****** ****** ******
      ****** ****** ****** ****** ****** ****** ****** ****** ****** ******
  13  ****** ****** ****** ****** ****** ****** ****** ****** ****** ******
      ****** ****** ****** ****** ****** ****** ****** ****** ****** ******
      ****** ****** ****** ****** ****** ****** ****** ****** ****** ******
  14  ****** ****** ****** ****** ****** ****** ****** ****** ****** ******
      ****** ****** ****** ****** ****** ****** ****** ****** ****** ******
      ****** ****** ****** ****** ****** ****** ****** ****** ****** ******
  15  ****** ****** ****** ****** ****** ****** ****** ****** ****** ******
      ****** ****** ****** ****** ****** ****** ****** ****** ****** ******
      ****** ****** ****** ****** ****** ****** ****** ****** ****** ******
  16  ****** ****** ****** ****** ****** ****** ****** ****** ****** ******
      ****** ****** ****** ****** ****** ****** ****** ****** ****** ******
      ****** ****** ****** ****** ****** ****** ****** ****** ****** ******
  17  ****** ****** ****** ****** ****** ****** ****** ****** ****** ******
      ****** ****** ****** ****** ****** ****** ****** ****** ****** ******
      ****** ****** ****** ****** ****** ****** ****** ****** ****** ******
  18  ****** ****** ****** ****** ****** ****** ****** ****** ****** ******
      ****** ****** ****** ****** ****** ****** ****** ****** ****** ******
      ****** ****** ****** ****** ****** ****** ****** ****** ****** ******
  19  ****** ****** ****** ****** ****** ****** ****** ****** ****** ******
      ****** ****** ****** ****** ****** ****** ****** ****** ****** ******
      ****** ****** ****** ****** ****** ****** ****** ****** ****** ******
  20  ****** ****** ****** ****** ****** ****** ****** ****** ****** ******
      ****** ****** ****** ****** ****** ****** ****** ****** ****** ******
      ****** ****** ****** ****** ****** ****** ****** ****** ****** ******
  21  ****** ****** ****** ****** ****** ****** ****** ****** ****** ******
      ****** ****** ****** ****** ****** ****** ****** ****** ****** ******
      ****** ****** ****** ****** ****** ****** ****** ****** ****** ******
  22  ****** ****** ****** ****** ****** ****** ****** ****** ****** ******
      ****** ****** ****** ****** ****** ****** ****** ****** ****** ******
      ****** ****** ****** ****** ****** ****** ****** ****** ****** ******
  23  ****** ****** ****** ****** ****** ****** ****** ****** ****** ******
      ****** ****** ****** ****** ****** ****** ****** ****** ****** ******
      ****** ****** ****** ****** ****** ****** ****** ****** ****** ******
  24  ****** ****** ****** ****** ****** ****** ****** ****** ****** ******
      ****** ****** ****** ****** ****** ****** ****** ****** ****** ******
      ****** ****** ****** ****** ****** ****** ****** ****** ****** ******
  25  ****** ****** ****** ****** ****** ****** ****** ****** ****** ******
      ****** ****** ****** ****** ****** ****** ****** ****** ****** ******
      ****** ****** ****** ****** ****** ****** ****** ****** ****** ******

 HEAD WILL BE SAVED ON UNIT   51 AT END OF TIME STEP    1, STRESS PERIOD    3
1
  VOLUMETRIC BUDGET FOR ENTIRE MODEL AT END OF TIME STEP    1, STRESS PERIOD   3
  ------------------------------------------------------------------------------

     CUMULATIVE VOLUMES      L**3       RATES FOR THIS TIME STEP      L**3/T
     ------------------                 ------------------------

           IN:                                      IN:
           ---                                      ---
             STORAGE =    23498300.1245               STORAGE =       27655.5147
       CONSTANT HEAD =    45674410.6208         CONSTANT HEAD =      190539.2777
               WELLS =           0.0000                 WELLS =           0.0000
            RECHARGE =     6292800.0000              RECHARGE =           0.0000
      STREAM LEAKAGE =     1645075.7886        STREAM LEAKAGE =        6756.8344

            TOTAL IN =    77110586.5340              TOTAL IN =      224951.6268

          OUT:                                     OUT:
          ----                                     ----
             STORAGE =           0.0000               STORAGE =           0.0000
       CONSTANT HEAD =           0.0000         CONSTANT HEAD =           0.0000
               WELLS =    27405880.7314                 WELLS =      100021.4625
            RECHARGE =           0.0000              RECHARGE =           0.0000
      STREAM LEAKAGE =    49704706.6727        STREAM LEAKAGE =      124930.1671

           TOTAL OUT =    77110587.4040             TOTAL OUT =      224951.6296

            IN - OUT =          -0.8701              IN - OUT =      -2.7958E-03

 PERCENT DISCREPANCY =          -0.00     PERCENT DISCREPANCY =          -0.00






         TIME SUMMARY AT END OF TIME STEP    1 IN STRESS PERIOD    3
                    SECONDS     MINUTES      HOURS       DAYS        YEARS
                    -----------------------------------------------------------
   TIME STEP LENGTH 7.86240E+06 1.31040E+05  2184.0      91.000     0.24914    
 STRESS PERIOD TIME 7.86240E+06 1.31040E+05  2184.0      91.000     0.24914    
         TOTAL TIME 2.36736E+07 3.94560E+05  6576.0      274.00     0.75017    
1
1
                            STRESS PERIOD NO.    4, LENGTH =   91.00000    
                            -----------------------------------------------

                              NUMBER OF TIME STEPS =     1

                               MULTIPLIER FOR DELT =     1.500

                            INITIAL TIME STEP SIZE =   91.00000    

 WELL NO.  LAYER   ROW   COL   STRESS RATE         
 --------------------------------------------------
      1      1     23      9     -0.3450E+05
      2      1      3      9     -0.3274E+05
      3      1      3     14     -0.3278E+05

      3 WELLS

                 RECHARGE =  1.000000E-03

 REUSING STREAM SEGMENT DATA FROM LAST STRESS PERIOD
 
 SOLVING FOR HEAD 


     5 CALLS TO PCG ROUTINE FOR TIME STEP   1 IN STRESS PERIOD    4
    18 TOTAL ITERATIONS

 OUTPUT CONTROL FOR STRESS PERIOD    4   TIME STEP    1
    SAVE BUDGET
    SAVE HEAD FOR ALL LAYERS
    PRINT HEAD FOR ALL LAYERS
 UBDSV2 SAVING "STREAMFLOW OUT  " ON UNIT  50 AT TIME STEP  1, STRESS PERIOD   4



 STREAM LISTING     PERIOD      4   STEP        1

 LAYER ROW COL. STREAM  RCH.  FLOW INTO     FLOW TO   FLOW OUT OF   OVRLND.     DIRECT     STREAM       STREAM     STREAM     STREAM   STREAMBED  STREAMBED
                SEG.NO.  NO.  STRM. RCH.    AQUIFER    STRM. RCH.    RUNOFF     PRECIP       ET          HEAD       DEPTH      WIDTH   CONDCTNC.   GRADIENT

   1   13    1     1     1    1.0000E+05 -2.4620E+03   1.0246E+05  0.000E+00  0.000E+00  0.000E+00  4.84071E+01  1.457E-01  2.000E+01  2.000E+04 -1.231E-01
   1   13    2     1     2    1.0246E+05 -4.1687E+03   1.0663E+05  0.000E+00  0.000E+00  0.000E+00  4.79327E+01  1.486E-01  2.000E+01  2.000E+04 -2.084E-01
   1   14    3     1     3    1.0663E+05 -3.3154E+03   1.0995E+05  0.000E+00  0.000E+00  0.000E+00  4.74585E+01  1.517E-01  2.000E+01  2.000E+04 -1.658E-01
   1   15    4     1     4    1.0995E+05 -3.1978E+03   1.1314E+05  0.000E+00  0.000E+00  0.000E+00  4.69840E+01  1.545E-01  2.000E+01  2.000E+04 -1.599E-01
   1   16    5     1     5    1.1314E+05 -3.3456E+03   1.1649E+05  0.000E+00  0.000E+00  0.000E+00  4.65094E+01  1.572E-01  2.000E+01  2.000E+04 -1.673E-01
   1   16    6     1     6    1.1649E+05 -2.5318E+03   1.1902E+05  0.000E+00  0.000E+00  0.000E+00  4.60346E+01  1.596E-01  2.000E+01  2.000E+04 -1.266E-01
   1   16    7     1     7    1.1902E+05 -2.4964E+03   1.2152E+05  0.000E+00  0.000E+00  0.000E+00  4.55593E+01  1.616E-01  2.000E+01  2.000E+04 -1.248E-01
   1   16    8     1     8    1.2152E+05 -2.4602E+03   1.2398E+05  0.000E+00  0.000E+00  0.000E+00  4.50840E+01  1.636E-01  2.000E+01  2.000E+04 -1.230E-01
   1   16    9     1     9    1.2398E+05 -2.4357E+03   1.2641E+05  0.000E+00  0.000E+00  0.000E+00  4.46087E+01  1.655E-01  2.000E+01  2.000E+04 -1.218E-01
   1   16   10     1    10    1.2641E+05 -2.4396E+03   1.2885E+05  0.000E+00  0.000E+00  0.000E+00  4.41334E+01  1.675E-01  2.000E+01  2.000E+04 -1.220E-01
   1   16   11     1    11    1.2885E+05 -2.4912E+03   1.3134E+05  0.000E+00  0.000E+00  0.000E+00  4.36580E+01  1.694E-01  2.000E+01  2.000E+04 -1.246E-01
   1   16   12     1    12    1.3134E+05 -3.5496E+03   1.3489E+05  0.000E+00  0.000E+00  0.000E+00  4.31831E+01  1.717E-01  2.000E+01  2.000E+04 -1.775E-01
   1   15   13     1    13    1.3489E+05 -3.4263E+03   1.3832E+05  0.000E+00  0.000E+00  0.000E+00  4.27085E+01  1.744E-01  2.000E+01  2.000E+04 -1.713E-01
   1   14   14     1    14    1.3832E+05 -3.4595E+03   1.4178E+05  0.000E+00  0.000E+00  0.000E+00  4.22339E+01  1.770E-01  2.000E+01  2.000E+04 -1.730E-01
   1   13   15     1    15    1.4178E+05 -3.6141E+03   1.4539E+05  0.000E+00  0.000E+00  0.000E+00  4.17593E+01  1.797E-01  2.000E+01  2.000E+04 -1.807E-01
   1   12   16     1    16    1.4539E+05 -4.4314E+03   1.4983E+05  0.000E+00  0.000E+00  0.000E+00  4.12850E+01  1.827E-01  2.000E+01  2.000E+04 -2.216E-01
   1   12   17     1    17    1.4983E+05 -3.1102E+03   1.5294E+05  0.000E+00  0.000E+00  0.000E+00  4.08105E+01  1.855E-01  2.000E+01  2.000E+04 -1.555E-01
   1   12   18     1    18    1.5294E+05 -3.0974E+03   1.5603E+05  0.000E+00  0.000E+00  0.000E+00  4.03355E+01  1.878E-01  2.000E+01  2.000E+04 -1.549E-01
   1   12   19     1    19    1.5603E+05 -4.1363E+03   1.6017E+05  0.000E+00  0.000E+00  0.000E+00  3.98609E+01  1.904E-01  2.000E+01  2.000E+04 -2.068E-01
   1   13   20     1    20    1.6017E+05 -2.9755E+03   1.6314E+05  0.000E+00  0.000E+00  0.000E+00  3.93861E+01  1.930E-01  2.000E+01  2.000E+04 -1.488E-01
   1   14   21     1    21    1.6314E+05 -2.3950E+03   1.6554E+05  0.000E+00  0.000E+00  0.000E+00  3.89108E+01  1.949E-01  2.000E+01  2.000E+04 -1.197E-01
   1   14   22     1    22    1.6554E+05  4.9620E+03   1.6058E+05  0.000E+00  0.000E+00  0.000E+00  3.84326E+01  1.940E-01  2.000E+01  2.000E+04  2.481E-01
   1    9   30     2     1    5.0000E+04 -2.7746E+03   5.2775E+04  0.000E+00  0.000E+00  0.000E+00  4.02428E+01  1.178E-01  2.000E+01  2.000E+04 -1.387E-01
   1    9   29     2     2    5.2775E+04 -3.1012E+03   5.5876E+04  0.000E+00  0.000E+00  0.000E+00  3.99968E+01  1.218E-01  2.000E+01  2.000E+04 -1.551E-01
   1    9   28     2     3    5.5876E+04 -3.4681E+03   5.9344E+04  0.000E+00  0.000E+00  0.000E+00  3.97511E+01  1.261E-01  2.000E+01  2.000E+04 -1.734E-01
   1    9   27     2     4    5.9344E+04 -6.1208E+03   6.5465E+04  0.000E+00  0.000E+00  0.000E+00  3.95073E+01  1.323E-01  2.000E+01  2.000E+04 -3.060E-01
   1   10   26     2     5    6.5465E+04 -3.7406E+03   6.9205E+04  0.000E+00  0.000E+00  0.000E+00  3.92635E+01  1.385E-01  2.000E+01  2.000E+04 -1.870E-01
   1   11   25     2     6    6.9205E+04 -2.6827E+03   7.1888E+04  0.000E+00  0.000E+00  0.000E+00  3.90174E+01  1.424E-01  2.000E+01  2.000E+04 -1.341E-01
   1   12   24     2     7    7.1888E+04 -1.8423E+03   7.3730E+04  0.000E+00  0.000E+00  0.000E+00  3.87702E+01  1.452E-01  2.000E+01  2.000E+04 -9.212E-02
   1   13   23     2     8    7.3730E+04 -1.0616E+03   7.4792E+04  0.000E+00  0.000E+00  0.000E+00  3.85219E+01  1.469E-01  2.000E+01  2.000E+04 -5.308E-02
   1   14   22     2     9    7.4792E+04  1.7399E+03   7.3052E+04  0.000E+00  0.000E+00  0.000E+00  3.82715E+01  1.465E-01  2.000E+01  2.000E+04  8.700E-02
   1   14   22     3     1    2.3363E+05 -8.5410E+03   2.4217E+05  0.000E+00  0.000E+00  0.000E+00  3.77575E+01  2.019E-01  2.000E+01  2.000E+04 -4.270E-01
   1   15   23     3     2    2.4217E+05 -3.1367E+03   2.4531E+05  0.000E+00  0.000E+00  0.000E+00  3.68715E+01  2.049E-01  2.000E+01  2.000E+04 -1.568E-01
   1   15   24     3     3    2.4531E+05 -2.1571E+03   2.4746E+05  0.000E+00  0.000E+00  0.000E+00  3.59840E+01  2.062E-01  2.000E+01  2.000E+04 -1.079E-01
   1   15   25     3     4    2.4746E+05 -2.0263E+03   2.4949E+05  0.000E+00  0.000E+00  0.000E+00  3.50961E+01  2.072E-01  2.000E+01  2.000E+04 -1.013E-01
   1   15   26     3     5    2.4949E+05 -2.3833E+03   2.5187E+05  0.000E+00  0.000E+00  0.000E+00  3.42083E+01  2.083E-01  2.000E+01  2.000E+04 -1.192E-01
   1   16   27     3     6    2.5187E+05 -3.3655E+03   2.5524E+05  0.000E+00  0.000E+00  0.000E+00  3.33209E+01  2.098E-01  2.000E+01  2.000E+04 -1.683E-01
   1   17   28     3     7    2.5524E+05 -4.1941E+03   2.5943E+05  0.000E+00  0.000E+00  0.000E+00  3.24339E+01  2.116E-01  2.000E+01  2.000E+04 -2.097E-01
   1   18   29     3     8    2.5943E+05 -5.8713E+03   2.6530E+05  0.000E+00  0.000E+00  0.000E+00  3.15474E+01  2.141E-01  2.000E+01  2.000E+04 -2.936E-01
   1   18   30     3     9    2.6530E+05 -4.8775E+03   2.7018E+05  0.000E+00  0.000E+00  0.000E+00  3.06612E+01  2.167E-01  2.000E+01  2.000E+04 -2.439E-01



1
              HEAD IN LAYER   1 AT END OF TIME STEP   1 IN STRESS PERIOD    4
  ---------------------------------------------------------------------------

          1      2      3      4      5      6      7      8      9     10
         11     12     13     14     15     16     17     18     19     20
         21     22     23     24     25     26     27     28     29     30
 .........................................................................
   1  ****** ****** ****** ****** ****** ****** ****** ****** ****** ******
      ****** ****** ****** ****** ****** ****** ****** ****** ****** ******
      ****** ****** ****** ****** ****** ****** ****** ****** ****** ******
   2  ****** ****** ****** ****** ****** ****** ****** ****** ****** ******
      ****** ****** ****** ****** ****** ****** ****** ****** ****** ******
      ****** ****** ****** ****** ****** ****** ****** ****** ****** ******
   3  ****** ****** ****** ****** ****** ****** ****** ****** ****** ******
      ****** ****** ****** ****** ****** ****** ****** ****** ****** ******
      ****** ****** ****** ****** ****** ****** ****** ****** ****** ******
   4  ****** ****** ****** ****** ****** ****** ****** ****** ****** ******
      ****** ****** ****** ****** ****** ****** ****** ****** ****** ******
      ****** ****** ****** ****** ****** ****** ****** ****** ****** ******
   5  ****** ****** ****** ****** ****** ****** ****** ****** ****** ******
      ****** ****** ****** ****** ****** ****** ****** ****** ****** ******
      ****** ****** ****** ****** ****** ****** ****** ****** ****** ******
   6  ****** ****** ****** ****** ****** ****** ****** ****** ****** ******
      ****** ****** ****** ****** ****** ****** ****** ****** ****** ******
      ****** ****** ****** ****** ****** ****** ****** ****** ****** ******
   7  ****** ****** ****** ****** ****** ****** ****** ****** ****** ******
      ****** ****** ****** ****** ****** ****** ****** ****** ****** ******
      ****** ****** ****** ****** ****** ****** ****** ****** ****** ******
   8  ****** ****** ****** ****** ****** ****** ****** ****** ****** ******
      ****** ****** ****** ****** ****** ****** ****** ****** ****** ******
      ****** ****** ****** ****** ****** ****** ****** ****** ****** ******
   9  ****** ****** ****** ****** ****** ****** ****** ****** ****** ******
      ****** ****** ****** ****** ****** ****** ****** ****** ****** ******
      ****** ****** ****** ****** ****** ****** ****** ****** ****** ******
  10  ****** ****** ****** ****** ****** ****** ****** ****** ****** ******
      ****** ****** ****** ****** ****** ****** ****** ****** ****** ******
      ****** ****** ****** ****** ****** ****** ****** ****** ****** ******
  11  ****** ****** ****** ****** ****** ****** ****** ****** ****** ******
      ****** ****** ****** ****** ****** ****** ****** ****** ****** ******
      ****** ****** ****** ****** ****** ****** ****** ****** ****** ******
  12  ****** ****** ****** ****** ****** ****** ****** ****** ****** ******
      ****** ****** ****** ****** ****** ****** ****** ****** ****** ******
      ****** ****** ****** ****** ****** ****** ****** ****** ****** ******
  13  ****** ****** ****** ****** ****** ****** ****** ****** ****** ******
      ****** ****** ****** ****** ****** ****** ****** ****** ****** ******
      ****** ****** ****** ****** ****** ****** ****** ****** ****** ******
  14  ****** ****** ****** ****** ****** ****** ****** ****** ****** ******
      ****** ****** ****** ****** ****** ****** ****** ****** ****** ******
      ****** ****** ****** ****** ****** ****** ****** ****** ****** ******
  15  ****** ****** ****** ****** ****** ****** ****** ****** ****** ******
      ****** ****** ****** ****** ****** ****** ****** ****** ****** ******
      ****** ****** ****** ****** ****** ****** ****** ****** ****** ******
  16  ****** ****** ****** ****** ****** ****** ****** ****** ****** ******
      ****** ****** ****** ****** ****** ****** ****** ****** ****** ******
      ****** ****** ****** ****** ****** ****** ****** ****** ****** ******
  17  ****** ****** ****** ****** ****** ****** ****** ****** ****** ******
      ****** ****** ****** ****** ****** ****** ****** ****** ****** ******
      ****** ****** ****** ****** ****** ****** ****** ****** ****** ******
  18  ****** ****** ****** ****** ****** ****** ****** ****** ****** ******
      ****** ****** ****** ****** ****** ****** ****** ****** ****** ******
      ****** ****** ****** ****** ****** ****** ****** ****** ****** ******
  19  ****** ****** ****** ****** ****** ****** ****** ****** ****** ******
      ****** ****** ****** ****** ****** ****** ****** ****** ****** ******
      ****** ****** ****** ****** ****** ****** ****** ****** ****** ******
  20  ****** ****** ****** ****** ****** ****** ****** ****** ****** ******
      ****** ****** ****** ****** ****** ****** ****** ****** ****** ******
      ****** ****** ****** ****** ****** ****** ****** ****** ****** ******
  21  ****** ****** ****** ****** ****** ****** ****** ****** ****** ******
      ****** ****** ****** ****** ****** ****** ****** ****** ****** ******
      ****** ****** ****** ****** ****** ****** ****** ****** ****** ******
  22  ****** ****** ****** ****** ****** ****** ****** ****** ****** ******
      ****** ****** ****** ****** ****** ****** ****** ****** ****** ******
      ****** ****** ****** ****** ****** ****** ****** ****** ****** ******
  23  ****** ****** ****** ****** ****** ****** ****** ****** ****** ******
      ****** ****** ****** ****** ****** ****** ****** ****** ****** ******
      ****** ****** ****** ****** ****** ****** ****** ****** ****** ******
  24  ****** ****** ****** ****** ****** ****** ****** ****** ****** ******
      ****** ****** ****** ****** ****** ****** ****** ****** ****** ******
      ****** ****** ****** ****** ****** ****** ****** ****** ****** ******
  25  ****** ****** ****** ****** ****** ****** ****** ****** ****** ******
      ****** ****** ****** ****** ****** ****** ****** ****** ****** ******
      ****** ****** ****** ****** ****** ****** ****** ****** ****** ******

 HEAD WILL BE SAVED ON UNIT   51 AT END OF TIME STEP    1, STRESS PERIOD    4
1
  VOLUMETRIC BUDGET FOR ENTIRE MODEL AT END OF TIME STEP    1, STRESS PERIOD   4
  ------------------------------------------------------------------------------

     CUMULATIVE VOLUMES      L**3       RATES FOR THIS TIME STEP      L**3/T
     ------------------                 ------------------------

           IN:                                      IN:
           ---                                      ---
             STORAGE =    23709638.3873               STORAGE =        2322.3985
       CONSTANT HEAD =    63015663.4238         CONSTANT HEAD =      190563.2176
               WELLS =           0.0000                 WELLS =           0.0000
            RECHARGE =     8804400.0000              RECHARGE =       27600.0000
      STREAM LEAKAGE =     2254950.2715        STREAM LEAKAGE =        6701.9174

            TOTAL IN =    97784652.0827              TOTAL IN =      227187.5335

          OUT:                                     OUT:
          ----                                     ----
             STORAGE =       25653.4123               STORAGE =         281.9056
       CONSTANT HEAD =           0.0000         CONSTANT HEAD =           0.0000
               WELLS =    36507833.8210                 WELLS =      100021.4625
            RECHARGE =           0.0000              RECHARGE =           0.0000
      STREAM LEAKAGE =    61251165.6860        STREAM LEAKAGE =      126884.1650

           TOTAL OUT =    97784652.9193             TOTAL OUT =      227187.5331

            IN - OUT =          -0.8366              IN - OUT =       3.6755E-04

 PERCENT DISCREPANCY =          -0.00     PERCENT DISCREPANCY =           0.00






         TIME SUMMARY AT END OF TIME STEP    1 IN STRESS PERIOD    4
                    SECONDS     MINUTES      HOURS       DAYS        YEARS
                    -----------------------------------------------------------
   TIME STEP LENGTH 7.86240E+06 1.31040E+05  2184.0      91.000     0.24914    
 STRESS PERIOD TIME 7.86240E+06 1.31040E+05  2184.0      91.000     0.24914    
         TOTAL TIME 3.15360E+07 5.25600E+05  8760.0      365.00     0.99932    
1
1
                            STRESS PERIOD NO.    5, LENGTH =   92.00000    
                            -----------------------------------------------

                              NUMBER OF TIME STEPS =     1

                               MULTIPLIER FOR DELT =     1.500

                            INITIAL TIME STEP SIZE =   92.00000    

 WELL NO.  LAYER   ROW   COL   STRESS RATE         
 --------------------------------------------------
      1      1     23      9     -0.3450E+05
      2      1      3      9     -0.3274E+05
      3      1      3     14     -0.3278E+05

      3 WELLS

                 RECHARGE =  5.000000E-04

 REUSING STREAM SEGMENT DATA FROM LAST STRESS PERIOD
 
 SOLVING FOR HEAD 


     6 CALLS TO PCG ROUTINE FOR TIME STEP   1 IN STRESS PERIOD    5
    23 TOTAL ITERATIONS

 OUTPUT CONTROL FOR STRESS PERIOD    5   TIME STEP    1
    SAVE BUDGET
    SAVE HEAD FOR ALL LAYERS
    PRINT HEAD FOR ALL LAYERS
 UBDSV2 SAVING "STREAMFLOW OUT  " ON UNIT  50 AT TIME STEP  1, STRESS PERIOD   5



 STREAM LISTING     PERIOD      5   STEP        1

 LAYER ROW COL. STREAM  RCH.  FLOW INTO     FLOW TO   FLOW OUT OF   OVRLND.     DIRECT     STREAM       STREAM     STREAM     STREAM   STREAMBED  STREAMBED
                SEG.NO.  NO.  STRM. RCH.    AQUIFER    STRM. RCH.    RUNOFF     PRECIP       ET          HEAD       DEPTH      WIDTH   CONDCTNC.   GRADIENT

   1   13    1     1     1    1.0000E+05 -2.2664E+03   1.0227E+05  0.000E+00  0.000E+00  0.000E+00  4.84070E+01  1.456E-01  2.000E+01  2.000E+04 -1.133E-01
   1   13    2     1     2    1.0227E+05 -3.8927E+03   1.0616E+05  0.000E+00  0.000E+00  0.000E+00  4.79324E+01  1.483E-01  2.000E+01  2.000E+04 -1.946E-01
   1   14    3     1     3    1.0616E+05 -3.0663E+03   1.0923E+05  0.000E+00  0.000E+00  0.000E+00  4.74580E+01  1.512E-01  2.000E+01  2.000E+04 -1.533E-01
   1   15    4     1     4    1.0923E+05 -2.9648E+03   1.1219E+05  0.000E+00  0.000E+00  0.000E+00  4.69833E+01  1.538E-01  2.000E+01  2.000E+04 -1.482E-01
   1   16    5     1     5    1.1219E+05 -3.1476E+03   1.1534E+05  0.000E+00  0.000E+00  0.000E+00  4.65086E+01  1.563E-01  2.000E+01  2.000E+04 -1.574E-01
   1   16    6     1     6    1.1534E+05 -2.3661E+03   1.1770E+05  0.000E+00  0.000E+00  0.000E+00  4.60336E+01  1.586E-01  2.000E+01  2.000E+04 -1.183E-01
   1   16    7     1     7    1.1770E+05 -2.3250E+03   1.2003E+05  0.000E+00  0.000E+00  0.000E+00  4.55582E+01  1.605E-01  2.000E+01  2.000E+04 -1.163E-01
   1   16    8     1     8    1.2003E+05 -2.2860E+03   1.2231E+05  0.000E+00  0.000E+00  0.000E+00  4.50828E+01  1.623E-01  2.000E+01  2.000E+04 -1.143E-01
   1   16    9     1     9    1.2231E+05 -2.2616E+03   1.2458E+05  0.000E+00  0.000E+00  0.000E+00  4.46073E+01  1.641E-01  2.000E+01  2.000E+04 -1.131E-01
   1   16   10     1    10    1.2458E+05 -2.2684E+03   1.2685E+05  0.000E+00  0.000E+00  0.000E+00  4.41318E+01  1.659E-01  2.000E+01  2.000E+04 -1.134E-01
   1   16   11     1    11    1.2685E+05 -2.3252E+03   1.2917E+05  0.000E+00  0.000E+00  0.000E+00  4.36564E+01  1.678E-01  2.000E+01  2.000E+04 -1.163E-01
   1   16   12     1    12    1.2917E+05 -3.3455E+03   1.3252E+05  0.000E+00  0.000E+00  0.000E+00  4.31813E+01  1.700E-01  2.000E+01  2.000E+04 -1.673E-01
   1   15   13     1    13    1.3252E+05 -3.1893E+03   1.3571E+05  0.000E+00  0.000E+00  0.000E+00  4.27066E+01  1.725E-01  2.000E+01  2.000E+04 -1.595E-01
   1   14   14     1    14    1.3571E+05 -3.2108E+03   1.3892E+05  0.000E+00  0.000E+00  0.000E+00  4.22318E+01  1.750E-01  2.000E+01  2.000E+04 -1.605E-01
   1   13   15     1    15    1.3892E+05 -3.3633E+03   1.4228E+05  0.000E+00  0.000E+00  0.000E+00  4.17570E+01  1.775E-01  2.000E+01  2.000E+04 -1.682E-01
   1   12   16     1    16    1.4228E+05 -4.1761E+03   1.4646E+05  0.000E+00  0.000E+00  0.000E+00  4.12826E+01  1.803E-01  2.000E+01  2.000E+04 -2.088E-01
   1   12   17     1    17    1.4646E+05 -2.9377E+03   1.4939E+05  0.000E+00  0.000E+00  0.000E+00  4.08080E+01  1.830E-01  2.000E+01  2.000E+04 -1.469E-01
   1   12   18     1    18    1.4939E+05 -2.9337E+03   1.5233E+05  0.000E+00  0.000E+00  0.000E+00  4.03329E+01  1.851E-01  2.000E+01  2.000E+04 -1.467E-01
   1   12   19     1    19    1.5233E+05 -3.9404E+03   1.5627E+05  0.000E+00  0.000E+00  0.000E+00  3.98581E+01  1.876E-01  2.000E+01  2.000E+04 -1.970E-01
   1   13   20     1    20    1.5627E+05 -2.8008E+03   1.5907E+05  0.000E+00  0.000E+00  0.000E+00  3.93833E+01  1.901E-01  2.000E+01  2.000E+04 -1.400E-01
   1   14   21     1    21    1.5907E+05 -2.2378E+03   1.6131E+05  0.000E+00  0.000E+00  0.000E+00  3.89078E+01  1.919E-01  2.000E+01  2.000E+04 -1.119E-01
   1   14   22     1    22    1.6131E+05  4.9858E+03   1.5632E+05  0.000E+00  0.000E+00  0.000E+00  3.84296E+01  1.909E-01  2.000E+01  2.000E+04  2.493E-01
   1    9   30     2     1    5.0000E+04 -2.6575E+03   5.2658E+04  0.000E+00  0.000E+00  0.000E+00  4.02427E+01  1.177E-01  2.000E+01  2.000E+04 -1.329E-01
   1    9   29     2     2    5.2658E+04 -2.9842E+03   5.5642E+04  0.000E+00  0.000E+00  0.000E+00  3.99965E+01  1.215E-01  2.000E+01  2.000E+04 -1.492E-01
   1    9   28     2     3    5.5642E+04 -3.3497E+03   5.8991E+04  0.000E+00  0.000E+00  0.000E+00  3.97508E+01  1.258E-01  2.000E+01  2.000E+04 -1.675E-01
   1    9   27     2     4    5.8991E+04 -5.9533E+03   6.4945E+04  0.000E+00  0.000E+00  0.000E+00  3.95068E+01  1.318E-01  2.000E+01  2.000E+04 -2.977E-01
   1   10   26     2     5    6.4945E+04 -3.5684E+03   6.8513E+04  0.000E+00  0.000E+00  0.000E+00  3.92628E+01  1.378E-01  2.000E+01  2.000E+04 -1.784E-01
   1   11   25     2     6    6.8513E+04 -2.5166E+03   7.1030E+04  0.000E+00  0.000E+00  0.000E+00  3.90165E+01  1.415E-01  2.000E+01  2.000E+04 -1.258E-01
   1   12   24     2     7    7.1030E+04 -1.6945E+03   7.2724E+04  0.000E+00  0.000E+00  0.000E+00  3.87691E+01  1.441E-01  2.000E+01  2.000E+04 -8.473E-02
   1   13   23     2     8    7.2724E+04 -9.4618E+02   7.3670E+04  0.000E+00  0.000E+00  0.000E+00  3.85206E+01  1.456E-01  2.000E+01  2.000E+04 -4.731E-02
   1   14   22     2     9    7.3670E+04  1.7972E+03   7.1873E+04  0.000E+00  0.000E+00  0.000E+00  3.82701E+01  1.451E-01  2.000E+01  2.000E+04  8.986E-02
   1   14   22     3     1    2.2819E+05 -8.5120E+03   2.3670E+05  0.000E+00  0.000E+00  0.000E+00  3.77547E+01  1.991E-01  2.000E+01  2.000E+04 -4.256E-01
   1   15   23     3     2    2.3670E+05 -2.9937E+03   2.3970E+05  0.000E+00  0.000E+00  0.000E+00  3.68687E+01  2.021E-01  2.000E+01  2.000E+04 -1.497E-01
   1   15   24     3     3    2.3970E+05 -2.0578E+03   2.4176E+05  0.000E+00  0.000E+00  0.000E+00  3.59811E+01  2.033E-01  2.000E+01  2.000E+04 -1.029E-01
   1   15   25     3     4    2.4176E+05 -1.9295E+03   2.4369E+05  0.000E+00  0.000E+00  0.000E+00  3.50932E+01  2.043E-01  2.000E+01  2.000E+04 -9.647E-02
   1   15   26     3     5    2.4369E+05 -2.2634E+03   2.4595E+05  0.000E+00  0.000E+00  0.000E+00  3.42054E+01  2.054E-01  2.000E+01  2.000E+04 -1.132E-01
   1   16   27     3     6    2.4595E+05 -3.2125E+03   2.4916E+05  0.000E+00  0.000E+00  0.000E+00  3.33179E+01  2.068E-01  2.000E+01  2.000E+04 -1.606E-01
   1   17   28     3     7    2.4916E+05 -4.0379E+03   2.5320E+05  0.000E+00  0.000E+00  0.000E+00  3.24308E+01  2.086E-01  2.000E+01  2.000E+04 -2.019E-01
   1   18   29     3     8    2.5320E+05 -5.7244E+03   2.5892E+05  0.000E+00  0.000E+00  0.000E+00  3.15443E+01  2.110E-01  2.000E+01  2.000E+04 -2.862E-01
   1   18   30     3     9    2.5892E+05 -4.7689E+03   2.6369E+05  0.000E+00  0.000E+00  0.000E+00  3.06580E+01  2.136E-01  2.000E+01  2.000E+04 -2.384E-01



1
              HEAD IN LAYER   1 AT END OF TIME STEP   1 IN STRESS PERIOD    5
  ---------------------------------------------------------------------------

          1      2      3      4      5      6      7      8      9     10
         11     12     13     14     15     16     17     18     19     20
         21     22     23     24     25     26     27     28     29     30
 .........................................................................
   1  ****** ****** ****** ****** ****** ****** ****** ****** ****** ******
      ****** ****** ****** ****** ****** ****** ****** ****** ****** ******
      ****** ****** ****** ****** ****** ****** ****** ****** ****** ******
   2  ****** ****** ****** ****** ****** ****** ****** ****** ****** ******
      ****** ****** ****** ****** ****** ****** ****** ****** ****** ******
      ****** ****** ****** ****** ****** ****** ****** ****** ****** ******
   3  ****** ****** ****** ****** ****** ****** ****** ****** ****** ******
      ****** ****** ****** ****** ****** ****** ****** ****** ****** ******
      ****** ****** ****** ****** ****** ****** ****** ****** ****** ******
   4  ****** ****** ****** ****** ****** ****** ****** ****** ****** ******
      ****** ****** ****** ****** ****** ****** ****** ****** ****** ******
      ****** ****** ****** ****** ****** ****** ****** ****** ****** ******
   5  ****** ****** ****** ****** ****** ****** ****** ****** ****** ******
      ****** ****** ****** ****** ****** ****** ****** ****** ****** ******
      ****** ****** ****** ****** ****** ****** ****** ****** ****** ******
   6  ****** ****** ****** ****** ****** ****** ****** ****** ****** ******
      ****** ****** ****** ****** ****** ****** ****** ****** ****** ******
      ****** ****** ****** ****** ****** ****** ****** ****** ****** ******
   7  ****** ****** ****** ****** ****** ****** ****** ****** ****** ******
      ****** ****** ****** ****** ****** ****** ****** ****** ****** ******
      ****** ****** ****** ****** ****** ****** ****** ****** ****** ******
   8  ****** ****** ****** ****** ****** ****** ****** ****** ****** ******
      ****** ****** ****** ****** ****** ****** ****** ****** ****** ******
      ****** ****** ****** ****** ****** ****** ****** ****** ****** ******
   9  ****** ****** ****** ****** ****** ****** ****** ****** ****** ******
      ****** ****** ****** ****** ****** ****** ****** ****** ****** ******
      ****** ****** ****** ****** ****** ****** ****** ****** ****** ******
  10  ****** ****** ****** ****** ****** ****** ****** ****** ****** ******
      ****** ****** ****** ****** ****** ****** ****** ****** ****** ******
      ****** ****** ****** ****** ****** ****** ****** ****** ****** ******
  11  ****** ****** ****** ****** ****** ****** ****** ****** ****** ******
      ****** ****** ****** ****** ****** ****** ****** ****** ****** ******
      ****** ****** ****** ****** ****** ****** ****** ****** ****** ******
  12  ****** ****** ****** ****** ****** ****** ****** ****** ****** ******
      ****** ****** ****** ****** ****** ****** ****** ****** ****** ******
      ****** ****** ****** ****** ****** ****** ****** ****** ****** ******
  13  ****** ****** ****** ****** ****** ****** ****** ****** ****** ******
      ****** ****** ****** ****** ****** ****** ****** ****** ****** ******
      ****** ****** ****** ****** ****** ****** ****** ****** ****** ******
  14  ****** ****** ****** ****** ****** ****** ****** ****** ****** ******
      ****** ****** ****** ****** ****** ****** ****** ****** ****** ******
      ****** ****** ****** ****** ****** ****** ****** ****** ****** ******
  15  ****** ****** ****** ****** ****** ****** ****** ****** ****** ******
      ****** ****** ****** ****** ****** ****** ****** ****** ****** ******
      ****** ****** ****** ****** ****** ****** ****** ****** ****** ******
  16  ****** ****** ****** ****** ****** ****** ****** ****** ****** ******
      ****** ****** ****** ****** ****** ****** ****** ****** ****** ******
      ****** ****** ****** ****** ****** ****** ****** ****** ****** ******
  17  ****** ****** ****** ****** ****** ****** ****** ****** ****** ******
      ****** ****** ****** ****** ****** ****** ****** ****** ****** ******
      ****** ****** ****** ****** ****** ****** ****** ****** ****** ******
  18  ****** ****** ****** ****** ****** ****** ****** ****** ****** ******
      ****** ****** ****** ****** ****** ****** ****** ****** ****** ******
      ****** ****** ****** ****** ****** ****** ****** ****** ****** ******
  19  ****** ****** ****** ****** ****** ****** ****** ****** ****** ******
      ****** ****** ****** ****** ****** ****** ****** ****** ****** ******
      ****** ****** ****** ****** ****** ****** ****** ****** ****** ******
  20  ****** ****** ****** ****** ****** ****** ****** ****** ****** ******
      ****** ****** ****** ****** ****** ****** ****** ****** ****** ******
      ****** ****** ****** ****** ****** ****** ****** ****** ****** ******
  21  ****** ****** ****** ****** ****** ****** ****** ****** ****** ******
      ****** ****** ****** ****** ****** ****** ****** ****** ****** ******
      ****** ****** ****** ****** ****** ****** ****** ****** ****** ******
  22  ****** ****** ****** ****** ****** ****** ****** ****** ****** ******
      ****** ****** ****** ****** ****** ****** ****** ****** ****** ******
      ****** ****** ****** ****** ****** ****** ****** ****** ****** ******
  23  ****** ****** ****** ****** ****** ****** ****** ****** ****** ******
      ****** ****** ****** ****** ****** ****** ****** ****** ****** ******
      ****** ****** ****** ****** ****** ****** ****** ****** ****** ******
  24  ****** ****** ****** ****** ****** ****** ****** ****** ****** ******
      ****** ****** ****** ****** ****** ****** ****** ****** ****** ******
      ****** ****** ****** ****** ****** ****** ****** ****** ****** ******
  25  ****** ****** ****** ****** ****** ****** ****** ****** ****** ******
      ****** ****** ****** ****** ****** ****** ****** ****** ****** ******
      ****** ****** ****** ****** ****** ****** ****** ****** ****** ******

 HEAD WILL BE SAVED ON UNIT   51 AT END OF TIME STEP    1, STRESS PERIOD    5
1
  VOLUMETRIC BUDGET FOR ENTIRE MODEL AT END OF TIME STEP    1, STRESS PERIOD   5
  ------------------------------------------------------------------------------

     CUMULATIVE VOLUMES      L**3       RATES FOR THIS TIME STEP      L**3/T
     ------------------                 ------------------------

           IN:                                      IN:
           ---                                      ---
             STORAGE =    24152825.2537               STORAGE =        4817.2485
       CONSTANT HEAD =    80964605.4198         CONSTANT HEAD =      195097.1956
               WELLS =           0.0000                 WELLS =           0.0000
            RECHARGE =    10074000.0000              RECHARGE =       13800.0000
      STREAM LEAKAGE =     2878987.7284        STREAM LEAKAGE =        6783.0158

            TOTAL IN =   118070418.4019              TOTAL IN =      220497.4600

          OUT:                                     OUT:
          ----                                     ----
             STORAGE =       25653.4123               STORAGE =           0.0000
       CONSTANT HEAD =           0.0000         CONSTANT HEAD =           0.0000
               WELLS =    45709808.3731                 WELLS =      100021.4625
            RECHARGE =           0.0000              RECHARGE =           0.0000
      STREAM LEAKAGE =    72334957.5308        STREAM LEAKAGE =      120475.9983

           TOTAL OUT =   118070419.3162             TOTAL OUT =      220497.4608

            IN - OUT =          -0.9143              IN - OUT =      -8.4395E-04

 PERCENT DISCREPANCY =          -0.00     PERCENT DISCREPANCY =          -0.00






         TIME SUMMARY AT END OF TIME STEP    1 IN STRESS PERIOD    5
                    SECONDS     MINUTES      HOURS       DAYS        YEARS
                    -----------------------------------------------------------
   TIME STEP LENGTH 7.94880E+06 1.32480E+05  2208.0      92.000     0.25188    
 STRESS PERIOD TIME 7.94880E+06 1.32480E+05  2208.0      92.000     0.25188    
         TOTAL TIME 3.94848E+07 6.58080E+05  10968.      457.00      1.2512    
1
1
                            STRESS PERIOD NO.    6, LENGTH =   91.00000    
                            -----------------------------------------------

                              NUMBER OF TIME STEPS =     1

                               MULTIPLIER FOR DELT =     1.500

                            INITIAL TIME STEP SIZE =   91.00000    

 WELL NO.  LAYER   ROW   COL   STRESS RATE         
 --------------------------------------------------
      1      1     23      9     -0.3450E+05
      2      1      3      9     -0.3274E+05
      3      1      3     14     -0.3278E+05

      3 WELLS

                 RECHARGE =  2.000000E-03

 REUSING STREAM SEGMENT DATA FROM LAST STRESS PERIOD
 
 SOLVING FOR HEAD 


     7 CALLS TO PCG ROUTINE FOR TIME STEP   1 IN STRESS PERIOD    6
    26 TOTAL ITERATIONS

 OUTPUT CONTROL FOR STRESS PERIOD    6   TIME STEP    1
    SAVE BUDGET
    SAVE HEAD FOR ALL LAYERS
    PRINT HEAD FOR ALL LAYERS
 UBDSV2 SAVING "STREAMFLOW OUT  " ON UNIT  50 AT TIME STEP  1, STRESS PERIOD   6



 STREAM LISTING     PERIOD      6   STEP        1

 LAYER ROW COL. STREAM  RCH.  FLOW INTO     FLOW TO   FLOW OUT OF   OVRLND.     DIRECT     STREAM       STREAM     STREAM     STREAM   STREAMBED  STREAMBED
                SEG.NO.  NO.  STRM. RCH.    AQUIFER    STRM. RCH.    RUNOFF     PRECIP       ET          HEAD       DEPTH      WIDTH   CONDCTNC.   GRADIENT

   1   13    1     1     1    1.0000E+05 -2.6564E+03   1.0266E+05  0.000E+00  0.000E+00  0.000E+00  4.84072E+01  1.458E-01  2.000E+01  2.000E+04 -1.328E-01
   1   13    2     1     2    1.0266E+05 -4.4028E+03   1.0706E+05  0.000E+00  0.000E+00  0.000E+00  4.79329E+01  1.488E-01  2.000E+01  2.000E+04 -2.201E-01
   1   14    3     1     3    1.0706E+05 -3.5950E+03   1.1065E+05  0.000E+00  0.000E+00  0.000E+00  4.74590E+01  1.522E-01  2.000E+01  2.000E+04 -1.798E-01
   1   15    4     1     4    1.1065E+05 -3.4934E+03   1.1415E+05  0.000E+00  0.000E+00  0.000E+00  4.69847E+01  1.552E-01  2.000E+01  2.000E+04 -1.747E-01
   1   16    5     1     5    1.1415E+05 -3.6416E+03   1.1779E+05  0.000E+00  0.000E+00  0.000E+00  4.65104E+01  1.581E-01  2.000E+01  2.000E+04 -1.821E-01
   1   16    6     1     6    1.1779E+05 -2.7529E+03   1.2054E+05  0.000E+00  0.000E+00  0.000E+00  4.60357E+01  1.607E-01  2.000E+01  2.000E+04 -1.376E-01
   1   16    7     1     7    1.2054E+05 -2.7169E+03   1.2326E+05  0.000E+00  0.000E+00  0.000E+00  4.55606E+01  1.629E-01  2.000E+01  2.000E+04 -1.358E-01
   1   16    8     1     8    1.2326E+05 -2.6810E+03   1.2594E+05  0.000E+00  0.000E+00  0.000E+00  4.50855E+01  1.651E-01  2.000E+01  2.000E+04 -1.341E-01
   1   16    9     1     9    1.2594E+05 -2.6566E+03   1.2860E+05  0.000E+00  0.000E+00  0.000E+00  4.46104E+01  1.672E-01  2.000E+01  2.000E+04 -1.328E-01
   1   16   10     1    10    1.2860E+05 -2.6604E+03   1.3126E+05  0.000E+00  0.000E+00  0.000E+00  4.41352E+01  1.693E-01  2.000E+01  2.000E+04 -1.330E-01
   1   16   11     1    11    1.3126E+05 -2.7130E+03   1.3397E+05  0.000E+00  0.000E+00  0.000E+00  4.36600E+01  1.713E-01  2.000E+01  2.000E+04 -1.357E-01
   1   16   12     1    12    1.3397E+05 -3.8479E+03   1.3782E+05  0.000E+00  0.000E+00  0.000E+00  4.31852E+01  1.739E-01  2.000E+01  2.000E+04 -1.924E-01
   1   15   13     1    13    1.3782E+05 -3.7306E+03   1.4155E+05  0.000E+00  0.000E+00  0.000E+00  4.27109E+01  1.768E-01  2.000E+01  2.000E+04 -1.865E-01
   1   14   14     1    14    1.4155E+05 -3.7598E+03   1.4531E+05  0.000E+00  0.000E+00  0.000E+00  4.22364E+01  1.796E-01  2.000E+01  2.000E+04 -1.880E-01
   1   13   15     1    15    1.4531E+05 -3.9014E+03   1.4921E+05  0.000E+00  0.000E+00  0.000E+00  4.17620E+01  1.825E-01  2.000E+01  2.000E+04 -1.951E-01
   1   12   16     1    16    1.4921E+05 -4.6865E+03   1.5390E+05  0.000E+00  0.000E+00  0.000E+00  4.12879E+01  1.856E-01  2.000E+01  2.000E+04 -2.343E-01
   1   12   17     1    17    1.5390E+05 -3.3228E+03   1.5722E+05  0.000E+00  0.000E+00  0.000E+00  4.08136E+01  1.886E-01  2.000E+01  2.000E+04 -1.661E-01
   1   12   18     1    18    1.5722E+05 -3.3139E+03   1.6053E+05  0.000E+00  0.000E+00  0.000E+00  4.03387E+01  1.910E-01  2.000E+01  2.000E+04 -1.657E-01
   1   12   19     1    19    1.6053E+05 -4.4045E+03   1.6494E+05  0.000E+00  0.000E+00  0.000E+00  3.98642E+01  1.937E-01  2.000E+01  2.000E+04 -2.202E-01
   1   13   20     1    20    1.6494E+05 -3.2582E+03   1.6820E+05  0.000E+00  0.000E+00  0.000E+00  3.93896E+01  1.965E-01  2.000E+01  2.000E+04 -1.629E-01
   1   14   21     1    21    1.6820E+05 -2.6605E+03   1.7086E+05  0.000E+00  0.000E+00  0.000E+00  3.89145E+01  1.985E-01  2.000E+01  2.000E+04 -1.330E-01
   1   14   22     1    22    1.7086E+05  4.9059E+03   1.6595E+05  0.000E+00  0.000E+00  0.000E+00  3.84364E+01  1.978E-01  2.000E+01  2.000E+04  2.453E-01
   1    9   30     2     1    5.0000E+04 -3.0139E+03   5.3014E+04  0.000E+00  0.000E+00  0.000E+00  4.02429E+01  1.179E-01  2.000E+01  2.000E+04 -1.507E-01
   1    9   29     2     2    5.3014E+04 -3.3376E+03   5.6352E+04  0.000E+00  0.000E+00  0.000E+00  3.99973E+01  1.223E-01  2.000E+01  2.000E+04 -1.669E-01
   1    9   28     2     3    5.6352E+04 -3.7007E+03   6.0052E+04  0.000E+00  0.000E+00  0.000E+00  3.97519E+01  1.269E-01  2.000E+01  2.000E+04 -1.850E-01
   1    9   27     2     4    6.0052E+04 -6.4203E+03   6.6472E+04  0.000E+00  0.000E+00  0.000E+00  3.95084E+01  1.334E-01  2.000E+01  2.000E+04 -3.210E-01
   1   10   26     2     5    6.6472E+04 -4.0518E+03   7.0524E+04  0.000E+00  0.000E+00  0.000E+00  3.92650E+01  1.400E-01  2.000E+01  2.000E+04 -2.026E-01
   1   11   25     2     6    7.0524E+04 -2.9790E+03   7.3503E+04  0.000E+00  0.000E+00  0.000E+00  3.90192E+01  1.442E-01  2.000E+01  2.000E+04 -1.489E-01
   1   12   24     2     7    7.3503E+04 -2.1032E+03   7.5606E+04  0.000E+00  0.000E+00  0.000E+00  3.87723E+01  1.473E-01  2.000E+01  2.000E+04 -1.052E-01
   1   13   23     2     8    7.5606E+04 -1.2651E+03   7.6872E+04  0.000E+00  0.000E+00  0.000E+00  3.85242E+01  1.492E-01  2.000E+01  2.000E+04 -6.326E-02
   1   14   22     2     9    7.6872E+04  1.6581E+03   7.5213E+04  0.000E+00  0.000E+00  0.000E+00  3.82740E+01  1.490E-01  2.000E+01  2.000E+04  8.291E-02
   1   14   22     3     1    2.4116E+05 -8.5964E+03   2.4976E+05  0.000E+00  0.000E+00  0.000E+00  3.77613E+01  2.057E-01  2.000E+01  2.000E+04 -4.298E-01
   1   15   23     3     2    2.4976E+05 -3.3897E+03   2.5315E+05  0.000E+00  0.000E+00  0.000E+00  3.68754E+01  2.087E-01  2.000E+01  2.000E+04 -1.695E-01
   1   15   24     3     3    2.5315E+05 -2.3447E+03   2.5549E+05  0.000E+00  0.000E+00  0.000E+00  3.59879E+01  2.102E-01  2.000E+01  2.000E+04 -1.172E-01
   1   15   25     3     4    2.5549E+05 -2.2173E+03   2.5771E+05  0.000E+00  0.000E+00  0.000E+00  3.51002E+01  2.113E-01  2.000E+01  2.000E+04 -1.109E-01
   1   15   26     3     5    2.5771E+05 -2.6345E+03   2.6035E+05  0.000E+00  0.000E+00  0.000E+00  3.42125E+01  2.125E-01  2.000E+01  2.000E+04 -1.317E-01
   1   16   27     3     6    2.6035E+05 -3.6780E+03   2.6402E+05  0.000E+00  0.000E+00  0.000E+00  3.33251E+01  2.140E-01  2.000E+01  2.000E+04 -1.839E-01
   1   17   28     3     7    2.6402E+05 -4.5133E+03   2.6854E+05  0.000E+00  0.000E+00  0.000E+00  3.24382E+01  2.160E-01  2.000E+01  2.000E+04 -2.257E-01
   1   18   29     3     8    2.6854E+05 -6.1706E+03   2.7471E+05  0.000E+00  0.000E+00  0.000E+00  3.15519E+01  2.186E-01  2.000E+01  2.000E+04 -3.085E-01
   1   18   30     3     9    2.7471E+05 -5.1056E+03   2.7981E+05  0.000E+00  0.000E+00  0.000E+00  3.06658E+01  2.213E-01  2.000E+01  2.000E+04 -2.553E-01



1
              HEAD IN LAYER   1 AT END OF TIME STEP   1 IN STRESS PERIOD    6
  ---------------------------------------------------------------------------

          1      2      3      4      5      6      7      8      9     10
         11     12     13     14     15     16     17     18     19     20
         21     22     23     24     25     26     27     28     29     30
 .........................................................................
   1  ****** ****** ****** ****** ****** ****** ****** ****** ****** ******
      ****** ****** ****** ****** ****** ****** ****** ****** ****** ******
      ****** ****** ****** ****** ****** ****** ****** ****** ****** ******
   2  ****** ****** ****** ****** ****** ****** ****** ****** ****** ******
      ****** ****** ****** ****** ****** ****** ****** ****** ****** ******
      ****** ****** ****** ****** ****** ****** ****** ****** ****** ******
   3  ****** ****** ****** ****** ****** ****** ****** ****** ****** ******
      ****** ****** ****** ****** ****** ****** ****** ****** ****** ******
      ****** ****** ****** ****** ****** ****** ****** ****** ****** ******
   4  ****** ****** ****** ****** ****** ****** ****** ****** ****** ******
      ****** ****** ****** ****** ****** ****** ****** ****** ****** ******
      ****** ****** ****** ****** ****** ****** ****** ****** ****** ******
   5  ****** ****** ****** ****** ****** ****** ****** ****** ****** ******
      ****** ****** ****** ****** ****** ****** ****** ****** ****** ******
      ****** ****** ****** ****** ****** ****** ****** ****** ****** ******
   6  ****** ****** ****** ****** ****** ****** ****** ****** ****** ******
      ****** ****** ****** ****** ****** ****** ****** ****** ****** ******
      ****** ****** ****** ****** ****** ****** ****** ****** ****** ******
   7  ****** ****** ****** ****** ****** ****** ****** ****** ****** ******
      ****** ****** ****** ****** ****** ****** ****** ****** ****** ******
      ****** ****** ****** ****** ****** ****** ****** ****** ****** ******
   8  ****** ****** ****** ****** ****** ****** ****** ****** ****** ******
      ****** ****** ****** ****** ****** ****** ****** ****** ****** ******
      ****** ****** ****** ****** ****** ****** ****** ****** ****** ******
   9  ****** ****** ****** ****** ****** ****** ****** ****** ****** ******
      ****** ****** ****** ****** ****** ****** ****** ****** ****** ******
      ****** ****** ****** ****** ****** ****** ****** ****** ****** ******
  10  ****** ****** ****** ****** ****** ****** ****** ****** ****** ******
      ****** ****** ****** ****** ****** ****** ****** ****** ****** ******
      ****** ****** ****** ****** ****** ****** ****** ****** ****** ******
  11  ****** ****** ****** ****** ****** ****** ****** ****** ****** ******
      ****** ****** ****** ****** ****** ****** ****** ****** ****** ******
      ****** ****** ****** ****** ****** ****** ****** ****** ****** ******
  12  ****** ****** ****** ****** ****** ****** ****** ****** ****** ******
      ****** ****** ****** ****** ****** ****** ****** ****** ****** ******
      ****** ****** ****** ****** ****** ****** ****** ****** ****** ******
  13  ****** ****** ****** ****** ****** ****** ****** ****** ****** ******
      ****** ****** ****** ****** ****** ****** ****** ****** ****** ******
      ****** ****** ****** ****** ****** ****** ****** ****** ****** ******
  14  ****** ****** ****** ****** ****** ****** ****** ****** ****** ******
      ****** ****** ****** ****** ****** ****** ****** ****** ****** ******
      ****** ****** ****** ****** ****** ****** ****** ****** ****** ******
  15  ****** ****** ****** ****** ****** ****** ****** ****** ****** ******
      ****** ****** ****** ****** ****** ****** ****** ****** ****** ******
      ****** ****** ****** ****** ****** ****** ****** ****** ****** ******
  16  ****** ****** ****** ****** ****** ****** ****** ****** ****** ******
      ****** ****** ****** ****** ****** ****** ****** ****** ****** ******
      ****** ****** ****** ****** ****** ****** ****** ****** ****** ******
  17  ****** ****** ****** ****** ****** ****** ****** ****** ****** ******
      ****** ****** ****** ****** ****** ****** ****** ****** ****** ******
      ****** ****** ****** ****** ****** ****** ****** ****** ****** ******
  18  ****** ****** ****** ****** ****** ****** ****** ****** ****** ******
      ****** ****** ****** ****** ****** ****** ****** ****** ****** ******
      ****** ****** ****** ****** ****** ****** ****** ****** ****** ******
  19  ****** ****** ****** ****** ****** ****** ****** ****** ****** ******
      ****** ****** ****** ****** ****** ****** ****** ****** ****** ******
      ****** ****** ****** ****** ****** ****** ****** ****** ****** ******
  20  ****** ****** ****** ****** ****** ****** ****** ****** ****** ******
      ****** ****** ****** ****** ****** ****** ****** ****** ****** ******
      ****** ****** ****** ****** ****** ****** ****** ****** ****** ******
  21  ****** ****** ****** ****** ****** ****** ****** ****** ****** ******
      ****** ****** ****** ****** ****** ****** ****** ****** ****** ******
      ****** ****** ****** ****** ****** ****** ****** ****** ****** ******
  22  ****** ****** ****** ****** ****** ****** ****** ****** ****** ******
      ****** ****** ****** ****** ****** ****** ****** ****** ****** ******
      ****** ****** ****** ****** ****** ****** ****** ****** ****** ******
  23  ****** ****** ****** ****** ****** ****** ****** ****** ****** ******
      ****** ****** ****** ****** ****** ****** ****** ****** ****** ******
      ****** ****** ****** ****** ****** ****** ****** ****** ****** ******
  24  ****** ****** ****** ****** ****** ****** ****** ****** ****** ******
      ****** ****** ****** ****** ****** ****** ****** ****** ****** ******
      ****** ****** ****** ****** ****** ****** ****** ****** ****** ******
  25  ****** ****** ****** ****** ****** ****** ****** ****** ****** ******
      ****** ****** ****** ****** ****** ****** ****** ****** ****** ******
      ****** ****** ****** ****** ****** ****** ****** ****** ****** ******

 HEAD WILL BE SAVED ON UNIT   51 AT END OF TIME STEP    1, STRESS PERIOD    6
1
  VOLUMETRIC BUDGET FOR ENTIRE MODEL AT END OF TIME STEP    1, STRESS PERIOD   6
  ------------------------------------------------------------------------------

     CUMULATIVE VOLUMES      L**3       RATES FOR THIS TIME STEP      L**3/T
     ------------------                 ------------------------

           IN:                                      IN:
           ---                                      ---
             STORAGE =    24152825.2537               STORAGE =           0.0000
       CONSTANT HEAD =    97759795.8935         CONSTANT HEAD =      184562.5327
               WELLS =           0.0000                 WELLS =           0.0000
            RECHARGE =    15097200.0000              RECHARGE =       55200.0000
      STREAM LEAKAGE =     3476309.7599        STREAM LEAKAGE =        6563.9784

            TOTAL IN =   140486130.9071              TOTAL IN =      246326.5110

          OUT:                                     OUT:
          ----                                     ----
             STORAGE =      929044.3126               STORAGE =        9927.3725
       CONSTANT HEAD =           0.0000         CONSTANT HEAD =           0.0000
               WELLS =    54811761.4628                 WELLS =      100021.4625
            RECHARGE =           0.0000              RECHARGE =           0.0000
      STREAM LEAKAGE =    84745325.8943        STREAM LEAKAGE =      136377.6743

           TOTAL OUT =   140486131.6697             TOTAL OUT =      246326.5094

            IN - OUT =          -0.7626              IN - OUT =       1.6665E-03

 PERCENT DISCREPANCY =          -0.00     PERCENT DISCREPANCY =           0.00






         TIME SUMMARY AT END OF TIME STEP    1 IN STRESS PERIOD    6
                    SECONDS     MINUTES      HOURS       DAYS        YEARS
                    -----------------------------------------------------------
   TIME STEP LENGTH 7.86240E+06 1.31040E+05  2184.0      91.000     0.24914    
 STRESS PERIOD TIME 7.86240E+06 1.31040E+05  2184.0      91.000     0.24914    
         TOTAL TIME 4.73472E+07 7.89120E+05  13152.      548.00      1.5003    
1
1
                            STRESS PERIOD NO.    7, LENGTH =   91.00000    
                            -----------------------------------------------

                              NUMBER OF TIME STEPS =     1

                               MULTIPLIER FOR DELT =     1.500

                            INITIAL TIME STEP SIZE =   91.00000    

 WELL NO.  LAYER   ROW   COL   STRESS RATE         
 --------------------------------------------------
      1      1     23      9     -0.3450E+05
      2      1      3      9     -0.3274E+05
      3      1      3     14     -0.3278E+05

      3 WELLS

                 RECHARGE =   0.00000    

 REUSING STREAM SEGMENT DATA FROM LAST STRESS PERIOD
 
 SOLVING FOR HEAD 


     7 CALLS TO PCG ROUTINE FOR TIME STEP   1 IN STRESS PERIOD    7
    26 TOTAL ITERATIONS

 OUTPUT CONTROL FOR STRESS PERIOD    7   TIME STEP    1
    SAVE BUDGET
    SAVE HEAD FOR ALL LAYERS
    PRINT HEAD FOR ALL LAYERS
 UBDSV2 SAVING "STREAMFLOW OUT  " ON UNIT  50 AT TIME STEP  1, STRESS PERIOD   7



 STREAM LISTING     PERIOD      7   STEP        1

 LAYER ROW COL. STREAM  RCH.  FLOW INTO     FLOW TO   FLOW OUT OF   OVRLND.     DIRECT     STREAM       STREAM     STREAM     STREAM   STREAMBED  STREAMBED
                SEG.NO.  NO.  STRM. RCH.    AQUIFER    STRM. RCH.    RUNOFF     PRECIP       ET          HEAD       DEPTH      WIDTH   CONDCTNC.   GRADIENT

   1   13    1     1     1    1.0000E+05 -2.1582E+03   1.0216E+05  0.000E+00  0.000E+00  0.000E+00  4.84070E+01  1.456E-01  2.000E+01  2.000E+04 -1.079E-01
   1   13    2     1     2    1.0216E+05 -3.7476E+03   1.0591E+05  0.000E+00  0.000E+00  0.000E+00  4.79322E+01  1.481E-01  2.000E+01  2.000E+04 -1.874E-01
   1   14    3     1     3    1.0591E+05 -2.9245E+03   1.0883E+05  0.000E+00  0.000E+00  0.000E+00  4.74578E+01  1.510E-01  2.000E+01  2.000E+04 -1.462E-01
   1   15    4     1     4    1.0883E+05 -2.8294E+03   1.1166E+05  0.000E+00  0.000E+00  0.000E+00  4.69829E+01  1.534E-01  2.000E+01  2.000E+04 -1.415E-01
   1   16    5     1     5    1.1166E+05 -3.0323E+03   1.1469E+05  0.000E+00  0.000E+00  0.000E+00  4.65081E+01  1.558E-01  2.000E+01  2.000E+04 -1.516E-01
   1   16    6     1     6    1.1469E+05 -2.2691E+03   1.1696E+05  0.000E+00  0.000E+00  0.000E+00  4.60330E+01  1.580E-01  2.000E+01  2.000E+04 -1.135E-01
   1   16    7     1     7    1.1696E+05 -2.2254E+03   1.1919E+05  0.000E+00  0.000E+00  0.000E+00  4.55575E+01  1.598E-01  2.000E+01  2.000E+04 -1.113E-01
   1   16    8     1     8    1.1919E+05 -2.1852E+03   1.2137E+05  0.000E+00  0.000E+00  0.000E+00  4.50821E+01  1.616E-01  2.000E+01  2.000E+04 -1.093E-01
   1   16    9     1     9    1.2137E+05 -2.1610E+03   1.2353E+05  0.000E+00  0.000E+00  0.000E+00  4.46065E+01  1.633E-01  2.000E+01  2.000E+04 -1.081E-01
   1   16   10     1    10    1.2353E+05 -2.1693E+03   1.2570E+05  0.000E+00  0.000E+00  0.000E+00  4.41310E+01  1.651E-01  2.000E+01  2.000E+04 -1.085E-01
   1   16   11     1    11    1.2570E+05 -2.2290E+03   1.2793E+05  0.000E+00  0.000E+00  0.000E+00  4.36554E+01  1.668E-01  2.000E+01  2.000E+04 -1.115E-01
   1   16   12     1    12    1.2793E+05 -3.2304E+03   1.3116E+05  0.000E+00  0.000E+00  0.000E+00  4.31803E+01  1.690E-01  2.000E+01  2.000E+04 -1.615E-01
   1   15   13     1    13    1.3116E+05 -3.0551E+03   1.3422E+05  0.000E+00  0.000E+00  0.000E+00  4.27055E+01  1.714E-01  2.000E+01  2.000E+04 -1.528E-01
   1   14   14     1    14    1.3422E+05 -3.0715E+03   1.3729E+05  0.000E+00  0.000E+00  0.000E+00  4.22306E+01  1.738E-01  2.000E+01  2.000E+04 -1.536E-01
   1   13   15     1    15    1.3729E+05 -3.2241E+03   1.4051E+05  0.000E+00  0.000E+00  0.000E+00  4.17557E+01  1.762E-01  2.000E+01  2.000E+04 -1.612E-01
   1   12   16     1    16    1.4051E+05 -4.0423E+03   1.4455E+05  0.000E+00  0.000E+00  0.000E+00  4.12812E+01  1.789E-01  2.000E+01  2.000E+04 -2.021E-01
   1   12   17     1    17    1.4455E+05 -2.8405E+03   1.4739E+05  0.000E+00  0.000E+00  0.000E+00  4.08065E+01  1.815E-01  2.000E+01  2.000E+04 -1.420E-01
   1   12   18     1    18    1.4739E+05 -2.8393E+03   1.5023E+05  0.000E+00  0.000E+00  0.000E+00  4.03313E+01  1.836E-01  2.000E+01  2.000E+04 -1.420E-01
   1   12   19     1    19    1.5023E+05 -3.8264E+03   1.5406E+05  0.000E+00  0.000E+00  0.000E+00  3.98565E+01  1.861E-01  2.000E+01  2.000E+04 -1.913E-01
   1   13   20     1    20    1.5406E+05 -2.6899E+03   1.5675E+05  0.000E+00  0.000E+00  0.000E+00  3.93816E+01  1.885E-01  2.000E+01  2.000E+04 -1.345E-01
   1   14   21     1    21    1.5675E+05 -2.1411E+03   1.5889E+05  0.000E+00  0.000E+00  0.000E+00  3.89061E+01  1.902E-01  2.000E+01  2.000E+04 -1.071E-01
   1   14   22     1    22    1.5889E+05  5.0057E+03   1.5389E+05  0.000E+00  0.000E+00  0.000E+00  3.84278E+01  1.892E-01  2.000E+01  2.000E+04  2.503E-01
   1    9   30     2     1    5.0000E+04 -2.5709E+03   5.2571E+04  0.000E+00  0.000E+00  0.000E+00  4.02426E+01  1.176E-01  2.000E+01  2.000E+04 -1.285E-01
   1    9   29     2     2    5.2571E+04 -2.8982E+03   5.5469E+04  0.000E+00  0.000E+00  0.000E+00  3.99964E+01  1.214E-01  2.000E+01  2.000E+04 -1.449E-01
   1    9   28     2     3    5.5469E+04 -3.2644E+03   5.8734E+04  0.000E+00  0.000E+00  0.000E+00  3.97505E+01  1.255E-01  2.000E+01  2.000E+04 -1.632E-01
   1    9   27     2     4    5.8734E+04 -5.8441E+03   6.4578E+04  0.000E+00  0.000E+00  0.000E+00  3.95064E+01  1.314E-01  2.000E+01  2.000E+04 -2.922E-01
   1   10   26     2     5    6.4578E+04 -3.4499E+03   6.8028E+04  0.000E+00  0.000E+00  0.000E+00  3.92622E+01  1.372E-01  2.000E+01  2.000E+04 -1.725E-01
   1   11   25     2     6    6.8028E+04 -2.4004E+03   7.0428E+04  0.000E+00  0.000E+00  0.000E+00  3.90158E+01  1.408E-01  2.000E+01  2.000E+04 -1.200E-01
   1   12   24     2     7    7.0428E+04 -1.5882E+03   7.2016E+04  0.000E+00  0.000E+00  0.000E+00  3.87683E+01  1.433E-01  2.000E+01  2.000E+04 -7.941E-02
   1   13   23     2     8    7.2016E+04 -8.5945E+02   7.2876E+04  0.000E+00  0.000E+00  0.000E+00  3.85197E+01  1.447E-01  2.000E+01  2.000E+04 -4.297E-02
   1   14   22     2     9    7.2876E+04  1.8327E+03   7.1043E+04  0.000E+00  0.000E+00  0.000E+00  3.82692E+01  1.442E-01  2.000E+01  2.000E+04  9.163E-02
   1   14   22     3     1    2.2493E+05 -8.4908E+03   2.3342E+05  0.000E+00  0.000E+00  0.000E+00  3.77530E+01  1.974E-01  2.000E+01  2.000E+04 -4.245E-01
   1   15   23     3     2    2.3342E+05 -2.9048E+03   2.3632E+05  0.000E+00  0.000E+00  0.000E+00  3.68670E+01  2.004E-01  2.000E+01  2.000E+04 -1.452E-01
   1   15   24     3     3    2.3632E+05 -1.9879E+03   2.3831E+05  0.000E+00  0.000E+00  0.000E+00  3.59794E+01  2.016E-01  2.000E+01  2.000E+04 -9.940E-02
   1   15   25     3     4    2.3831E+05 -1.8572E+03   2.4017E+05  0.000E+00  0.000E+00  0.000E+00  3.50915E+01  2.026E-01  2.000E+01  2.000E+04 -9.286E-02
   1   15   26     3     5    2.4017E+05 -2.1693E+03   2.4234E+05  0.000E+00  0.000E+00  0.000E+00  3.42036E+01  2.036E-01  2.000E+01  2.000E+04 -1.085E-01
   1   16   27     3     6    2.4234E+05 -3.1000E+03   2.4544E+05  0.000E+00  0.000E+00  0.000E+00  3.33160E+01  2.049E-01  2.000E+01  2.000E+04 -1.550E-01
   1   17   28     3     7    2.4544E+05 -3.9246E+03   2.4936E+05  0.000E+00  0.000E+00  0.000E+00  3.24289E+01  2.067E-01  2.000E+01  2.000E+04 -1.962E-01
   1   18   29     3     8    2.4936E+05 -5.6216E+03   2.5499E+05  0.000E+00  0.000E+00  0.000E+00  3.15424E+01  2.091E-01  2.000E+01  2.000E+04 -2.811E-01
   1   18   30     3     9    2.5499E+05 -4.6874E+03   2.5967E+05  0.000E+00  0.000E+00  0.000E+00  3.06561E+01  2.116E-01  2.000E+01  2.000E+04 -2.344E-01



1
              HEAD IN LAYER   1 AT END OF TIME STEP   1 IN STRESS PERIOD    7
  ---------------------------------------------------------------------------

          1      2      3      4      5      6      7      8      9     10
         11     12     13     14     15     16     17     18     19     20
         21     22     23     24     25     26     27     28     29     30
 .........................................................................
   1  ****** ****** ****** ****** ****** ****** ****** ****** ****** ******
      ****** ****** ****** ****** ****** ****** ****** ****** ****** ******
      ****** ****** ****** ****** ****** ****** ****** ****** ****** ******
   2  ****** ****** ****** ****** ****** ****** ****** ****** ****** ******
      ****** ****** ****** ****** ****** ****** ****** ****** ****** ******
      ****** ****** ****** ****** ****** ****** ****** ****** ****** ******
   3  ****** ****** ****** ****** ****** ****** ****** ****** ****** ******
      ****** ****** ****** ****** ****** ****** ****** ****** ****** ******
      ****** ****** ****** ****** ****** ****** ****** ****** ****** ******
   4  ****** ****** ****** ****** ****** ****** ****** ****** ****** ******
      ****** ****** ****** ****** ****** ****** ****** ****** ****** ******
      ****** ****** ****** ****** ****** ****** ****** ****** ****** ******
   5  ****** ****** ****** ****** ****** ****** ****** ****** ****** ******
      ****** ****** ****** ****** ****** ****** ****** ****** ****** ******
      ****** ****** ****** ****** ****** ****** ****** ****** ****** ******
   6  ****** ****** ****** ****** ****** ****** ****** ****** ****** ******
      ****** ****** ****** ****** ****** ****** ****** ****** ****** ******
      ****** ****** ****** ****** ****** ****** ****** ****** ****** ******
   7  ****** ****** ****** ****** ****** ****** ****** ****** ****** ******
      ****** ****** ****** ****** ****** ****** ****** ****** ****** ******
      ****** ****** ****** ****** ****** ****** ****** ****** ****** ******
   8  ****** ****** ****** ****** ****** ****** ****** ****** ****** ******
      ****** ****** ****** ****** ****** ****** ****** ****** ****** ******
      ****** ****** ****** ****** ****** ****** ****** ****** ****** ******
   9  ****** ****** ****** ****** ****** ****** ****** ****** ****** ******
      ****** ****** ****** ****** ****** ****** ****** ****** ****** ******
      ****** ****** ****** ****** ****** ****** ****** ****** ****** ******
  10  ****** ****** ****** ****** ****** ****** ****** ****** ****** ******
      ****** ****** ****** ****** ****** ****** ****** ****** ****** ******
      ****** ****** ****** ****** ****** ****** ****** ****** ****** ******
  11  ****** ****** ****** ****** ****** ****** ****** ****** ****** ******
      ****** ****** ****** ****** ****** ****** ****** ****** ****** ******
      ****** ****** ****** ****** ****** ****** ****** ****** ****** ******
  12  ****** ****** ****** ****** ****** ****** ****** ****** ****** ******
      ****** ****** ****** ****** ****** ****** ****** ****** ****** ******
      ****** ****** ****** ****** ****** ****** ****** ****** ****** ******
  13  ****** ****** ****** ****** ****** ****** ****** ****** ****** ******
      ****** ****** ****** ****** ****** ****** ****** ****** ****** ******
      ****** ****** ****** ****** ****** ****** ****** ****** ****** ******
  14  ****** ****** ****** ****** ****** ****** ****** ****** ****** ******
      ****** ****** ****** ****** ****** ****** ****** ****** ****** ******
      ****** ****** ****** ****** ****** ****** ****** ****** ****** ******
  15  ****** ****** ****** ****** ****** ****** ****** ****** ****** ******
      ****** ****** ****** ****** ****** ****** ****** ****** ****** ******
      ****** ****** ****** ****** ****** ****** ****** ****** ****** ******
  16  ****** ****** ****** ****** ****** ****** ****** ****** ****** ******
      ****** ****** ****** ****** ****** ****** ****** ****** ****** ******
      ****** ****** ****** ****** ****** ****** ****** ****** ****** ******
  17  ****** ****** ****** ****** ****** ****** ****** ****** ****** ******
      ****** ****** ****** ****** ****** ****** ****** ****** ****** ******
      ****** ****** ****** ****** ****** ****** ****** ****** ****** ******
  18  ****** ****** ****** ****** ****** ****** ****** ****** ****** ******
      ****** ****** ****** ****** ****** ****** ****** ****** ****** ******
      ****** ****** ****** ****** ****** ****** ****** ****** ****** ******
  19  ****** ****** ****** ****** ****** ****** ****** ****** ****** ******
      ****** ****** ****** ****** ****** ****** ****** ****** ****** ******
      ****** ****** ****** ****** ****** ****** ****** ****** ****** ******
  20  ****** ****** ****** ****** ****** ****** ****** ****** ****** ******
      ****** ****** ****** ****** ****** ****** ****** ****** ****** ******
      ****** ****** ****** ****** ****** ****** ****** ****** ****** ******
  21  ****** ****** ****** ****** ****** ****** ****** ****** ****** ******
      ****** ****** ****** ****** ****** ****** ****** ****** ****** ******
      ****** ****** ****** ****** ****** ****** ****** ****** ****** ******
  22  ****** ****** ****** ****** ****** ****** ****** ****** ****** ******
      ****** ****** ****** ****** ****** ****** ****** ****** ****** ******
      ****** ****** ****** ****** ****** ****** ****** ****** ****** ******
  23  ****** ****** ****** ****** ****** ****** ****** ****** ****** ******
      ****** ****** ****** ****** ****** ****** ****** ****** ****** ******
      ****** ****** ****** ****** ****** ****** ****** ****** ****** ******
  24  ****** ****** ****** ****** ****** ****** ****** ****** ****** ******
      ****** ****** ****** ****** ****** ****** ****** ****** ****** ******
      ****** ****** ****** ****** ****** ****** ****** ****** ****** ******
  25  ****** ****** ****** ****** ****** ****** ****** ****** ****** ******
      ****** ****** ****** ****** ****** ****** ****** ****** ****** ******
      ****** ****** ****** ****** ****** ****** ****** ****** ****** ******

 HEAD WILL BE SAVED ON UNIT   51 AT END OF TIME STEP    1, STRESS PERIOD    7
1
  VOLUMETRIC BUDGET FOR ENTIRE MODEL AT END OF TIME STEP    1, STRESS PERIOD   7
  ------------------------------------------------------------------------------

     CUMULATIVE VOLUMES      L**3       RATES FOR THIS TIME STEP      L**3/T
     ------------------                 ------------------------

           IN:                                      IN:
           ---                                      ---
             STORAGE =    25261150.5969               STORAGE =       12179.3994
       CONSTANT HEAD =   115733616.7793         CONSTANT HEAD =      197514.5152
               WELLS =           0.0000                 WELLS =           0.0000
            RECHARGE =    15097200.0000              RECHARGE =           0.0000
      STREAM LEAKAGE =     4098601.0633        STREAM LEAKAGE =        6838.3660

            TOTAL IN =   160190568.4395              TOTAL IN =      216532.2806

          OUT:                                     OUT:
          ----                                     ----
             STORAGE =      929044.3126               STORAGE =           0.0000
       CONSTANT HEAD =           0.0000         CONSTANT HEAD =           0.0000
               WELLS =    63913714.5524                 WELLS =      100021.4625
            RECHARGE =           0.0000              RECHARGE =           0.0000
      STREAM LEAKAGE =    95347810.5391        STREAM LEAKAGE =      116510.8203

           TOTAL OUT =   160190569.4041             TOTAL OUT =      216532.2828

            IN - OUT =          -0.9645              IN - OUT =      -2.2190E-03

 PERCENT DISCREPANCY =          -0.00     PERCENT DISCREPANCY =          -0.00






         TIME SUMMARY AT END OF TIME STEP    1 IN STRESS PERIOD    7
                    SECONDS     MINUTES      HOURS       DAYS        YEARS
                    -----------------------------------------------------------
   TIME STEP LENGTH 7.86240E+06 1.31040E+05  2184.0      91.000     0.24914    
 STRESS PERIOD TIME 7.86240E+06 1.31040E+05  2184.0      91.000     0.24914    
         TOTAL TIME 5.52096E+07 9.20160E+05  15336.      639.00      1.7495    
1
1
                            STRESS PERIOD NO.    8, LENGTH =   91.00000    
                            -----------------------------------------------

                              NUMBER OF TIME STEPS =     1

                               MULTIPLIER FOR DELT =     1.500

                            INITIAL TIME STEP SIZE =   91.00000    

 WELL NO.  LAYER   ROW   COL   STRESS RATE         
 --------------------------------------------------
      1      1     23      9     -0.3450E+05
      2      1      3      9     -0.3274E+05
      3      1      3     14     -0.3278E+05

      3 WELLS

                 RECHARGE =  1.000000E-03

 REUSING STREAM SEGMENT DATA FROM LAST STRESS PERIOD
 
 SOLVING FOR HEAD 


     6 CALLS TO PCG ROUTINE FOR TIME STEP   1 IN STRESS PERIOD    8
    23 TOTAL ITERATIONS

 OUTPUT CONTROL FOR STRESS PERIOD    8   TIME STEP    1
    SAVE BUDGET
    SAVE HEAD FOR ALL LAYERS
    PRINT HEAD FOR ALL LAYERS
 UBDSV2 SAVING "STREAMFLOW OUT  " ON UNIT  50 AT TIME STEP  1, STRESS PERIOD   8



 STREAM LISTING     PERIOD      8   STEP        1

 LAYER ROW COL. STREAM  RCH.  FLOW INTO     FLOW TO   FLOW OUT OF   OVRLND.     DIRECT     STREAM       STREAM     STREAM     STREAM   STREAMBED  STREAMBED
                SEG.NO.  NO.  STRM. RCH.    AQUIFER    STRM. RCH.    RUNOFF     PRECIP       ET          HEAD       DEPTH      WIDTH   CONDCTNC.   GRADIENT

   1   13    1     1     1    1.0000E+05 -2.3257E+03   1.0233E+05  0.000E+00  0.000E+00  0.000E+00  4.84070E+01  1.457E-01  2.000E+01  2.000E+04 -1.163E-01
   1   13    2     1     2    1.0233E+05 -3.9561E+03   1.0628E+05  0.000E+00  0.000E+00  0.000E+00  4.79324E+01  1.484E-01  2.000E+01  2.000E+04 -1.978E-01
   1   14    3     1     3    1.0628E+05 -3.1571E+03   1.0944E+05  0.000E+00  0.000E+00  0.000E+00  4.74582E+01  1.514E-01  2.000E+01  2.000E+04 -1.579E-01
   1   15    4     1     4    1.0944E+05 -3.0654E+03   1.1250E+05  0.000E+00  0.000E+00  0.000E+00  4.69835E+01  1.540E-01  2.000E+01  2.000E+04 -1.533E-01
   1   16    5     1     5    1.1250E+05 -3.2520E+03   1.1576E+05  0.000E+00  0.000E+00  0.000E+00  4.65089E+01  1.566E-01  2.000E+01  2.000E+04 -1.626E-01
   1   16    6     1     6    1.1576E+05 -2.4431E+03   1.1820E+05  0.000E+00  0.000E+00  0.000E+00  4.60339E+01  1.589E-01  2.000E+01  2.000E+04 -1.222E-01
   1   16    7     1     7    1.1820E+05 -2.4009E+03   1.2060E+05  0.000E+00  0.000E+00  0.000E+00  4.55586E+01  1.609E-01  2.000E+01  2.000E+04 -1.200E-01
   1   16    8     1     8    1.2060E+05 -2.3617E+03   1.2296E+05  0.000E+00  0.000E+00  0.000E+00  4.50833E+01  1.628E-01  2.000E+01  2.000E+04 -1.181E-01
   1   16    9     1     9    1.2296E+05 -2.3375E+03   1.2530E+05  0.000E+00  0.000E+00  0.000E+00  4.46079E+01  1.647E-01  2.000E+01  2.000E+04 -1.169E-01
   1   16   10     1    10    1.2530E+05 -2.3448E+03   1.2764E+05  0.000E+00  0.000E+00  0.000E+00  4.41324E+01  1.665E-01  2.000E+01  2.000E+04 -1.172E-01
   1   16   11     1    11    1.2764E+05 -2.4029E+03   1.3005E+05  0.000E+00  0.000E+00  0.000E+00  4.36570E+01  1.684E-01  2.000E+01  2.000E+04 -1.201E-01
   1   16   12     1    12    1.3005E+05 -3.4503E+03   1.3350E+05  0.000E+00  0.000E+00  0.000E+00  4.31821E+01  1.707E-01  2.000E+01  2.000E+04 -1.725E-01
   1   15   13     1    13    1.3350E+05 -3.2939E+03   1.3679E+05  0.000E+00  0.000E+00  0.000E+00  4.27074E+01  1.733E-01  2.000E+01  2.000E+04 -1.647E-01
   1   14   14     1    14    1.3679E+05 -3.3121E+03   1.4010E+05  0.000E+00  0.000E+00  0.000E+00  4.22326E+01  1.758E-01  2.000E+01  2.000E+04 -1.656E-01
   1   13   15     1    15    1.4010E+05 -3.4588E+03   1.4356E+05  0.000E+00  0.000E+00  0.000E+00  4.17579E+01  1.784E-01  2.000E+01  2.000E+04 -1.729E-01
   1   12   16     1    16    1.4356E+05 -4.2550E+03   1.4782E+05  0.000E+00  0.000E+00  0.000E+00  4.12836E+01  1.813E-01  2.000E+01  2.000E+04 -2.128E-01
   1   12   17     1    17    1.4782E+05 -3.0107E+03   1.5083E+05  0.000E+00  0.000E+00  0.000E+00  4.08090E+01  1.840E-01  2.000E+01  2.000E+04 -1.505E-01
   1   12   18     1    18    1.5083E+05 -3.0096E+03   1.5384E+05  0.000E+00  0.000E+00  0.000E+00  4.03339E+01  1.862E-01  2.000E+01  2.000E+04 -1.505E-01
   1   12   19     1    19    1.5384E+05 -4.0343E+03   1.5787E+05  0.000E+00  0.000E+00  0.000E+00  3.98592E+01  1.888E-01  2.000E+01  2.000E+04 -2.017E-01
   1   13   20     1    20    1.5787E+05 -2.9067E+03   1.6078E+05  0.000E+00  0.000E+00  0.000E+00  3.93845E+01  1.913E-01  2.000E+01  2.000E+04 -1.453E-01
   1   14   21     1    21    1.6078E+05 -2.3366E+03   1.6312E+05  0.000E+00  0.000E+00  0.000E+00  3.89091E+01  1.932E-01  2.000E+01  2.000E+04 -1.168E-01
   1   14   22     1    22    1.6312E+05  4.9621E+03   1.5815E+05  0.000E+00  0.000E+00  0.000E+00  3.84309E+01  1.922E-01  2.000E+01  2.000E+04  2.481E-01
   1    9   30     2     1    5.0000E+04 -2.7498E+03   5.2750E+04  0.000E+00  0.000E+00  0.000E+00  4.02428E+01  1.178E-01  2.000E+01  2.000E+04 -1.375E-01
   1    9   29     2     2    5.2750E+04 -3.0752E+03   5.5825E+04  0.000E+00  0.000E+00  0.000E+00  3.99967E+01  1.217E-01  2.000E+01  2.000E+04 -1.538E-01
   1    9   28     2     3    5.5825E+04 -3.4388E+03   5.9264E+04  0.000E+00  0.000E+00  0.000E+00  3.97511E+01  1.261E-01  2.000E+01  2.000E+04 -1.719E-01
   1    9   27     2     4    5.9264E+04 -6.0630E+03   6.5327E+04  0.000E+00  0.000E+00  0.000E+00  3.95072E+01  1.322E-01  2.000E+01  2.000E+04 -3.032E-01
   1   10   26     2     5    6.5327E+04 -3.6858E+03   6.9013E+04  0.000E+00  0.000E+00  0.000E+00  3.92633E+01  1.383E-01  2.000E+01  2.000E+04 -1.843E-01
   1   11   25     2     6    6.9013E+04 -2.6299E+03   7.1643E+04  0.000E+00  0.000E+00  0.000E+00  3.90172E+01  1.422E-01  2.000E+01  2.000E+04 -1.315E-01
   1   12   24     2     7    7.1643E+04 -1.7966E+03   7.3439E+04  0.000E+00  0.000E+00  0.000E+00  3.87699E+01  1.449E-01  2.000E+01  2.000E+04 -8.983E-02
   1   13   23     2     8    7.3439E+04 -1.0288E+03   7.4468E+04  0.000E+00  0.000E+00  0.000E+00  3.85215E+01  1.465E-01  2.000E+01  2.000E+04 -5.144E-02
   1   14   22     2     9    7.4468E+04  1.7667E+03   7.2701E+04  0.000E+00  0.000E+00  0.000E+00  3.82711E+01  1.461E-01  2.000E+01  2.000E+04  8.833E-02
   1   14   22     3     1    2.3085E+05 -8.5345E+03   2.3939E+05  0.000E+00  0.000E+00  0.000E+00  3.77560E+01  2.005E-01  2.000E+01  2.000E+04 -4.267E-01
   1   15   23     3     2    2.3939E+05 -3.0884E+03   2.4248E+05  0.000E+00  0.000E+00  0.000E+00  3.68701E+01  2.034E-01  2.000E+01  2.000E+04 -1.544E-01
   1   15   24     3     3    2.4248E+05 -2.1318E+03   2.4461E+05  0.000E+00  0.000E+00  0.000E+00  3.59825E+01  2.048E-01  2.000E+01  2.000E+04 -1.066E-01
   1   15   25     3     4    2.4461E+05 -2.0060E+03   2.4662E+05  0.000E+00  0.000E+00  0.000E+00  3.50947E+01  2.058E-01  2.000E+01  2.000E+04 -1.003E-01
   1   15   26     3     5    2.4662E+05 -2.3640E+03   2.4898E+05  0.000E+00  0.000E+00  0.000E+00  3.42069E+01  2.069E-01  2.000E+01  2.000E+04 -1.182E-01
   1   16   27     3     6    2.4898E+05 -3.3340E+03   2.5231E+05  0.000E+00  0.000E+00  0.000E+00  3.33194E+01  2.083E-01  2.000E+01  2.000E+04 -1.667E-01
   1   17   28     3     7    2.5231E+05 -4.1611E+03   2.5647E+05  0.000E+00  0.000E+00  0.000E+00  3.24324E+01  2.102E-01  2.000E+01  2.000E+04 -2.081E-01
   1   18   29     3     8    2.5647E+05 -5.8376E+03   2.6231E+05  0.000E+00  0.000E+00  0.000E+00  3.15460E+01  2.127E-01  2.000E+01  2.000E+04 -2.919E-01
   1   18   30     3     9    2.6231E+05 -4.8578E+03   2.6717E+05  0.000E+00  0.000E+00  0.000E+00  3.06597E+01  2.153E-01  2.000E+01  2.000E+04 -2.429E-01



1
              HEAD IN LAYER   1 AT END OF TIME STEP   1 IN STRESS PERIOD    8
  ---------------------------------------------------------------------------

          1      2      3      4      5      6      7      8      9     10
         11     12     13     14     15     16     17     18     19     20
         21     22     23     24     25     26     27     28     29     30
 .........................................................................
   1  ****** ****** ****** ****** ****** ****** ****** ****** ****** ******
      ****** ****** ****** ****** ****** ****** ****** ****** ****** ******
      ****** ****** ****** ****** ****** ****** ****** ****** ****** ******
   2  ****** ****** ****** ****** ****** ****** ****** ****** ****** ******
      ****** ****** ****** ****** ****** ****** ****** ****** ****** ******
      ****** ****** ****** ****** ****** ****** ****** ****** ****** ******
   3  ****** ****** ****** ****** ****** ****** ****** ****** ****** ******
      ****** ****** ****** ****** ****** ****** ****** ****** ****** ******
      ****** ****** ****** ****** ****** ****** ****** ****** ****** ******
   4  ****** ****** ****** ****** ****** ****** ****** ****** ****** ******
      ****** ****** ****** ****** ****** ****** ****** ****** ****** ******
      ****** ****** ****** ****** ****** ****** ****** ****** ****** ******
   5  ****** ****** ****** ****** ****** ****** ****** ****** ****** ******
      ****** ****** ****** ****** ****** ****** ****** ****** ****** ******
      ****** ****** ****** ****** ****** ****** ****** ****** ****** ******
   6  ****** ****** ****** ****** ****** ****** ****** ****** ****** ******
      ****** ****** ****** ****** ****** ****** ****** ****** ****** ******
      ****** ****** ****** ****** ****** ****** ****** ****** ****** ******
   7  ****** ****** ****** ****** ****** ****** ****** ****** ****** ******
      ****** ****** ****** ****** ****** ****** ****** ****** ****** ******
      ****** ****** ****** ****** ****** ****** ****** ****** ****** ******
   8  ****** ****** ****** ****** ****** ****** ****** ****** ****** ******
      ****** ****** ****** ****** ****** ****** ****** ****** ****** ******
      ****** ****** ****** ****** ****** ****** ****** ****** ****** ******
   9  ****** ****** ****** ****** ****** ****** ****** ****** ****** ******
      ****** ****** ****** ****** ****** ****** ****** ****** ****** ******
      ****** ****** ****** ****** ****** ****** ****** ****** ****** ******
  10  ****** ****** ****** ****** ****** ****** ****** ****** ****** ******
      ****** ****** ****** ****** ****** ****** ****** ****** ****** ******
      ****** ****** ****** ****** ****** ****** ****** ****** ****** ******
  11  ****** ****** ****** ****** ****** ****** ****** ****** ****** ******
      ****** ****** ****** ****** ****** ****** ****** ****** ****** ******
      ****** ****** ****** ****** ****** ****** ****** ****** ****** ******
  12  ****** ****** ****** ****** ****** ****** ****** ****** ****** ******
      ****** ****** ****** ****** ****** ****** ****** ****** ****** ******
      ****** ****** ****** ****** ****** ****** ****** ****** ****** ******
  13  ****** ****** ****** ****** ****** ****** ****** ****** ****** ******
      ****** ****** ****** ****** ****** ****** ****** ****** ****** ******
      ****** ****** ****** ****** ****** ****** ****** ****** ****** ******
  14  ****** ****** ****** ****** ****** ****** ****** ****** ****** ******
      ****** ****** ****** ****** ****** ****** ****** ****** ****** ******
      ****** ****** ****** ****** ****** ****** ****** ****** ****** ******
  15  ****** ****** ****** ****** ****** ****** ****** ****** ****** ******
      ****** ****** ****** ****** ****** ****** ****** ****** ****** ******
      ****** ****** ****** ****** ****** ****** ****** ****** ****** ******
  16  ****** ****** ****** ****** ****** ****** ****** ****** ****** ******
      ****** ****** ****** ****** ****** ****** ****** ****** ****** ******
      ****** ****** ****** ****** ****** ****** ****** ****** ****** ******
  17  ****** ****** ****** ****** ****** ****** ****** ****** ****** ******
      ****** ****** ****** ****** ****** ****** ****** ****** ****** ******
      ****** ****** ****** ****** ****** ****** ****** ****** ****** ******
  18  ****** ****** ****** ****** ****** ****** ****** ****** ****** ******
      ****** ****** ****** ****** ****** ****** ****** ****** ****** ******
      ****** ****** ****** ****** ****** ****** ****** ****** ****** ******
  19  ****** ****** ****** ****** ****** ****** ****** ****** ****** ******
      ****** ****** ****** ****** ****** ****** ****** ****** ****** ******
      ****** ****** ****** ****** ****** ****** ****** ****** ****** ******
  20  ****** ****** ****** ****** ****** ****** ****** ****** ****** ******
      ****** ****** ****** ****** ****** ****** ****** ****** ****** ******
      ****** ****** ****** ****** ****** ****** ****** ****** ****** ******
  21  ****** ****** ****** ****** ****** ****** ****** ****** ****** ******
      ****** ****** ****** ****** ****** ****** ****** ****** ****** ******
      ****** ****** ****** ****** ****** ****** ****** ****** ****** ******
  22  ****** ****** ****** ****** ****** ****** ****** ****** ****** ******
      ****** ****** ****** ****** ****** ****** ****** ****** ****** ******
      ****** ****** ****** ****** ****** ****** ****** ****** ****** ******
  23  ****** ****** ****** ****** ****** ****** ****** ****** ****** ******
      ****** ****** ****** ****** ****** ****** ****** ****** ****** ******
      ****** ****** ****** ****** ****** ****** ****** ****** ****** ******
  24  ****** ****** ****** ****** ****** ****** ****** ****** ****** ******
      ****** ****** ****** ****** ****** ****** ****** ****** ****** ******
      ****** ****** ****** ****** ****** ****** ****** ****** ****** ******
  25  ****** ****** ****** ****** ****** ****** ****** ****** ****** ******
      ****** ****** ****** ****** ****** ****** ****** ****** ****** ******
      ****** ****** ****** ****** ****** ****** ****** ****** ****** ******

 HEAD WILL BE SAVED ON UNIT   51 AT END OF TIME STEP    1, STRESS PERIOD    8
1
  VOLUMETRIC BUDGET FOR ENTIRE MODEL AT END OF TIME STEP    1, STRESS PERIOD   8
  ------------------------------------------------------------------------------

     CUMULATIVE VOLUMES      L**3       RATES FOR THIS TIME STEP      L**3/T
     ------------------                 ------------------------

           IN:                                      IN:
           ---                                      ---
             STORAGE =    25261150.5969               STORAGE =           0.0000
       CONSTANT HEAD =   133314095.5771         CONSTANT HEAD =      193192.0747
               WELLS =           0.0000                 WELLS =           0.0000
            RECHARGE =    17608800.0000              RECHARGE =       27600.0000
      STREAM LEAKAGE =     4710916.4658        STREAM LEAKAGE =        6728.7407

            TOTAL IN =   180894962.6398              TOTAL IN =      227520.8154

          OUT:                                     OUT:
          ----                                     ----
             STORAGE =     1256724.7425               STORAGE =        3600.8838
       CONSTANT HEAD =           0.0000         CONSTANT HEAD =           0.0000
               WELLS =    73015667.6420                 WELLS =      100021.4625
            RECHARGE =           0.0000              RECHARGE =           0.0000
      STREAM LEAKAGE =   106622571.1434        STREAM LEAKAGE =      123898.4682

           TOTAL OUT =   180894963.5279             TOTAL OUT =      227520.8145

            IN - OUT =          -0.8881              IN - OUT =       8.3956E-04

 PERCENT DISCREPANCY =          -0.00     PERCENT DISCREPANCY =           0.00






         TIME SUMMARY AT END OF TIME STEP    1 IN STRESS PERIOD    8
                    SECONDS     MINUTES      HOURS       DAYS        YEARS
                    -----------------------------------------------------------
   TIME STEP LENGTH 7.86240E+06 1.31040E+05  2184.0      91.000     0.24914    
 STRESS PERIOD TIME 7.86240E+06 1.31040E+05  2184.0      91.000     0.24914    
         TOTAL TIME 6.30720E+07 1.05120E+06  17520.      730.00      1.9986    
1
1
                            STRESS PERIOD NO.    9, LENGTH =   92.00000    
                            -----------------------------------------------

                              NUMBER OF TIME STEPS =     1

                               MULTIPLIER FOR DELT =     1.500

                            INITIAL TIME STEP SIZE =   92.00000    

 WELL NO.  LAYER   ROW   COL   STRESS RATE         
 --------------------------------------------------
      1      1     23      9     -0.3450E+05
      2      1      3      9     -0.3274E+05
      3      1      3     14     -0.3278E+05

      3 WELLS

                 RECHARGE =  5.000000E-04

 REUSING STREAM SEGMENT DATA FROM LAST STRESS PERIOD
 
 SOLVING FOR HEAD 


     6 CALLS TO PCG ROUTINE FOR TIME STEP   1 IN STRESS PERIOD    9
    22 TOTAL ITERATIONS

 OUTPUT CONTROL FOR STRESS PERIOD    9   TIME STEP    1
    SAVE BUDGET
    SAVE HEAD FOR ALL LAYERS
    PRINT HEAD FOR ALL LAYERS
 UBDSV2 SAVING "STREAMFLOW OUT  " ON UNIT  50 AT TIME STEP  1, STRESS PERIOD   9



 STREAM LISTING     PERIOD      9   STEP        1

 LAYER ROW COL. STREAM  RCH.  FLOW INTO     FLOW TO   FLOW OUT OF   OVRLND.     DIRECT     STREAM       STREAM     STREAM     STREAM   STREAMBED  STREAMBED
                SEG.NO.  NO.  STRM. RCH.    AQUIFER    STRM. RCH.    RUNOFF     PRECIP       ET          HEAD       DEPTH      WIDTH   CONDCTNC.   GRADIENT

   1   13    1     1     1    1.0000E+05 -2.2094E+03   1.0221E+05  0.000E+00  0.000E+00  0.000E+00  4.84070E+01  1.456E-01  2.000E+01  2.000E+04 -1.105E-01
   1   13    2     1     2    1.0221E+05 -3.8028E+03   1.0601E+05  0.000E+00  0.000E+00  0.000E+00  4.79323E+01  1.482E-01  2.000E+01  2.000E+04 -1.901E-01
   1   14    3     1     3    1.0601E+05 -3.0020E+03   1.0901E+05  0.000E+00  0.000E+00  0.000E+00  4.74579E+01  1.511E-01  2.000E+01  2.000E+04 -1.501E-01
   1   15    4     1     4    1.0901E+05 -2.9131E+03   1.1193E+05  0.000E+00  0.000E+00  0.000E+00  4.69831E+01  1.536E-01  2.000E+01  2.000E+04 -1.457E-01
   1   16    5     1     5    1.1193E+05 -3.1143E+03   1.1504E+05  0.000E+00  0.000E+00  0.000E+00  4.65083E+01  1.561E-01  2.000E+01  2.000E+04 -1.557E-01
   1   16    6     1     6    1.1504E+05 -2.3324E+03   1.1737E+05  0.000E+00  0.000E+00  0.000E+00  4.60333E+01  1.583E-01  2.000E+01  2.000E+04 -1.166E-01
   1   16    7     1     7    1.1737E+05 -2.2883E+03   1.1966E+05  0.000E+00  0.000E+00  0.000E+00  4.55579E+01  1.602E-01  2.000E+01  2.000E+04 -1.144E-01
   1   16    8     1     8    1.1966E+05 -2.2480E+03   1.2191E+05  0.000E+00  0.000E+00  0.000E+00  4.50825E+01  1.620E-01  2.000E+01  2.000E+04 -1.124E-01
   1   16    9     1     9    1.2191E+05 -2.2239E+03   1.2413E+05  0.000E+00  0.000E+00  0.000E+00  4.46070E+01  1.638E-01  2.000E+01  2.000E+04 -1.112E-01
   1   16   10     1    10    1.2413E+05 -2.2323E+03   1.2637E+05  0.000E+00  0.000E+00  0.000E+00  4.41315E+01  1.656E-01  2.000E+01  2.000E+04 -1.116E-01
   1   16   11     1    11    1.2637E+05 -2.2922E+03   1.2866E+05  0.000E+00  0.000E+00  0.000E+00  4.36560E+01  1.674E-01  2.000E+01  2.000E+04 -1.146E-01
   1   16   12     1    12    1.2866E+05 -3.3107E+03   1.3197E+05  0.000E+00  0.000E+00  0.000E+00  4.31809E+01  1.696E-01  2.000E+01  2.000E+04 -1.655E-01
   1   15   13     1    13    1.3197E+05 -3.1394E+03   1.3511E+05  0.000E+00  0.000E+00  0.000E+00  4.27062E+01  1.721E-01  2.000E+01  2.000E+04 -1.570E-01
   1   14   14     1    14    1.3511E+05 -3.1542E+03   1.3826E+05  0.000E+00  0.000E+00  0.000E+00  4.22313E+01  1.745E-01  2.000E+01  2.000E+04 -1.577E-01
   1   13   15     1    15    1.3826E+05 -3.3030E+03   1.4157E+05  0.000E+00  0.000E+00  0.000E+00  4.17565E+01  1.769E-01  2.000E+01  2.000E+04 -1.651E-01
   1   12   16     1    16    1.4157E+05 -4.1065E+03   1.4567E+05  0.000E+00  0.000E+00  0.000E+00  4.12820E+01  1.797E-01  2.000E+01  2.000E+04 -2.053E-01
   1   12   17     1    17    1.4567E+05 -2.8998E+03   1.4857E+05  0.000E+00  0.000E+00  0.000E+00  4.08074E+01  1.824E-01  2.000E+01  2.000E+04 -1.450E-01
   1   12   18     1    18    1.4857E+05 -2.9009E+03   1.5147E+05  0.000E+00  0.000E+00  0.000E+00  4.03322E+01  1.845E-01  2.000E+01  2.000E+04 -1.450E-01
   1   12   19     1    19    1.5147E+05 -3.9024E+03   1.5538E+05  0.000E+00  0.000E+00  0.000E+00  3.98575E+01  1.870E-01  2.000E+01  2.000E+04 -1.951E-01
   1   13   20     1    20    1.5538E+05 -2.7770E+03   1.5815E+05  0.000E+00  0.000E+00  0.000E+00  3.93826E+01  1.894E-01  2.000E+01  2.000E+04 -1.388E-01
   1   14   21     1    21    1.5815E+05 -2.2188E+03   1.6037E+05  0.000E+00  0.000E+00  0.000E+00  3.89072E+01  1.912E-01  2.000E+01  2.000E+04 -1.109E-01
   1   14   22     1    22    1.6037E+05  4.9850E+03   1.5539E+05  0.000E+00  0.000E+00  0.000E+00  3.84289E+01  1.902E-01  2.000E+01  2.000E+04  2.493E-01
   1    9   30     2     1    5.0000E+04 -2.6502E+03   5.2650E+04  0.000E+00  0.000E+00  0.000E+00  4.02427E+01  1.177E-01  2.000E+01  2.000E+04 -1.325E-01
   1    9   29     2     2    5.2650E+04 -2.9763E+03   5.5627E+04  0.000E+00  0.000E+00  0.000E+00  3.99965E+01  1.215E-01  2.000E+01  2.000E+04 -1.488E-01
   1    9   28     2     3    5.5627E+04 -3.3404E+03   5.8967E+04  0.000E+00  0.000E+00  0.000E+00  3.97507E+01  1.257E-01  2.000E+01  2.000E+04 -1.670E-01
   1    9   27     2     4    5.8967E+04 -5.9336E+03   6.4900E+04  0.000E+00  0.000E+00  0.000E+00  3.95067E+01  1.317E-01  2.000E+01  2.000E+04 -2.967E-01
   1   10   26     2     5    6.4900E+04 -3.5497E+03   6.8450E+04  0.000E+00  0.000E+00  0.000E+00  3.92627E+01  1.377E-01  2.000E+01  2.000E+04 -1.775E-01
   1   11   25     2     6    6.8450E+04 -2.4984E+03   7.0949E+04  0.000E+00  0.000E+00  0.000E+00  3.90164E+01  1.414E-01  2.000E+01  2.000E+04 -1.249E-01
   1   12   24     2     7    7.0949E+04 -1.6784E+03   7.2627E+04  0.000E+00  0.000E+00  0.000E+00  3.87689E+01  1.439E-01  2.000E+01  2.000E+04 -8.392E-02
   1   13   23     2     8    7.2627E+04 -9.3441E+02   7.3561E+04  0.000E+00  0.000E+00  0.000E+00  3.85205E+01  1.455E-01  2.000E+01  2.000E+04 -4.672E-02
   1   14   22     2     9    7.3561E+04  1.8072E+03   7.1754E+04  0.000E+00  0.000E+00  0.000E+00  3.82700E+01  1.450E-01  2.000E+01  2.000E+04  9.036E-02
   1   14   22     3     1    2.2714E+05 -8.5101E+03   2.3565E+05  0.000E+00  0.000E+00  0.000E+00  3.77541E+01  1.986E-01  2.000E+01  2.000E+04 -4.255E-01
   1   15   23     3     2    2.3565E+05 -2.9787E+03   2.3863E+05  0.000E+00  0.000E+00  0.000E+00  3.68682E+01  2.015E-01  2.000E+01  2.000E+04 -1.489E-01
   1   15   24     3     3    2.3863E+05 -2.0501E+03   2.4068E+05  0.000E+00  0.000E+00  0.000E+00  3.59806E+01  2.028E-01  2.000E+01  2.000E+04 -1.025E-01
   1   15   25     3     4    2.4068E+05 -1.9236E+03   2.4260E+05  0.000E+00  0.000E+00  0.000E+00  3.50927E+01  2.038E-01  2.000E+01  2.000E+04 -9.618E-02
   1   15   26     3     5    2.4260E+05 -2.2585E+03   2.4486E+05  0.000E+00  0.000E+00  0.000E+00  3.42049E+01  2.049E-01  2.000E+01  2.000E+04 -1.129E-01
   1   16   27     3     6    2.4486E+05 -3.2039E+03   2.4807E+05  0.000E+00  0.000E+00  0.000E+00  3.33173E+01  2.062E-01  2.000E+01  2.000E+04 -1.602E-01
   1   17   28     3     7    2.4807E+05 -4.0288E+03   2.5209E+05  0.000E+00  0.000E+00  0.000E+00  3.24303E+01  2.080E-01  2.000E+01  2.000E+04 -2.014E-01
   1   18   29     3     8    2.5209E+05 -5.7147E+03   2.5781E+05  0.000E+00  0.000E+00  0.000E+00  3.15438E+01  2.105E-01  2.000E+01  2.000E+04 -2.857E-01
   1   18   30     3     9    2.5781E+05 -4.7636E+03   2.6257E+05  0.000E+00  0.000E+00  0.000E+00  3.06575E+01  2.130E-01  2.000E+01  2.000E+04 -2.382E-01



1
              HEAD IN LAYER   1 AT END OF TIME STEP   1 IN STRESS PERIOD    9
  ---------------------------------------------------------------------------

          1      2      3      4      5      6      7      8      9     10
         11     12     13     14     15     16     17     18     19     20
         21     22     23     24     25     26     27     28     29     30
 .........................................................................
   1  ****** ****** ****** ****** ****** ****** ****** ****** ****** ******
      ****** ****** ****** ****** ****** ****** ****** ****** ****** ******
      ****** ****** ****** ****** ****** ****** ****** ****** ****** ******
   2  ****** ****** ****** ****** ****** ****** ****** ****** ****** ******
      ****** ****** ****** ****** ****** ****** ****** ****** ****** ******
      ****** ****** ****** ****** ****** ****** ****** ****** ****** ******
   3  ****** ****** ****** ****** ****** ****** ****** ****** ****** ******
      ****** ****** ****** ****** ****** ****** ****** ****** ****** ******
      ****** ****** ****** ****** ****** ****** ****** ****** ****** ******
   4  ****** ****** ****** ****** ****** ****** ****** ****** ****** ******
      ****** ****** ****** ****** ****** ****** ****** ****** ****** ******
      ****** ****** ****** ****** ****** ****** ****** ****** ****** ******
   5  ****** ****** ****** ****** ****** ****** ****** ****** ****** ******
      ****** ****** ****** ****** ****** ****** ****** ****** ****** ******
      ****** ****** ****** ****** ****** ****** ****** ****** ****** ******
   6  ****** ****** ****** ****** ****** ****** ****** ****** ****** ******
      ****** ****** ****** ****** ****** ****** ****** ****** ****** ******
      ****** ****** ****** ****** ****** ****** ****** ****** ****** ******
   7  ****** ****** ****** ****** ****** ****** ****** ****** ****** ******
      ****** ****** ****** ****** ****** ****** ****** ****** ****** ******
      ****** ****** ****** ****** ****** ****** ****** ****** ****** ******
   8  ****** ****** ****** ****** ****** ****** ****** ****** ****** ******
      ****** ****** ****** ****** ****** ****** ****** ****** ****** ******
      ****** ****** ****** ****** ****** ****** ****** ****** ****** ******
   9  ****** ****** ****** ****** ****** ****** ****** ****** ****** ******
      ****** ****** ****** ****** ****** ****** ****** ****** ****** ******
      ****** ****** ****** ****** ****** ****** ****** ****** ****** ******
  10  ****** ****** ****** ****** ****** ****** ****** ****** ****** ******
      ****** ****** ****** ****** ****** ****** ****** ****** ****** ******
      ****** ****** ****** ****** ****** ****** ****** ****** ****** ******
  11  ****** ****** ****** ****** ****** ****** ****** ****** ****** ******
      ****** ****** ****** ****** ****** ****** ****** ****** ****** ******
      ****** ****** ****** ****** ****** ****** ****** ****** ****** ******
  12  ****** ****** ****** ****** ****** ****** ****** ****** ****** ******
      ****** ****** ****** ****** ****** ****** ****** ****** ****** ******
      ****** ****** ****** ****** ****** ****** ****** ****** ****** ******
  13  ****** ****** ****** ****** ****** ****** ****** ****** ****** ******
      ****** ****** ****** ****** ****** ****** ****** ****** ****** ******
      ****** ****** ****** ****** ****** ****** ****** ****** ****** ******
  14  ****** ****** ****** ****** ****** ****** ****** ****** ****** ******
      ****** ****** ****** ****** ****** ****** ****** ****** ****** ******
      ****** ****** ****** ****** ****** ****** ****** ****** ****** ******
  15  ****** ****** ****** ****** ****** ****** ****** ****** ****** ******
      ****** ****** ****** ****** ****** ****** ****** ****** ****** ******
      ****** ****** ****** ****** ****** ****** ****** ****** ****** ******
  16  ****** ****** ****** ****** ****** ****** ****** ****** ****** ******
      ****** ****** ****** ****** ****** ****** ****** ****** ****** ******
      ****** ****** ****** ****** ****** ****** ****** ****** ****** ******
  17  ****** ****** ****** ****** ****** ****** ****** ****** ****** ******
      ****** ****** ****** ****** ****** ****** ****** ****** ****** ******
      ****** ****** ****** ****** ****** ****** ****** ****** ****** ******
  18  ****** ****** ****** ****** ****** ****** ****** ****** ****** ******
      ****** ****** ****** ****** ****** ****** ****** ****** ****** ******
      ****** ****** ****** ****** ****** ****** ****** ****** ****** ******
  19  ****** ****** ****** ****** ****** ****** ****** ****** ****** ******
      ****** ****** ****** ****** ****** ****** ****** ****** ****** ******
      ****** ****** ****** ****** ****** ****** ****** ****** ****** ******
  20  ****** ****** ****** ****** ****** ****** ****** ****** ****** ******
      ****** ****** ****** ****** ****** ****** ****** ****** ****** ******
      ****** ****** ****** ****** ****** ****** ****** ****** ****** ******
  21  ****** ****** ****** ****** ****** ****** ****** ****** ****** ******
      ****** ****** ****** ****** ****** ****** ****** ****** ****** ******
      ****** ****** ****** ****** ****** ****** ****** ****** ****** ******
  22  ****** ****** ****** ****** ****** ****** ****** ****** ****** ******
      ****** ****** ****** ****** ****** ****** ****** ****** ****** ******
      ****** ****** ****** ****** ****** ****** ****** ****** ****** ******
  23  ****** ****** ****** ****** ****** ****** ****** ****** ****** ******
      ****** ****** ****** ****** ****** ****** ****** ****** ****** ******
      ****** ****** ****** ****** ****** ****** ****** ****** ****** ******
  24  ****** ****** ****** ****** ****** ****** ****** ****** ****** ******
      ****** ****** ****** ****** ****** ****** ****** ****** ****** ******
      ****** ****** ****** ****** ****** ****** ****** ****** ****** ******
  25  ****** ****** ****** ****** ****** ****** ****** ****** ****** ******
      ****** ****** ****** ****** ****** ****** ****** ****** ****** ******
      ****** ****** ****** ****** ****** ****** ****** ****** ****** ******

 HEAD WILL BE SAVED ON UNIT   51 AT END OF TIME STEP    1, STRESS PERIOD    9
1
  VOLUMETRIC BUDGET FOR ENTIRE MODEL AT END OF TIME STEP    1, STRESS PERIOD   9
  ------------------------------------------------------------------------------

     CUMULATIVE VOLUMES      L**3       RATES FOR THIS TIME STEP      L**3/T
     ------------------                 ------------------------

           IN:                                      IN:
           ---                                      ---
             STORAGE =    25509061.5144               STORAGE =        2694.6839
       CONSTANT HEAD =   151355233.5263         CONSTANT HEAD =      196099.3255
               WELLS =           0.0000                 WELLS =           0.0000
            RECHARGE =    18878400.0000              RECHARGE =       13800.0000
      STREAM LEAKAGE =     5335797.9408        STREAM LEAKAGE =        6792.1899

            TOTAL IN =   201078492.9815              TOTAL IN =      219386.1994

          OUT:                                     OUT:
          ----                                     ----
             STORAGE =     1256724.7425               STORAGE =           0.0000
       CONSTANT HEAD =           0.0000         CONSTANT HEAD =           0.0000
               WELLS =    82217642.1942                 WELLS =      100021.4625
            RECHARGE =           0.0000              RECHARGE =           0.0000
      STREAM LEAKAGE =   117604127.2196        STREAM LEAKAGE =      119364.7400

           TOTAL OUT =   201078494.1562             TOTAL OUT =      219386.2025

            IN - OUT =          -1.1748              IN - OUT =      -3.1155E-03

 PERCENT DISCREPANCY =          -0.00     PERCENT DISCREPANCY =          -0.00






         TIME SUMMARY AT END OF TIME STEP    1 IN STRESS PERIOD    9
                    SECONDS     MINUTES      HOURS       DAYS        YEARS
                    -----------------------------------------------------------
   TIME STEP LENGTH 7.94880E+06 1.32480E+05  2208.0      92.000     0.25188    
 STRESS PERIOD TIME 7.94880E+06 1.32480E+05  2208.0      92.000     0.25188    
         TOTAL TIME 7.10208E+07 1.18368E+06  19728.      822.00      2.2505    
1
1
                            STRESS PERIOD NO.   10, LENGTH =   91.00000    
                            -----------------------------------------------

                              NUMBER OF TIME STEPS =     1

                               MULTIPLIER FOR DELT =     1.500

                            INITIAL TIME STEP SIZE =   91.00000    

 WELL NO.  LAYER   ROW   COL   STRESS RATE         
 --------------------------------------------------
      1      1     23      9     -0.3450E+05
      2      1      3      9     -0.3274E+05
      3      1      3     14     -0.3278E+05

      3 WELLS

                 RECHARGE =  2.000000E-03

 REUSING STREAM SEGMENT DATA FROM LAST STRESS PERIOD
 
 SOLVING FOR HEAD 


     7 CALLS TO PCG ROUTINE FOR TIME STEP   1 IN STRESS PERIOD   10
    26 TOTAL ITERATIONS

 OUTPUT CONTROL FOR STRESS PERIOD   10   TIME STEP    1
    SAVE BUDGET
    SAVE HEAD FOR ALL LAYERS
    PRINT HEAD FOR ALL LAYERS
 UBDSV2 SAVING "STREAMFLOW OUT  " ON UNIT  50 AT TIME STEP  1, STRESS PERIOD  10



 STREAM LISTING     PERIOD     10   STEP        1

 LAYER ROW COL. STREAM  RCH.  FLOW INTO     FLOW TO   FLOW OUT OF   OVRLND.     DIRECT     STREAM       STREAM     STREAM     STREAM   STREAMBED  STREAMBED
                SEG.NO.  NO.  STRM. RCH.    AQUIFER    STRM. RCH.    RUNOFF     PRECIP       ET          HEAD       DEPTH      WIDTH   CONDCTNC.   GRADIENT

   1   13    1     1     1    1.0000E+05 -2.6323E+03   1.0263E+05  0.000E+00  0.000E+00  0.000E+00  4.84072E+01  1.458E-01  2.000E+01  2.000E+04 -1.316E-01
   1   13    2     1     2    1.0263E+05 -4.3645E+03   1.0700E+05  0.000E+00  0.000E+00  0.000E+00  4.79329E+01  1.488E-01  2.000E+01  2.000E+04 -2.182E-01
   1   14    3     1     3    1.0700E+05 -3.5684E+03   1.1057E+05  0.000E+00  0.000E+00  0.000E+00  4.74590E+01  1.521E-01  2.000E+01  2.000E+04 -1.784E-01
   1   15    4     1     4    1.1057E+05 -3.4726E+03   1.1404E+05  0.000E+00  0.000E+00  0.000E+00  4.69846E+01  1.551E-01  2.000E+01  2.000E+04 -1.736E-01
   1   16    5     1     5    1.1404E+05 -3.6293E+03   1.1767E+05  0.000E+00  0.000E+00  0.000E+00  4.65103E+01  1.580E-01  2.000E+01  2.000E+04 -1.815E-01
   1   16    6     1     6    1.1767E+05 -2.7397E+03   1.2041E+05  0.000E+00  0.000E+00  0.000E+00  4.60356E+01  1.606E-01  2.000E+01  2.000E+04 -1.370E-01
   1   16    7     1     7    1.2041E+05 -2.7023E+03   1.2311E+05  0.000E+00  0.000E+00  0.000E+00  4.55605E+01  1.628E-01  2.000E+01  2.000E+04 -1.351E-01
   1   16    8     1     8    1.2311E+05 -2.6659E+03   1.2577E+05  0.000E+00  0.000E+00  0.000E+00  4.50854E+01  1.649E-01  2.000E+01  2.000E+04 -1.333E-01
   1   16    9     1     9    1.2577E+05 -2.6416E+03   1.2842E+05  0.000E+00  0.000E+00  0.000E+00  4.46102E+01  1.670E-01  2.000E+01  2.000E+04 -1.321E-01
   1   16   10     1    10    1.2842E+05 -2.6462E+03   1.3106E+05  0.000E+00  0.000E+00  0.000E+00  4.41350E+01  1.691E-01  2.000E+01  2.000E+04 -1.323E-01
   1   16   11     1    11    1.3106E+05 -2.7002E+03   1.3376E+05  0.000E+00  0.000E+00  0.000E+00  4.36598E+01  1.712E-01  2.000E+01  2.000E+04 -1.350E-01
   1   16   12     1    12    1.3376E+05 -3.8353E+03   1.3760E+05  0.000E+00  0.000E+00  0.000E+00  4.31851E+01  1.737E-01  2.000E+01  2.000E+04 -1.918E-01
   1   15   13     1    13    1.3760E+05 -3.7112E+03   1.4131E+05  0.000E+00  0.000E+00  0.000E+00  4.27107E+01  1.766E-01  2.000E+01  2.000E+04 -1.856E-01
   1   14   14     1    14    1.4131E+05 -3.7375E+03   1.4505E+05  0.000E+00  0.000E+00  0.000E+00  4.22362E+01  1.794E-01  2.000E+01  2.000E+04 -1.869E-01
   1   13   15     1    15    1.4505E+05 -3.8773E+03   1.4892E+05  0.000E+00  0.000E+00  0.000E+00  4.17618E+01  1.823E-01  2.000E+01  2.000E+04 -1.939E-01
   1   12   16     1    16    1.4892E+05 -4.6585E+03   1.5358E+05  0.000E+00  0.000E+00  0.000E+00  4.12877E+01  1.854E-01  2.000E+01  2.000E+04 -2.329E-01
   1   12   17     1    17    1.5358E+05 -3.3080E+03   1.5689E+05  0.000E+00  0.000E+00  0.000E+00  4.08133E+01  1.883E-01  2.000E+01  2.000E+04 -1.654E-01
   1   12   18     1    18    1.5689E+05 -3.3012E+03   1.6019E+05  0.000E+00  0.000E+00  0.000E+00  4.03385E+01  1.907E-01  2.000E+01  2.000E+04 -1.651E-01
   1   12   19     1    19    1.6019E+05 -4.3899E+03   1.6458E+05  0.000E+00  0.000E+00  0.000E+00  3.98639E+01  1.935E-01  2.000E+01  2.000E+04 -2.195E-01
   1   13   20     1    20    1.6458E+05 -3.2497E+03   1.6783E+05  0.000E+00  0.000E+00  0.000E+00  3.93894E+01  1.962E-01  2.000E+01  2.000E+04 -1.625E-01
   1   14   21     1    21    1.6783E+05 -2.6542E+03   1.7049E+05  0.000E+00  0.000E+00  0.000E+00  3.89142E+01  1.983E-01  2.000E+01  2.000E+04 -1.327E-01
   1   14   22     1    22    1.7049E+05  4.9054E+03   1.6558E+05  0.000E+00  0.000E+00  0.000E+00  3.84361E+01  1.975E-01  2.000E+01  2.000E+04  2.453E-01
   1    9   30     2     1    5.0000E+04 -3.0115E+03   5.3011E+04  0.000E+00  0.000E+00  0.000E+00  4.02429E+01  1.179E-01  2.000E+01  2.000E+04 -1.506E-01
   1    9   29     2     2    5.3011E+04 -3.3349E+03   5.6346E+04  0.000E+00  0.000E+00  0.000E+00  3.99973E+01  1.223E-01  2.000E+01  2.000E+04 -1.667E-01
   1    9   28     2     3    5.6346E+04 -3.6975E+03   6.0044E+04  0.000E+00  0.000E+00  0.000E+00  3.97519E+01  1.269E-01  2.000E+01  2.000E+04 -1.849E-01
   1    9   27     2     4    6.0044E+04 -6.4131E+03   6.6457E+04  0.000E+00  0.000E+00  0.000E+00  3.95084E+01  1.334E-01  2.000E+01  2.000E+04 -3.207E-01
   1   10   26     2     5    6.6457E+04 -4.0450E+03   7.0502E+04  0.000E+00  0.000E+00  0.000E+00  3.92649E+01  1.399E-01  2.000E+01  2.000E+04 -2.023E-01
   1   11   25     2     6    7.0502E+04 -2.9722E+03   7.3474E+04  0.000E+00  0.000E+00  0.000E+00  3.90192E+01  1.442E-01  2.000E+01  2.000E+04 -1.486E-01
   1   12   24     2     7    7.3474E+04 -2.0971E+03   7.5571E+04  0.000E+00  0.000E+00  0.000E+00  3.87722E+01  1.472E-01  2.000E+01  2.000E+04 -1.049E-01
   1   13   23     2     8    7.5571E+04 -1.2607E+03   7.6832E+04  0.000E+00  0.000E+00  0.000E+00  3.85242E+01  1.492E-01  2.000E+01  2.000E+04 -6.303E-02
   1   14   22     2     9    7.6832E+04  1.6619E+03   7.5170E+04  0.000E+00  0.000E+00  0.000E+00  3.82740E+01  1.490E-01  2.000E+01  2.000E+04  8.309E-02
   1   14   22     3     1    2.4075E+05 -8.5958E+03   2.4935E+05  0.000E+00  0.000E+00  0.000E+00  3.77611E+01  2.055E-01  2.000E+01  2.000E+04 -4.298E-01
   1   15   23     3     2    2.4935E+05 -3.3849E+03   2.5273E+05  0.000E+00  0.000E+00  0.000E+00  3.68752E+01  2.085E-01  2.000E+01  2.000E+04 -1.692E-01
   1   15   24     3     3    2.5273E+05 -2.3423E+03   2.5507E+05  0.000E+00  0.000E+00  0.000E+00  3.59877E+01  2.099E-01  2.000E+01  2.000E+04 -1.171E-01
   1   15   25     3     4    2.5507E+05 -2.2155E+03   2.5729E+05  0.000E+00  0.000E+00  0.000E+00  3.51000E+01  2.111E-01  2.000E+01  2.000E+04 -1.108E-01
   1   15   26     3     5    2.5729E+05 -2.6332E+03   2.5992E+05  0.000E+00  0.000E+00  0.000E+00  3.42123E+01  2.123E-01  2.000E+01  2.000E+04 -1.317E-01
   1   16   27     3     6    2.5992E+05 -3.6755E+03   2.6360E+05  0.000E+00  0.000E+00  0.000E+00  3.33249E+01  2.138E-01  2.000E+01  2.000E+04 -1.838E-01
   1   17   28     3     7    2.6360E+05 -4.5106E+03   2.6811E+05  0.000E+00  0.000E+00  0.000E+00  3.24380E+01  2.158E-01  2.000E+01  2.000E+04 -2.255E-01
   1   18   29     3     8    2.6811E+05 -6.1677E+03   2.7428E+05  0.000E+00  0.000E+00  0.000E+00  3.15517E+01  2.184E-01  2.000E+01  2.000E+04 -3.084E-01
   1   18   30     3     9    2.7428E+05 -5.1040E+03   2.7938E+05  0.000E+00  0.000E+00  0.000E+00  3.06656E+01  2.211E-01  2.000E+01  2.000E+04 -2.552E-01



1
              HEAD IN LAYER   1 AT END OF TIME STEP   1 IN STRESS PERIOD   10
  ---------------------------------------------------------------------------

          1      2      3      4      5      6      7      8      9     10
         11     12     13     14     15     16     17     18     19     20
         21     22     23     24     25     26     27     28     29     30
 .........................................................................
   1  ****** ****** ****** ****** ****** ****** ****** ****** ****** ******
      ****** ****** ****** ****** ****** ****** ****** ****** ****** ******
      ****** ****** ****** ****** ****** ****** ****** ****** ****** ******
   2  ****** ****** ****** ****** ****** ****** ****** ****** ****** ******
      ****** ****** ****** ****** ****** ****** ****** ****** ****** ******
      ****** ****** ****** ****** ****** ****** ****** ****** ****** ******
   3  ****** ****** ****** ****** ****** ****** ****** ****** ****** ******
      ****** ****** ****** ****** ****** ****** ****** ****** ****** ******
      ****** ****** ****** ****** ****** ****** ****** ****** ****** ******
   4  ****** ****** ****** ****** ****** ****** ****** ****** ****** ******
      ****** ****** ****** ****** ****** ****** ****** ****** ****** ******
      ****** ****** ****** ****** ****** ****** ****** ****** ****** ******
   5  ****** ****** ****** ****** ****** ****** ****** ****** ****** ******
      ****** ****** ****** ****** ****** ****** ****** ****** ****** ******
      ****** ****** ****** ****** ****** ****** ****** ****** ****** ******
   6  ****** ****** ****** ****** ****** ****** ****** ****** ****** ******
      ****** ****** ****** ****** ****** ****** ****** ****** ****** ******
      ****** ****** ****** ****** ****** ****** ****** ****** ****** ******
   7  ****** ****** ****** ****** ****** ****** ****** ****** ****** ******
      ****** ****** ****** ****** ****** ****** ****** ****** ****** ******
      ****** ****** ****** ****** ****** ****** ****** ****** ****** ******
   8  ****** ****** ****** ****** ****** ****** ****** ****** ****** ******
      ****** ****** ****** ****** ****** ****** ****** ****** ****** ******
      ****** ****** ****** ****** ****** ****** ****** ****** ****** ******
   9  ****** ****** ****** ****** ****** ****** ****** ****** ****** ******
      ****** ****** ****** ****** ****** ****** ****** ****** ****** ******
      ****** ****** ****** ****** ****** ****** ****** ****** ****** ******
  10  ****** ****** ****** ****** ****** ****** ****** ****** ****** ******
      ****** ****** ****** ****** ****** ****** ****** ****** ****** ******
      ****** ****** ****** ****** ****** ****** ****** ****** ****** ******
  11  ****** ****** ****** ****** ****** ****** ****** ****** ****** ******
      ****** ****** ****** ****** ****** ****** ****** ****** ****** ******
      ****** ****** ****** ****** ****** ****** ****** ****** ****** ******
  12  ****** ****** ****** ****** ****** ****** ****** ****** ****** ******
      ****** ****** ****** ****** ****** ****** ****** ****** ****** ******
      ****** ****** ****** ****** ****** ****** ****** ****** ****** ******
  13  ****** ****** ****** ****** ****** ****** ****** ****** ****** ******
      ****** ****** ****** ****** ****** ****** ****** ****** ****** ******
      ****** ****** ****** ****** ****** ****** ****** ****** ****** ******
  14  ****** ****** ****** ****** ****** ****** ****** ****** ****** ******
      ****** ****** ****** ****** ****** ****** ****** ****** ****** ******
      ****** ****** ****** ****** ****** ****** ****** ****** ****** ******
  15  ****** ****** ****** ****** ****** ****** ****** ****** ****** ******
      ****** ****** ****** ****** ****** ****** ****** ****** ****** ******
      ****** ****** ****** ****** ****** ****** ****** ****** ****** ******
  16  ****** ****** ****** ****** ****** ****** ****** ****** ****** ******
      ****** ****** ****** ****** ****** ****** ****** ****** ****** ******
      ****** ****** ****** ****** ****** ****** ****** ****** ****** ******
  17  ****** ****** ****** ****** ****** ****** ****** ****** ****** ******
      ****** ****** ****** ****** ****** ****** ****** ****** ****** ******
      ****** ****** ****** ****** ****** ****** ****** ****** ****** ******
  18  ****** ****** ****** ****** ****** ****** ****** ****** ****** ******
      ****** ****** ****** ****** ****** ****** ****** ****** ****** ******
      ****** ****** ****** ****** ****** ****** ****** ****** ****** ******
  19  ****** ****** ****** ****** ****** ****** ****** ****** ****** ******
      ****** ****** ****** ****** ****** ****** ****** ****** ****** ******
      ****** ****** ****** ****** ****** ****** ****** ****** ****** ******
  20  ****** ****** ****** ****** ****** ****** ****** ****** ****** ******
      ****** ****** ****** ****** ****** ****** ****** ****** ****** ******
      ****** ****** ****** ****** ****** ****** ****** ****** ****** ******
  21  ****** ****** ****** ****** ****** ****** ****** ****** ****** ******
      ****** ****** ****** ****** ****** ****** ****** ****** ****** ******
      ****** ****** ****** ****** ****** ****** ****** ****** ****** ******
  22  ****** ****** ****** ****** ****** ****** ****** ****** ****** ******
      ****** ****** ****** ****** ****** ****** ****** ****** ****** ******
      ****** ****** ****** ****** ****** ****** ****** ****** ****** ******
  23  ****** ****** ****** ****** ****** ****** ****** ****** ****** ******
      ****** ****** ****** ****** ****** ****** ****** ****** ****** ******
      ****** ****** ****** ****** ****** ****** ****** ****** ****** ******
  24  ****** ****** ****** ****** ****** ****** ****** ****** ****** ******
      ****** ****** ****** ****** ****** ****** ****** ****** ****** ******
      ****** ****** ****** ****** ****** ****** ****** ****** ****** ******
  25  ****** ****** ****** ****** ****** ****** ****** ****** ****** ******
      ****** ****** ****** ****** ****** ****** ****** ****** ****** ******
      ****** ****** ****** ****** ****** ****** ****** ****** ****** ******

 HEAD WILL BE SAVED ON UNIT   51 AT END OF TIME STEP    1, STRESS PERIOD   10
1
  VOLUMETRIC BUDGET FOR ENTIRE MODEL AT END OF TIME STEP    1, STRESS PERIOD  10
  ------------------------------------------------------------------------------

     CUMULATIVE VOLUMES      L**3       RATES FOR THIS TIME STEP      L**3/T
     ------------------                 ------------------------

           IN:                                      IN:
           ---                                      ---
             STORAGE =    25509061.5144               STORAGE =           0.0000
       CONSTANT HEAD =   168186069.8768         CONSTANT HEAD =      184954.2456
               WELLS =           0.0000                 WELLS =           0.0000
            RECHARGE =    23901600.0000              RECHARGE =       55200.0000
      STREAM LEAKAGE =     5933414.3411        STREAM LEAKAGE =        6567.2132

            TOTAL IN =   223530145.7324              TOTAL IN =      246721.4588

          OUT:                                     OUT:
          ----                                     ----
             STORAGE =     2235218.2795               STORAGE =       10752.6762
       CONSTANT HEAD =           0.0000         CONSTANT HEAD =           0.0000
               WELLS =    91319595.2838                 WELLS =      100021.4625
            RECHARGE =           0.0000              RECHARGE =           0.0000
      STREAM LEAKAGE =   129975333.1828        STREAM LEAKAGE =      135947.3183

           TOTAL OUT =   223530146.7462             TOTAL OUT =      246721.4570

            IN - OUT =          -1.0138              IN - OUT =       1.7691E-03

 PERCENT DISCREPANCY =          -0.00     PERCENT DISCREPANCY =           0.00






         TIME SUMMARY AT END OF TIME STEP    1 IN STRESS PERIOD   10
                    SECONDS     MINUTES      HOURS       DAYS        YEARS
                    -----------------------------------------------------------
   TIME STEP LENGTH 7.86240E+06 1.31040E+05  2184.0      91.000     0.24914    
 STRESS PERIOD TIME 7.86240E+06 1.31040E+05  2184.0      91.000     0.24914    
         TOTAL TIME 7.88832E+07 1.31472E+06  21912.      913.00      2.4997    
1
1
                            STRESS PERIOD NO.   11, LENGTH =   91.00000    
                            -----------------------------------------------

                              NUMBER OF TIME STEPS =     1

                               MULTIPLIER FOR DELT =     1.500

                            INITIAL TIME STEP SIZE =   91.00000    

 WELL NO.  LAYER   ROW   COL   STRESS RATE         
 --------------------------------------------------
      1      1     23      9     -0.3450E+05
      2      1      3      9     -0.3274E+05
      3      1      3     14     -0.3278E+05

      3 WELLS

                 RECHARGE =   0.00000    

 REUSING STREAM SEGMENT DATA FROM LAST STRESS PERIOD
 
 SOLVING FOR HEAD 


     7 CALLS TO PCG ROUTINE FOR TIME STEP   1 IN STRESS PERIOD   11
    26 TOTAL ITERATIONS

 OUTPUT CONTROL FOR STRESS PERIOD   11   TIME STEP    1
    SAVE BUDGET
    SAVE HEAD FOR ALL LAYERS
    PRINT HEAD FOR ALL LAYERS
 UBDSV2 SAVING "STREAMFLOW OUT  " ON UNIT  50 AT TIME STEP  1, STRESS PERIOD  11



 STREAM LISTING     PERIOD     11   STEP        1

 LAYER ROW COL. STREAM  RCH.  FLOW INTO     FLOW TO   FLOW OUT OF   OVRLND.     DIRECT     STREAM       STREAM     STREAM     STREAM   STREAMBED  STREAMBED
                SEG.NO.  NO.  STRM. RCH.    AQUIFER    STRM. RCH.    RUNOFF     PRECIP       ET          HEAD       DEPTH      WIDTH   CONDCTNC.   GRADIENT

   1   13    1     1     1    1.0000E+05 -2.1480E+03   1.0215E+05  0.000E+00  0.000E+00  0.000E+00  4.84069E+01  1.456E-01  2.000E+01  2.000E+04 -1.074E-01
   1   13    2     1     2    1.0215E+05 -3.7313E+03   1.0588E+05  0.000E+00  0.000E+00  0.000E+00  4.79322E+01  1.481E-01  2.000E+01  2.000E+04 -1.866E-01
   1   14    3     1     3    1.0588E+05 -2.9135E+03   1.0879E+05  0.000E+00  0.000E+00  0.000E+00  4.74577E+01  1.509E-01  2.000E+01  2.000E+04 -1.457E-01
   1   15    4     1     4    1.0879E+05 -2.8209E+03   1.1161E+05  0.000E+00  0.000E+00  0.000E+00  4.69829E+01  1.533E-01  2.000E+01  2.000E+04 -1.410E-01
   1   16    5     1     5    1.1161E+05 -3.0276E+03   1.1464E+05  0.000E+00  0.000E+00  0.000E+00  4.65080E+01  1.558E-01  2.000E+01  2.000E+04 -1.514E-01
   1   16    6     1     6    1.1464E+05 -2.2638E+03   1.1690E+05  0.000E+00  0.000E+00  0.000E+00  4.60329E+01  1.579E-01  2.000E+01  2.000E+04 -1.132E-01
   1   16    7     1     7    1.1690E+05 -2.2195E+03   1.1912E+05  0.000E+00  0.000E+00  0.000E+00  4.55575E+01  1.598E-01  2.000E+01  2.000E+04 -1.110E-01
   1   16    8     1     8    1.1912E+05 -2.1791E+03   1.2130E+05  0.000E+00  0.000E+00  0.000E+00  4.50820E+01  1.615E-01  2.000E+01  2.000E+04 -1.090E-01
   1   16    9     1     9    1.2130E+05 -2.1550E+03   1.2346E+05  0.000E+00  0.000E+00  0.000E+00  4.46065E+01  1.633E-01  2.000E+01  2.000E+04 -1.077E-01
   1   16   10     1    10    1.2346E+05 -2.1637E+03   1.2562E+05  0.000E+00  0.000E+00  0.000E+00  4.41309E+01  1.650E-01  2.000E+01  2.000E+04 -1.082E-01
   1   16   11     1    11    1.2562E+05 -2.2240E+03   1.2785E+05  0.000E+00  0.000E+00  0.000E+00  4.36554E+01  1.667E-01  2.000E+01  2.000E+04 -1.112E-01
   1   16   12     1    12    1.2785E+05 -3.2257E+03   1.3107E+05  0.000E+00  0.000E+00  0.000E+00  4.31803E+01  1.689E-01  2.000E+01  2.000E+04 -1.613E-01
   1   15   13     1    13    1.3107E+05 -3.0475E+03   1.3412E+05  0.000E+00  0.000E+00  0.000E+00  4.27054E+01  1.713E-01  2.000E+01  2.000E+04 -1.524E-01
   1   14   14     1    14    1.3412E+05 -3.0625E+03   1.3718E+05  0.000E+00  0.000E+00  0.000E+00  4.22305E+01  1.737E-01  2.000E+01  2.000E+04 -1.531E-01
   1   13   15     1    15    1.3718E+05 -3.2144E+03   1.4040E+05  0.000E+00  0.000E+00  0.000E+00  4.17556E+01  1.761E-01  2.000E+01  2.000E+04 -1.607E-01
   1   12   16     1    16    1.4040E+05 -4.0309E+03   1.4443E+05  0.000E+00  0.000E+00  0.000E+00  4.12811E+01  1.788E-01  2.000E+01  2.000E+04 -2.015E-01
   1   12   17     1    17    1.4443E+05 -2.8346E+03   1.4726E+05  0.000E+00  0.000E+00  0.000E+00  4.08064E+01  1.814E-01  2.000E+01  2.000E+04 -1.417E-01
   1   12   18     1    18    1.4726E+05 -2.8344E+03   1.5010E+05  0.000E+00  0.000E+00  0.000E+00  4.03312E+01  1.835E-01  2.000E+01  2.000E+04 -1.417E-01
   1   12   19     1    19    1.5010E+05 -3.8207E+03   1.5392E+05  0.000E+00  0.000E+00  0.000E+00  3.98564E+01  1.860E-01  2.000E+01  2.000E+04 -1.910E-01
   1   13   20     1    20    1.5392E+05 -2.6867E+03   1.5660E+05  0.000E+00  0.000E+00  0.000E+00  3.93815E+01  1.883E-01  2.000E+01  2.000E+04 -1.343E-01
   1   14   21     1    21    1.5660E+05 -2.1390E+03   1.5874E+05  0.000E+00  0.000E+00  0.000E+00  3.89060E+01  1.901E-01  2.000E+01  2.000E+04 -1.069E-01
   1   14   22     1    22    1.5874E+05  5.0054E+03   1.5374E+05  0.000E+00  0.000E+00  0.000E+00  3.84277E+01  1.891E-01  2.000E+01  2.000E+04  2.503E-01
   1    9   30     2     1    5.0000E+04 -2.5701E+03   5.2570E+04  0.000E+00  0.000E+00  0.000E+00  4.02426E+01  1.176E-01  2.000E+01  2.000E+04 -1.285E-01
   1    9   29     2     2    5.2570E+04 -2.8972E+03   5.5467E+04  0.000E+00  0.000E+00  0.000E+00  3.99964E+01  1.214E-01  2.000E+01  2.000E+04 -1.449E-01
   1    9   28     2     3    5.5467E+04 -3.2633E+03   5.8731E+04  0.000E+00  0.000E+00  0.000E+00  3.97505E+01  1.255E-01  2.000E+01  2.000E+04 -1.632E-01
   1    9   27     2     4    5.8731E+04 -5.8414E+03   6.4572E+04  0.000E+00  0.000E+00  0.000E+00  3.95064E+01  1.314E-01  2.000E+01  2.000E+04 -2.921E-01
   1   10   26     2     5    6.4572E+04 -3.4473E+03   6.8019E+04  0.000E+00  0.000E+00  0.000E+00  3.92622E+01  1.372E-01  2.000E+01  2.000E+04 -1.724E-01
   1   11   25     2     6    6.8019E+04 -2.3978E+03   7.0417E+04  0.000E+00  0.000E+00  0.000E+00  3.90158E+01  1.408E-01  2.000E+01  2.000E+04 -1.199E-01
   1   12   24     2     7    7.0417E+04 -1.5859E+03   7.2003E+04  0.000E+00  0.000E+00  0.000E+00  3.87683E+01  1.433E-01  2.000E+01  2.000E+04 -7.929E-02
   1   13   23     2     8    7.2003E+04 -8.5773E+02   7.2861E+04  0.000E+00  0.000E+00  0.000E+00  3.85197E+01  1.447E-01  2.000E+01  2.000E+04 -4.289E-02
   1   14   22     2     9    7.2861E+04  1.8342E+03   7.1027E+04  0.000E+00  0.000E+00  0.000E+00  3.82691E+01  1.441E-01  2.000E+01  2.000E+04  9.171E-02
   1   14   22     3     1    2.2476E+05 -8.4907E+03   2.3325E+05  0.000E+00  0.000E+00  0.000E+00  3.77529E+01  1.973E-01  2.000E+01  2.000E+04 -4.245E-01
   1   15   23     3     2    2.3325E+05 -2.9033E+03   2.3616E+05  0.000E+00  0.000E+00  0.000E+00  3.68669E+01  2.003E-01  2.000E+01  2.000E+04 -1.452E-01
   1   15   24     3     3    2.3616E+05 -1.9871E+03   2.3814E+05  0.000E+00  0.000E+00  0.000E+00  3.59793E+01  2.015E-01  2.000E+01  2.000E+04 -9.936E-02
   1   15   25     3     4    2.3814E+05 -1.8567E+03   2.4000E+05  0.000E+00  0.000E+00  0.000E+00  3.50914E+01  2.025E-01  2.000E+01  2.000E+04 -9.283E-02
   1   15   26     3     5    2.4000E+05 -2.1689E+03   2.4217E+05  0.000E+00  0.000E+00  0.000E+00  3.42035E+01  2.035E-01  2.000E+01  2.000E+04 -1.084E-01
   1   16   27     3     6    2.4217E+05 -3.0993E+03   2.4527E+05  0.000E+00  0.000E+00  0.000E+00  3.33160E+01  2.048E-01  2.000E+01  2.000E+04 -1.550E-01
   1   17   28     3     7    2.4527E+05 -3.9238E+03   2.4919E+05  0.000E+00  0.000E+00  0.000E+00  3.24288E+01  2.066E-01  2.000E+01  2.000E+04 -1.962E-01
   1   18   29     3     8    2.4919E+05 -5.6207E+03   2.5481E+05  0.000E+00  0.000E+00  0.000E+00  3.15423E+01  2.090E-01  2.000E+01  2.000E+04 -2.810E-01
   1   18   30     3     9    2.5481E+05 -4.6869E+03   2.5950E+05  0.000E+00  0.000E+00  0.000E+00  3.06560E+01  2.116E-01  2.000E+01  2.000E+04 -2.343E-01



1
              HEAD IN LAYER   1 AT END OF TIME STEP   1 IN STRESS PERIOD   11
  ---------------------------------------------------------------------------

          1      2      3      4      5      6      7      8      9     10
         11     12     13     14     15     16     17     18     19     20
         21     22     23     24     25     26     27     28     29     30
 .........................................................................
   1  ****** ****** ****** ****** ****** ****** ****** ****** ****** ******
      ****** ****** ****** ****** ****** ****** ****** ****** ****** ******
      ****** ****** ****** ****** ****** ****** ****** ****** ****** ******
   2  ****** ****** ****** ****** ****** ****** ****** ****** ****** ******
      ****** ****** ****** ****** ****** ****** ****** ****** ****** ******
      ****** ****** ****** ****** ****** ****** ****** ****** ****** ******
   3  ****** ****** ****** ****** ****** ****** ****** ****** ****** ******
      ****** ****** ****** ****** ****** ****** ****** ****** ****** ******
      ****** ****** ****** ****** ****** ****** ****** ****** ****** ******
   4  ****** ****** ****** ****** ****** ****** ****** ****** ****** ******
      ****** ****** ****** ****** ****** ****** ****** ****** ****** ******
      ****** ****** ****** ****** ****** ****** ****** ****** ****** ******
   5  ****** ****** ****** ****** ****** ****** ****** ****** ****** ******
      ****** ****** ****** ****** ****** ****** ****** ****** ****** ******
      ****** ****** ****** ****** ****** ****** ****** ****** ****** ******
   6  ****** ****** ****** ****** ****** ****** ****** ****** ****** ******
      ****** ****** ****** ****** ****** ****** ****** ****** ****** ******
      ****** ****** ****** ****** ****** ****** ****** ****** ****** ******
   7  ****** ****** ****** ****** ****** ****** ****** ****** ****** ******
      ****** ****** ****** ****** ****** ****** ****** ****** ****** ******
      ****** ****** ****** ****** ****** ****** ****** ****** ****** ******
   8  ****** ****** ****** ****** ****** ****** ****** ****** ****** ******
      ****** ****** ****** ****** ****** ****** ****** ****** ****** ******
      ****** ****** ****** ****** ****** ****** ****** ****** ****** ******
   9  ****** ****** ****** ****** ****** ****** ****** ****** ****** ******
      ****** ****** ****** ****** ****** ****** ****** ****** ****** ******
      ****** ****** ****** ****** ****** ****** ****** ****** ****** ******
  10  ****** ****** ****** ****** ****** ****** ****** ****** ****** ******
      ****** ****** ****** ****** ****** ****** ****** ****** ****** ******
      ****** ****** ****** ****** ****** ****** ****** ****** ****** ******
  11  ****** ****** ****** ****** ****** ****** ****** ****** ****** ******
      ****** ****** ****** ****** ****** ****** ****** ****** ****** ******
      ****** ****** ****** ****** ****** ****** ****** ****** ****** ******
  12  ****** ****** ****** ****** ****** ****** ****** ****** ****** ******
      ****** ****** ****** ****** ****** ****** ****** ****** ****** ******
      ****** ****** ****** ****** ****** ****** ****** ****** ****** ******
  13  ****** ****** ****** ****** ****** ****** ****** ****** ****** ******
      ****** ****** ****** ****** ****** ****** ****** ****** ****** ******
      ****** ****** ****** ****** ****** ****** ****** ****** ****** ******
  14  ****** ****** ****** ****** ****** ****** ****** ****** ****** ******
      ****** ****** ****** ****** ****** ****** ****** ****** ****** ******
      ****** ****** ****** ****** ****** ****** ****** ****** ****** ******
  15  ****** ****** ****** ****** ****** ****** ****** ****** ****** ******
      ****** ****** ****** ****** ****** ****** ****** ****** ****** ******
      ****** ****** ****** ****** ****** ****** ****** ****** ****** ******
  16  ****** ****** ****** ****** ****** ****** ****** ****** ****** ******
      ****** ****** ****** ****** ****** ****** ****** ****** ****** ******
      ****** ****** ****** ****** ****** ****** ****** ****** ****** ******
  17  ****** ****** ****** ****** ****** ****** ****** ****** ****** ******
      ****** ****** ****** ****** ****** ****** ****** ****** ****** ******
      ****** ****** ****** ****** ****** ****** ****** ****** ****** ******
  18  ****** ****** ****** ****** ****** ****** ****** ****** ****** ******
      ****** ****** ****** ****** ****** ****** ****** ****** ****** ******
      ****** ****** ****** ****** ****** ****** ****** ****** ****** ******
  19  ****** ****** ****** ****** ****** ****** ****** ****** ****** ******
      ****** ****** ****** ****** ****** ****** ****** ****** ****** ******
      ****** ****** ****** ****** ****** ****** ****** ****** ****** ******
  20  ****** ****** ****** ****** ****** ****** ****** ****** ****** ******
      ****** ****** ****** ****** ****** ****** ****** ****** ****** ******
      ****** ****** ****** ****** ****** ****** ****** ****** ****** ******
  21  ****** ****** ****** ****** ****** ****** ****** ****** ****** ******
      ****** ****** ****** ****** ****** ****** ****** ****** ****** ******
      ****** ****** ****** ****** ****** ****** ****** ****** ****** ******
  22  ****** ****** ****** ****** ****** ****** ****** ****** ****** ******
      ****** ****** ****** ****** ****** ****** ****** ****** ****** ******
      ****** ****** ****** ****** ****** ****** ****** ****** ****** ******
  23  ****** ****** ****** ****** ****** ****** ****** ****** ****** ******
      ****** ****** ****** ****** ****** ****** ****** ****** ****** ******
      ****** ****** ****** ****** ****** ****** ****** ****** ****** ******
  24  ****** ****** ****** ****** ****** ****** ****** ****** ****** ******
      ****** ****** ****** ****** ****** ****** ****** ****** ****** ******
      ****** ****** ****** ****** ****** ****** ****** ****** ****** ******
  25  ****** ****** ****** ****** ****** ****** ****** ****** ****** ******
      ****** ****** ****** ****** ****** ****** ****** ****** ****** ******
      ****** ****** ****** ****** ****** ****** ****** ****** ****** ******

 HEAD WILL BE SAVED ON UNIT   51 AT END OF TIME STEP    1, STRESS PERIOD   11
1
  VOLUMETRIC BUDGET FOR ENTIRE MODEL AT END OF TIME STEP    1, STRESS PERIOD  11
  ------------------------------------------------------------------------------

     CUMULATIVE VOLUMES      L**3       RATES FOR THIS TIME STEP      L**3/T
     ------------------                 ------------------------

           IN:                                      IN:
           ---                                      ---
             STORAGE =    26587613.6845               STORAGE =       11852.2216
       CONSTANT HEAD =   186174054.8986         CONSTANT HEAD =      197670.1651
               WELLS =           0.0000                 WELLS =           0.0000
            RECHARGE =    23901600.0000              RECHARGE =           0.0000
      STREAM LEAKAGE =     6555813.0625        STREAM LEAKAGE =        6839.5464

            TOTAL IN =   243219081.6457              TOTAL IN =      216361.9331

          OUT:                                     OUT:
          ----                                     ----
             STORAGE =     2235218.2795               STORAGE =           0.0000
       CONSTANT HEAD =           0.0000         CONSTANT HEAD =           0.0000
               WELLS =   100421548.3734                 WELLS =      100021.4625
            RECHARGE =           0.0000              RECHARGE =           0.0000
      STREAM LEAKAGE =   140562316.2050        STREAM LEAKAGE =      116340.4728

           TOTAL OUT =   243219082.8579             TOTAL OUT =      216361.9353

            IN - OUT =          -1.2122              IN - OUT =      -2.1803E-03

 PERCENT DISCREPANCY =          -0.00     PERCENT DISCREPANCY =          -0.00






         TIME SUMMARY AT END OF TIME STEP    1 IN STRESS PERIOD   11
                    SECONDS     MINUTES      HOURS       DAYS        YEARS
                    -----------------------------------------------------------
   TIME STEP LENGTH 7.86240E+06 1.31040E+05  2184.0      91.000     0.24914    
 STRESS PERIOD TIME 7.86240E+06 1.31040E+05  2184.0      91.000     0.24914    
         TOTAL TIME 8.67456E+07 1.44576E+06  24096.      1004.0      2.7488    
1
1
                            STRESS PERIOD NO.   12, LENGTH =   91.00000    
                            -----------------------------------------------

                              NUMBER OF TIME STEPS =     1

                               MULTIPLIER FOR DELT =     1.500

                            INITIAL TIME STEP SIZE =   91.00000    

 WELL NO.  LAYER   ROW   COL   STRESS RATE         
 --------------------------------------------------
      1      1     23      9     -0.3450E+05
      2      1      3      9     -0.3274E+05
      3      1      3     14     -0.3278E+05

      3 WELLS

                 RECHARGE =  1.000000E-03

 REUSING STREAM SEGMENT DATA FROM LAST STRESS PERIOD
 
 SOLVING FOR HEAD 


     6 CALLS TO PCG ROUTINE FOR TIME STEP   1 IN STRESS PERIOD   12
    23 TOTAL ITERATIONS

 OUTPUT CONTROL FOR STRESS PERIOD   12   TIME STEP    1
    SAVE BUDGET
    SAVE HEAD FOR ALL LAYERS
    PRINT HEAD FOR ALL LAYERS
 UBDSV2 SAVING "STREAMFLOW OUT  " ON UNIT  50 AT TIME STEP  1, STRESS PERIOD  12



 STREAM LISTING     PERIOD     12   STEP        1

 LAYER ROW COL. STREAM  RCH.  FLOW INTO     FLOW TO   FLOW OUT OF   OVRLND.     DIRECT     STREAM       STREAM     STREAM     STREAM   STREAMBED  STREAMBED
                SEG.NO.  NO.  STRM. RCH.    AQUIFER    STRM. RCH.    RUNOFF     PRECIP       ET          HEAD       DEPTH      WIDTH   CONDCTNC.   GRADIENT

   1   13    1     1     1    1.0000E+05 -2.3214E+03   1.0232E+05  0.000E+00  0.000E+00  0.000E+00  4.84070E+01  1.457E-01  2.000E+01  2.000E+04 -1.161E-01
   1   13    2     1     2    1.0232E+05 -3.9492E+03   1.0627E+05  0.000E+00  0.000E+00  0.000E+00  4.79324E+01  1.483E-01  2.000E+01  2.000E+04 -1.975E-01
   1   14    3     1     3    1.0627E+05 -3.1524E+03   1.0942E+05  0.000E+00  0.000E+00  0.000E+00  4.74582E+01  1.514E-01  2.000E+01  2.000E+04 -1.576E-01
   1   15    4     1     4    1.0942E+05 -3.0619E+03   1.1248E+05  0.000E+00  0.000E+00  0.000E+00  4.69835E+01  1.540E-01  2.000E+01  2.000E+04 -1.531E-01
   1   16    5     1     5    1.1248E+05 -3.2501E+03   1.1574E+05  0.000E+00  0.000E+00  0.000E+00  4.65088E+01  1.566E-01  2.000E+01  2.000E+04 -1.625E-01
   1   16    6     1     6    1.1574E+05 -2.4409E+03   1.1818E+05  0.000E+00  0.000E+00  0.000E+00  4.60339E+01  1.589E-01  2.000E+01  2.000E+04 -1.220E-01
   1   16    7     1     7    1.1818E+05 -2.3985E+03   1.2057E+05  0.000E+00  0.000E+00  0.000E+00  4.55586E+01  1.609E-01  2.000E+01  2.000E+04 -1.199E-01
   1   16    8     1     8    1.2057E+05 -2.3592E+03   1.2293E+05  0.000E+00  0.000E+00  0.000E+00  4.50832E+01  1.628E-01  2.000E+01  2.000E+04 -1.180E-01
   1   16    9     1     9    1.2293E+05 -2.3350E+03   1.2527E+05  0.000E+00  0.000E+00  0.000E+00  4.46078E+01  1.647E-01  2.000E+01  2.000E+04 -1.167E-01
   1   16   10     1    10    1.2527E+05 -2.3425E+03   1.2761E+05  0.000E+00  0.000E+00  0.000E+00  4.41324E+01  1.665E-01  2.000E+01  2.000E+04 -1.171E-01
   1   16   11     1    11    1.2761E+05 -2.4009E+03   1.3001E+05  0.000E+00  0.000E+00  0.000E+00  4.36570E+01  1.684E-01  2.000E+01  2.000E+04 -1.200E-01
   1   16   12     1    12    1.3001E+05 -3.4485E+03   1.3346E+05  0.000E+00  0.000E+00  0.000E+00  4.31820E+01  1.707E-01  2.000E+01  2.000E+04 -1.724E-01
   1   15   13     1    13    1.3346E+05 -3.2908E+03   1.3675E+05  0.000E+00  0.000E+00  0.000E+00  4.27074E+01  1.733E-01  2.000E+01  2.000E+04 -1.645E-01
   1   14   14     1    14    1.3675E+05 -3.3085E+03   1.4006E+05  0.000E+00  0.000E+00  0.000E+00  4.22326E+01  1.758E-01  2.000E+01  2.000E+04 -1.654E-01
   1   13   15     1    15    1.4006E+05 -3.4549E+03   1.4351E+05  0.000E+00  0.000E+00  0.000E+00  4.17579E+01  1.784E-01  2.000E+01  2.000E+04 -1.727E-01
   1   12   16     1    16    1.4351E+05 -4.2503E+03   1.4777E+05  0.000E+00  0.000E+00  0.000E+00  4.12835E+01  1.813E-01  2.000E+01  2.000E+04 -2.125E-01
   1   12   17     1    17    1.4777E+05 -3.0083E+03   1.5077E+05  0.000E+00  0.000E+00  0.000E+00  4.08090E+01  1.840E-01  2.000E+01  2.000E+04 -1.504E-01
   1   12   18     1    18    1.5077E+05 -3.0076E+03   1.5378E+05  0.000E+00  0.000E+00  0.000E+00  4.03339E+01  1.862E-01  2.000E+01  2.000E+04 -1.504E-01
   1   12   19     1    19    1.5378E+05 -4.0320E+03   1.5781E+05  0.000E+00  0.000E+00  0.000E+00  3.98592E+01  1.887E-01  2.000E+01  2.000E+04 -2.016E-01
   1   13   20     1    20    1.5781E+05 -2.9055E+03   1.6072E+05  0.000E+00  0.000E+00  0.000E+00  3.93844E+01  1.912E-01  2.000E+01  2.000E+04 -1.453E-01
   1   14   21     1    21    1.6072E+05 -2.3358E+03   1.6305E+05  0.000E+00  0.000E+00  0.000E+00  3.89090E+01  1.931E-01  2.000E+01  2.000E+04 -1.168E-01
   1   14   22     1    22    1.6305E+05  4.9619E+03   1.5809E+05  0.000E+00  0.000E+00  0.000E+00  3.84308E+01  1.922E-01  2.000E+01  2.000E+04  2.481E-01
   1    9   30     2     1    5.0000E+04 -2.7495E+03   5.2749E+04  0.000E+00  0.000E+00  0.000E+00  4.02428E+01  1.178E-01  2.000E+01  2.000E+04 -1.375E-01
   1    9   29     2     2    5.2749E+04 -3.0749E+03   5.5824E+04  0.000E+00  0.000E+00  0.000E+00  3.99967E+01  1.217E-01  2.000E+01  2.000E+04 -1.537E-01
   1    9   28     2     3    5.5824E+04 -3.4384E+03   5.9263E+04  0.000E+00  0.000E+00  0.000E+00  3.97511E+01  1.261E-01  2.000E+01  2.000E+04 -1.719E-01
   1    9   27     2     4    5.9263E+04 -6.0620E+03   6.5325E+04  0.000E+00  0.000E+00  0.000E+00  3.95072E+01  1.322E-01  2.000E+01  2.000E+04 -3.031E-01
   1   10   26     2     5    6.5325E+04 -3.6848E+03   6.9010E+04  0.000E+00  0.000E+00  0.000E+00  3.92633E+01  1.383E-01  2.000E+01  2.000E+04 -1.842E-01
   1   11   25     2     6    6.9010E+04 -2.6289E+03   7.1638E+04  0.000E+00  0.000E+00  0.000E+00  3.90172E+01  1.422E-01  2.000E+01  2.000E+04 -1.314E-01
   1   12   24     2     7    7.1638E+04 -1.7957E+03   7.3434E+04  0.000E+00  0.000E+00  0.000E+00  3.87698E+01  1.448E-01  2.000E+01  2.000E+04 -8.978E-02
   1   13   23     2     8    7.3434E+04 -1.0281E+03   7.4462E+04  0.000E+00  0.000E+00  0.000E+00  3.85215E+01  1.465E-01  2.000E+01  2.000E+04 -5.141E-02
   1   14   22     2     9    7.4462E+04  1.7672E+03   7.2695E+04  0.000E+00  0.000E+00  0.000E+00  3.82711E+01  1.461E-01  2.000E+01  2.000E+04  8.836E-02
   1   14   22     3     1    2.3079E+05 -8.5345E+03   2.3932E+05  0.000E+00  0.000E+00  0.000E+00  3.77560E+01  2.004E-01  2.000E+01  2.000E+04 -4.267E-01
   1   15   23     3     2    2.3932E+05 -3.0879E+03   2.4241E+05  0.000E+00  0.000E+00  0.000E+00  3.68701E+01  2.034E-01  2.000E+01  2.000E+04 -1.544E-01
   1   15   24     3     3    2.4241E+05 -2.1316E+03   2.4454E+05  0.000E+00  0.000E+00  0.000E+00  3.59825E+01  2.047E-01  2.000E+01  2.000E+04 -1.066E-01
   1   15   25     3     4    2.4454E+05 -2.0059E+03   2.4655E+05  0.000E+00  0.000E+00  0.000E+00  3.50947E+01  2.058E-01  2.000E+01  2.000E+04 -1.003E-01
   1   15   26     3     5    2.4655E+05 -2.3639E+03   2.4891E+05  0.000E+00  0.000E+00  0.000E+00  3.42069E+01  2.069E-01  2.000E+01  2.000E+04 -1.182E-01
   1   16   27     3     6    2.4891E+05 -3.3338E+03   2.5224E+05  0.000E+00  0.000E+00  0.000E+00  3.33194E+01  2.083E-01  2.000E+01  2.000E+04 -1.667E-01
   1   17   28     3     7    2.5224E+05 -4.1608E+03   2.5641E+05  0.000E+00  0.000E+00  0.000E+00  3.24324E+01  2.102E-01  2.000E+01  2.000E+04 -2.080E-01
   1   18   29     3     8    2.5641E+05 -5.8374E+03   2.6224E+05  0.000E+00  0.000E+00  0.000E+00  3.15460E+01  2.126E-01  2.000E+01  2.000E+04 -2.919E-01
   1   18   30     3     9    2.6224E+05 -4.8577E+03   2.6710E+05  0.000E+00  0.000E+00  0.000E+00  3.06597E+01  2.152E-01  2.000E+01  2.000E+04 -2.429E-01



1
              HEAD IN LAYER   1 AT END OF TIME STEP   1 IN STRESS PERIOD   12
  ---------------------------------------------------------------------------

          1      2      3      4      5      6      7      8      9     10
         11     12     13     14     15     16     17     18     19     20
         21     22     23     24     25     26     27     28     29     30
 .........................................................................
   1  ****** ****** ****** ****** ****** ****** ****** ****** ****** ******
      ****** ****** ****** ****** ****** ****** ****** ****** ****** ******
      ****** ****** ****** ****** ****** ****** ****** ****** ****** ******
   2  ****** ****** ****** ****** ****** ****** ****** ****** ****** ******
      ****** ****** ****** ****** ****** ****** ****** ****** ****** ******
      ****** ****** ****** ****** ****** ****** ****** ****** ****** ******
   3  ****** ****** ****** ****** ****** ****** ****** ****** ****** ******
      ****** ****** ****** ****** ****** ****** ****** ****** ****** ******
      ****** ****** ****** ****** ****** ****** ****** ****** ****** ******
   4  ****** ****** ****** ****** ****** ****** ****** ****** ****** ******
      ****** ****** ****** ****** ****** ****** ****** ****** ****** ******
      ****** ****** ****** ****** ****** ****** ****** ****** ****** ******
   5  ****** ****** ****** ****** ****** ****** ****** ****** ****** ******
      ****** ****** ****** ****** ****** ****** ****** ****** ****** ******
      ****** ****** ****** ****** ****** ****** ****** ****** ****** ******
   6  ****** ****** ****** ****** ****** ****** ****** ****** ****** ******
      ****** ****** ****** ****** ****** ****** ****** ****** ****** ******
      ****** ****** ****** ****** ****** ****** ****** ****** ****** ******
   7  ****** ****** ****** ****** ****** ****** ****** ****** ****** ******
      ****** ****** ****** ****** ****** ****** ****** ****** ****** ******
      ****** ****** ****** ****** ****** ****** ****** ****** ****** ******
   8  ****** ****** ****** ****** ****** ****** ****** ****** ****** ******
      ****** ****** ****** ****** ****** ****** ****** ****** ****** ******
      ****** ****** ****** ****** ****** ****** ****** ****** ****** ******
   9  ****** ****** ****** ****** ****** ****** ****** ****** ****** ******
      ****** ****** ****** ****** ****** ****** ****** ****** ****** ******
      ****** ****** ****** ****** ****** ****** ****** ****** ****** ******
  10  ****** ****** ****** ****** ****** ****** ****** ****** ****** ******
      ****** ****** ****** ****** ****** ****** ****** ****** ****** ******
      ****** ****** ****** ****** ****** ****** ****** ****** ****** ******
  11  ****** ****** ****** ****** ****** ****** ****** ****** ****** ******
      ****** ****** ****** ****** ****** ****** ****** ****** ****** ******
      ****** ****** ****** ****** ****** ****** ****** ****** ****** ******
  12  ****** ****** ****** ****** ****** ****** ****** ****** ****** ******
      ****** ****** ****** ****** ****** ****** ****** ****** ****** ******
      ****** ****** ****** ****** ****** ****** ****** ****** ****** ******
  13  ****** ****** ****** ****** ****** ****** ****** ****** ****** ******
      ****** ****** ****** ****** ****** ****** ****** ****** ****** ******
      ****** ****** ****** ****** ****** ****** ****** ****** ****** ******
  14  ****** ****** ****** ****** ****** ****** ****** ****** ****** ******
      ****** ****** ****** ****** ****** ****** ****** ****** ****** ******
      ****** ****** ****** ****** ****** ****** ****** ****** ****** ******
  15  ****** ****** ****** ****** ****** ****** ****** ****** ****** ******
      ****** ****** ****** ****** ****** ****** ****** ****** ****** ******
      ****** ****** ****** ****** ****** ****** ****** ****** ****** ******
  16  ****** ****** ****** ****** ****** ****** ****** ****** ****** ******
      ****** ****** ****** ****** ****** ****** ****** ****** ****** ******
      ****** ****** ****** ****** ****** ****** ****** ****** ****** ******
  17  ****** ****** ****** ****** ****** ****** ****** ****** ****** ******
      ****** ****** ****** ****** ****** ****** ****** ****** ****** ******
      ****** ****** ****** ****** ****** ****** ****** ****** ****** ******
  18  ****** ****** ****** ****** ****** ****** ****** ****** ****** ******
      ****** ****** ****** ****** ****** ****** ****** ****** ****** ******
      ****** ****** ****** ****** ****** ****** ****** ****** ****** ******
  19  ****** ****** ****** ****** ****** ****** ****** ****** ****** ******
      ****** ****** ****** ****** ****** ****** ****** ****** ****** ******
      ****** ****** ****** ****** ****** ****** ****** ****** ****** ******
  20  ****** ****** ****** ****** ****** ****** ****** ****** ****** ******
      ****** ****** ****** ****** ****** ****** ****** ****** ****** ******
      ****** ****** ****** ****** ****** ****** ****** ****** ****** ******
  21  ****** ****** ****** ****** ****** ****** ****** ****** ****** ******
      ****** ****** ****** ****** ****** ****** ****** ****** ****** ******
      ****** ****** ****** ****** ****** ****** ****** ****** ****** ******
  22  ****** ****** ****** ****** ****** ****** ****** ****** ****** ******
      ****** ****** ****** ****** ****** ****** ****** ****** ****** ******
      ****** ****** ****** ****** ****** ****** ****** ****** ****** ******
  23  ****** ****** ****** ****** ****** ****** ****** ****** ****** ******
      ****** ****** ****** ****** ****** ****** ****** ****** ****** ******
      ****** ****** ****** ****** ****** ****** ****** ****** ****** ******
  24  ****** ****** ****** ****** ****** ****** ****** ****** ****** ******
      ****** ****** ****** ****** ****** ****** ****** ****** ****** ******
      ****** ****** ****** ****** ****** ****** ****** ****** ****** ******
  25  ****** ****** ****** ****** ****** ****** ****** ****** ****** ******
      ****** ****** ****** ****** ****** ****** ****** ****** ****** ******
      ****** ****** ****** ****** ****** ****** ****** ****** ****** ******

 HEAD WILL BE SAVED ON UNIT   51 AT END OF TIME STEP    1, STRESS PERIOD   12
1
  VOLUMETRIC BUDGET FOR ENTIRE MODEL AT END OF TIME STEP    1, STRESS PERIOD  12
  ------------------------------------------------------------------------------

     CUMULATIVE VOLUMES      L**3       RATES FOR THIS TIME STEP      L**3/T
     ------------------                 ------------------------

           IN:                                      IN:
           ---                                      ---
             STORAGE =    26587613.6845               STORAGE =           0.0000
       CONSTANT HEAD =   203760240.0778         CONSTANT HEAD =      193254.7822
               WELLS =           0.0000                 WELLS =           0.0000
            RECHARGE =    26413200.0000              RECHARGE =       27600.0000
      STREAM LEAKAGE =     7168168.2809        STREAM LEAKAGE =        6729.1782

            TOTAL IN =   263929222.0432              TOTAL IN =      227583.9604

          OUT:                                     OUT:
          ----                                     ----
             STORAGE =     2574881.7728               STORAGE =        3732.5659
       CONSTANT HEAD =           0.0000         CONSTANT HEAD =           0.0000
               WELLS =   109523501.4630                 WELLS =      100021.4625
            RECHARGE =           0.0000              RECHARGE =           0.0000
      STREAM LEAKAGE =   151830839.9415        STREAM LEAKAGE =      123829.9312

           TOTAL OUT =   263929223.1773             TOTAL OUT =      227583.9596

            IN - OUT =          -1.1341              IN - OUT =       8.5773E-04

 PERCENT DISCREPANCY =          -0.00     PERCENT DISCREPANCY =           0.00






         TIME SUMMARY AT END OF TIME STEP    1 IN STRESS PERIOD   12
                    SECONDS     MINUTES      HOURS       DAYS        YEARS
                    -----------------------------------------------------------
   TIME STEP LENGTH 7.86240E+06 1.31040E+05  2184.0      91.000     0.24914    
 STRESS PERIOD TIME 7.86240E+06 1.31040E+05  2184.0      91.000     0.24914    
         TOTAL TIME 9.46080E+07 1.57680E+06  26280.      1095.0      2.9979    
1

 Run end date and time (yyyy/mm/dd hh:mm:ss): 2018/10/09 15:00:05
 Elapsed run time:  0.061 Seconds

