                                  MODFLOW-2005     
      U.S. GEOLOGICAL SURVEY MODULAR FINITE-DIFFERENCE GROUND-WATER FLOW MODEL
                            VERSION 1.11.00 8/8/2013

 LIST FILE: supply2.lst
                         UNIT   10

 OPENING ..\data\supply.dis
 FILE TYPE:DIS   UNIT   11   STATUS:OLD    
 FORMAT:FORMATTED              ACCESS:SEQUENTIAL          

 OPENING ..\data\supply.ba6
 FILE TYPE:BAS6   UNIT   12   STATUS:OLD    
 FORMAT:FORMATTED              ACCESS:SEQUENTIAL          

 OPENING ..\data\supply_het.bc6
 FILE TYPE:BCF6   UNIT   13   STATUS:OLD    
 FORMAT:FORMATTED              ACCESS:SEQUENTIAL          

 OPENING ..\data\supply.rch
 FILE TYPE:RCH   UNIT   15   STATUS:OLD    
 FORMAT:FORMATTED              ACCESS:SEQUENTIAL          

 OPENING ..\data\supply2.sfr
 FILE TYPE:SFR   UNIT   16   STATUS:OLD    
 FORMAT:FORMATTED              ACCESS:SEQUENTIAL          

 OPENING ..\data\supply.oc
 FILE TYPE:OC   UNIT   17   STATUS:OLD    
 FORMAT:FORMATTED              ACCESS:SEQUENTIAL          

 OPENING ..\data\supply.pcg
 FILE TYPE:PCG   UNIT   18   STATUS:OLD    
 FORMAT:FORMATTED              ACCESS:SEQUENTIAL          

 OPENING supply2.wel
 FILE TYPE:WEL   UNIT   19   STATUS:OLD    
 FORMAT:FORMATTED              ACCESS:SEQUENTIAL          

 OPENING supply2sf.cbc
 FILE TYPE:DATA(BINARY)   UNIT   50   STATUS:UNKNOWN
 FORMAT:BINARY                 ACCESS:SEQUENTIAL          

 OPENING supply2hd.bhd
 FILE TYPE:DATA(BINARY)   UNIT   51   STATUS:UNKNOWN
 FORMAT:BINARY                 ACCESS:SEQUENTIAL          

 BAS -- BASIC PACKAGE, VERSION 7, 5/2/2005 INPUT READ FROM UNIT   12
 
 MODFLOW was compiled using uniform precision
 Precision of REAL and DOUBLE PRECISION variables:          15

 DISCRETIZATION INPUT DATA READ FROM UNIT   11
    1 LAYERS        25 ROWS        30 COLUMNS
   12 STRESS PERIOD(S) IN SIMULATION
 MODEL TIME UNIT IS DAYS
 MODEL LENGTH UNIT IS UNDEFINED
  Confining bed flag for each layer:
   0

                     DELR =   200.000    

                     DELC =   200.000    

 TOP ELEVATION OF LAYER 1 =  100.0000    

   MODEL LAYER BOTTOM EL. =   0.00000     FOR LAYER   1


 STRESS PERIOD     LENGTH       TIME STEPS     MULTIPLIER FOR DELT    SS FLAG
 ----------------------------------------------------------------------------
        1         92.00000          1                    1.500         TR
        2         91.00000          1                    1.500         TR
        3         91.00000          1                    1.500         TR
        4         91.00000          1                    1.500         TR
        5         92.00000          1                    1.500         TR
        6         91.00000          1                    1.500         TR
        7         91.00000          1                    1.500         TR
        8         91.00000          1                    1.500         TR
        9         92.00000          1                    1.500         TR
       10         91.00000          1                    1.500         TR
       11         91.00000          1                    1.500         TR
       12         91.00000          1                    1.500         TR

 TRANSIENT SIMULATION



 
 #MODOFC transient water supply sample problem                                   
 #                                                                               
 THE FREE FORMAT OPTION HAS BEEN SELECTED



                     BOUNDARY ARRAY FOR LAYER   1
 READING ON UNIT   12 WITH FORMAT: (20I4)              

 AQUIFER HEAD WILL BE SET TO   0.0000     AT ALL NO-FLOW NODES (IBOUND=0).



                       INITIAL HEAD FOR LAYER   1
 READING ON UNIT   12 WITH FORMAT: (10F13.0)           

 OUTPUT CONTROL IS SPECIFIED ONLY AT TIME STEPS FOR WHICH OUTPUT IS DESIRED
 COMPACT CELL-BY-CELL BUDGET FILES WILL BE WRITTEN
 HEAD PRINT FORMAT CODE IS  18    DRAWDOWN PRINT FORMAT CODE IS   0
 HEADS WILL BE SAVED ON UNIT   51    DRAWDOWNS WILL BE SAVED ON UNIT    0

 BCF -- BLOCK-CENTERED FLOW PACKAGE, VERSION 7, 5/2/2005
         INPUT READ FROM UNIT 13
 TRANSIENT SIMULATION
 HEAD AT CELLS THAT CONVERT TO DRY=   0.0000    
 WETTING CAPABILITY IS NOT ACTIVE
      LAYER  LAYER-TYPE CODE     INTERBLOCK T
      --------------------------------------------
         1            0          0 -- HARMONIC    

 COLUMN TO ROW ANISOTROPY =  1.000000    

     PRIMARY STORAGE COEF =  5.000000E-02 FOR LAYER   1



               TRANSMIS. ALONG ROWS FOR LAYER   1
 READING ON UNIT   13 WITH FORMAT: (FREE)              

 WEL -- WELL PACKAGE, VERSION 7, 5/2/2005 INPUT READ FROM UNIT   19
 # Well package input file written by MMProc
 No named parameters
 MAXIMUM OF      4 ACTIVE WELLS AT ONE TIME


     0 Well parameters

 RCH -- RECHARGE PACKAGE, VERSION 7, 5/2/2005 INPUT READ FROM UNIT   15
 No named parameters
 OPTION 1 -- RECHARGE TO TOP LAYER


     0 Recharge parameters

 SFR7 -- STREAMFLOW ROUTING PACKAGE, VERSION 1.0.7, 2013-01-15
         INPUT READ FROM UNIT  16
 #  Supply2 test problem for GWM-VI
 #  The eighth entry in the first data line is ISTCB2 -
 #    Setting this to a negative number indicates that
 #    streamflows out of the reach will be saved to a
 #    binary file.  The absolute value of ISTCB2 is the
 #    unit to which unformatted flows will be written.
 #
 No named parameters
 Segment information will not be 
 read by reach
 No named parameters
 No specifed inflow files


 NUMBER OF STREAM REACHES IS   40

 NUMBER OF STREAM SEGMENTS IS    3

 NUMBER OF STREAM PARAMETERS IS    0

 NUMBER OF STREAM SEGMENTS DEFINED USING PARAMETERS IS              0

 MAXIMUM ERROR FOR STREAM LEAKAGE RATES IS  1.00E-04

 CONSTANT FOR MANNINGS EQUATION IS  1.2839E+05





   STREAM NETWORK DESCRIPTION: 

   LAYER    ROW    COL   SEGMENT   REACH     LENGTH
                          NUMBER   NUMBER    IN CELL        
   --------------------------------------------------
      1     13      1       1        1    2.0000E+02
      1     13      2       1        2    2.0000E+02
      1     14      3       1        3    2.0000E+02
      1     15      4       1        4    2.0000E+02
      1     16      5       1        5    2.0000E+02
      1     16      6       1        6    2.0000E+02
      1     16      7       1        7    2.0000E+02
      1     16      8       1        8    2.0000E+02
      1     16      9       1        9    2.0000E+02
      1     16     10       1       10    2.0000E+02
      1     16     11       1       11    2.0000E+02
      1     16     12       1       12    2.0000E+02
      1     15     13       1       13    2.0000E+02
      1     14     14       1       14    2.0000E+02
      1     13     15       1       15    2.0000E+02
      1     12     16       1       16    2.0000E+02
      1     12     17       1       17    2.0000E+02
      1     12     18       1       18    2.0000E+02
      1     12     19       1       19    2.0000E+02
      1     13     20       1       20    2.0000E+02
      1     14     21       1       21    2.0000E+02
      1     14     22       1       22    2.0000E+02
      1      9     30       2        1    2.0000E+02
      1      9     29       2        2    2.0000E+02
      1      9     28       2        3    2.0000E+02
      1      9     27       2        4    2.0000E+02
      1     10     26       2        5    2.0000E+02
      1     11     25       2        6    2.0000E+02
      1     12     24       2        7    2.0000E+02
      1     13     23       2        8    2.0000E+02
      1     14     22       2        9    2.0000E+02
      1     14     22       3        1    2.0000E+02
      1     15     23       3        2    2.0000E+02
      1     15     24       3        3    2.0000E+02
      1     15     25       3        4    2.0000E+02
      1     15     26       3        5    2.0000E+02
      1     16     27       3        6    2.0000E+02
      1     17     28       3        7    2.0000E+02
      1     18     29       3        8    2.0000E+02
      1     18     30       3        9    2.0000E+02




 PCG -- CONJUGATE-GRADIENT SOLUTION PACKAGE, VERSION 7, 5/2/2005
 MAXIMUM OF    500 CALLS OF SOLUTION ROUTINE
 MAXIMUM OF      5 INTERNAL ITERATIONS PER CALL TO SOLUTION ROUTINE
 MATRIX PRECONDITIONING TYPE :    1



                                    SOLUTION BY THE CONJUGATE-GRADIENT METHOD
                                   -------------------------------------------
                    MAXIMUM NUMBER OF CALLS TO PCG ROUTINE =      500
                        MAXIMUM ITERATIONS PER CALL TO PCG =        5
                               MATRIX PRECONDITIONING TYPE =        1
        RELAXATION FACTOR (ONLY USED WITH PRECOND. TYPE 1) =    0.10000E+01
 PARAMETER OF POLYNOMIAL PRECOND. = 2 (2) OR IS CALCULATED :        0
                         HEAD CHANGE CRITERION FOR CLOSURE =    0.10000E-05
                     RESIDUAL CHANGE CRITERION FOR CLOSURE =    0.10000E+01
            PCG HEAD AND RESIDUAL CHANGE PRINTOUT INTERVAL =        1
     PRINTING FROM SOLVER IS LIMITED(1) OR SUPPRESSED (>1) =        1
                            STEADY-STATE DAMPING PARAMETER =    0.10000E+01
                               TRANSIENT DAMPING PARAMETER =    0.10000E+01
1
                            STRESS PERIOD NO.    1, LENGTH =   92.00000    
                            -----------------------------------------------

                              NUMBER OF TIME STEPS =     1

                               MULTIPLIER FOR DELT =     1.500

                            INITIAL TIME STEP SIZE =   92.00000    

 WELL NO.  LAYER   ROW   COL   STRESS RATE         
 --------------------------------------------------
      1      1      5     13      -7278.    
      2      1      9     16      -9144.    
      3      1     16     19      -5032.    
      4      1     18     19      -8028.    

      4 WELLS

                 RECHARGE =  5.000000E-04



 CLASSIFICATION & COUNT OF STREAM SEGMENTS BASED ON SOURCE OF INFLOW:

                HEADWATER     DIVERSION     RECEIVES TRIBUTARY FLOW
                ---------     ---------     -----------------------
                     2              0               1



                    INPUT DATA FOR EACH STREAM SEGMENT
 ---------------------------------------------------------------------------------------------

 SEGMENT    SEG.     INFLOW   OVERLAND   STREAM    STREAM   ICALC  OUTFLOW  DIVERSION PRIORITY
    NO.    LENGTH     RATE     RUNOFF      ET       PPT.    METH.  TO SEG.  FROM SEG.    NO.

      1  4.400E+03 1.000E+05 0.000E+00 0.000E+00 0.000E+00    1        3        0        0
      2  1.800E+03 5.000E+04 0.000E+00 0.000E+00 0.000E+00    1        3        0        0
      3  1.800E+03 0.000E+00 0.000E+00 0.000E+00 0.000E+00    1        0        0        0


         STREAMBED PROPERTIES AND STREAM DIMENSIONS

 SEGMENT     BED HYD. COND.      BED THICKNESS     ELEV.-TOP OF BED     WIDTH OF STREAM     DEPTH OF STREAM    STREAM ROUGHNESS
    No.     UPPER     LOWER     UPPER     LOWER     UPPER     LOWER     UPPER     LOWER     UPPER     LOWER   CHANNEL      BANK

     1  5.000E+00 5.000E+00 1.000E+00 1.000E+00 4.850E+01 3.800E+01 2.000E+01 2.000E+01                     5.000E-02
     2  5.000E+00 5.000E+00 1.000E+00 1.000E+00 4.025E+01 3.800E+01 2.000E+01 2.000E+01                     5.000E-02
     3  5.000E+00 5.000E+00 1.000E+00 1.000E+00 3.800E+01 3.000E+01 2.000E+01 2.000E+01                     5.000E-02



 
 SOLVING FOR HEAD 


     9 CALLS TO PCG ROUTINE FOR TIME STEP   1 IN STRESS PERIOD    1
    36 TOTAL ITERATIONS

 OUTPUT CONTROL FOR STRESS PERIOD    1   TIME STEP    1
    SAVE BUDGET
    SAVE HEAD FOR ALL LAYERS
    PRINT HEAD FOR ALL LAYERS
 UBDSV2 SAVING "STREAMFLOW OUT  " ON UNIT  50 AT TIME STEP  1, STRESS PERIOD   1



 STREAM LISTING     PERIOD      1   STEP        1

 LAYER ROW COL. STREAM  RCH.  FLOW INTO     FLOW TO   FLOW OUT OF   OVRLND.     DIRECT     STREAM       STREAM     STREAM     STREAM   STREAMBED  STREAMBED
                SEG.NO.  NO.  STRM. RCH.    AQUIFER    STRM. RCH.    RUNOFF     PRECIP       ET          HEAD       DEPTH      WIDTH   CONDCTNC.   GRADIENT

   1   13    1     1     1    1.0000E+05 -6.0898E+03   1.0609E+05  0.000E+00  0.000E+00  0.000E+00  4.84086E+01  1.473E-01  2.000E+01  2.000E+04 -3.045E-01
   1   13    2     1     2    1.0609E+05 -7.5581E+03   1.1365E+05  0.000E+00  0.000E+00  0.000E+00  4.79371E+01  1.531E-01  2.000E+01  2.000E+04 -3.779E-01
   1   14    3     1     3    1.1365E+05 -2.1967E+03   1.1584E+05  0.000E+00  0.000E+00  0.000E+00  4.74639E+01  1.571E-01  2.000E+01  2.000E+04 -1.098E-01
   1   15    4     1     4    1.1584E+05 -2.2682E+03   1.1811E+05  0.000E+00  0.000E+00  0.000E+00  4.69885E+01  1.589E-01  2.000E+01  2.000E+04 -1.134E-01
   1   16    5     1     5    1.1811E+05 -7.1701E+03   1.2528E+05  0.000E+00  0.000E+00  0.000E+00  4.65150E+01  1.627E-01  2.000E+01  2.000E+04 -3.585E-01
   1   16    6     1     6    1.2528E+05 -4.2900E+03   1.2957E+05  0.000E+00  0.000E+00  0.000E+00  4.60423E+01  1.673E-01  2.000E+01  2.000E+04 -2.145E-01
   1   16    7     1     7    1.2957E+05 -4.1196E+03   1.3369E+05  0.000E+00  0.000E+00  0.000E+00  4.55683E+01  1.706E-01  2.000E+01  2.000E+04 -2.060E-01
   1   16    8     1     8    1.3369E+05 -4.0704E+03   1.3776E+05  0.000E+00  0.000E+00  0.000E+00  4.50942E+01  1.738E-01  2.000E+01  2.000E+04 -2.035E-01
   1   16    9     1     9    1.3776E+05 -4.0466E+03   1.4181E+05  0.000E+00  0.000E+00  0.000E+00  4.46200E+01  1.768E-01  2.000E+01  2.000E+04 -2.023E-01
   1   16   10     1    10    1.4181E+05 -4.0224E+03   1.4583E+05  0.000E+00  0.000E+00  0.000E+00  4.41458E+01  1.799E-01  2.000E+01  2.000E+04 -2.011E-01
   1   16   11     1    11    1.4583E+05 -4.0163E+03   1.4985E+05  0.000E+00  0.000E+00  0.000E+00  4.36715E+01  1.829E-01  2.000E+01  2.000E+04 -2.008E-01
   1   16   12     1    12    1.4985E+05 -6.6378E+03   1.5649E+05  0.000E+00  0.000E+00  0.000E+00  4.31982E+01  1.868E-01  2.000E+01  2.000E+04 -3.319E-01
   1   15   13     1    13    1.5649E+05 -6.7907E+03   1.6328E+05  0.000E+00  0.000E+00  0.000E+00  4.27258E+01  1.917E-01  2.000E+01  2.000E+04 -3.395E-01
   1   14   14     1    14    1.6328E+05 -7.0820E+03   1.7036E+05  0.000E+00  0.000E+00  0.000E+00  4.22535E+01  1.966E-01  2.000E+01  2.000E+04 -3.541E-01
   1   13   15     1    15    1.7036E+05 -7.1674E+03   1.7753E+05  0.000E+00  0.000E+00  0.000E+00  4.17812E+01  2.016E-01  2.000E+01  2.000E+04 -3.584E-01
   1   12   16     1    16    1.7753E+05 -7.2502E+03   1.8478E+05  0.000E+00  0.000E+00  0.000E+00  4.13089E+01  2.066E-01  2.000E+01  2.000E+04 -3.625E-01
   1   12   17     1    17    1.8478E+05 -5.1852E+03   1.8996E+05  0.000E+00  0.000E+00  0.000E+00  4.08358E+01  2.108E-01  2.000E+01  2.000E+04 -2.593E-01
   1   12   18     1    18    1.8996E+05 -5.2211E+03   1.9518E+05  0.000E+00  0.000E+00  0.000E+00  4.03621E+01  2.143E-01  2.000E+01  2.000E+04 -2.611E-01
   1   12   19     1    19    1.9518E+05 -6.9355E+03   2.0212E+05  0.000E+00  0.000E+00  0.000E+00  3.98888E+01  2.184E-01  2.000E+01  2.000E+04 -3.468E-01
   1   13   20     1    20    2.0212E+05 -5.8758E+03   2.0799E+05  0.000E+00  0.000E+00  0.000E+00  3.94157E+01  2.226E-01  2.000E+01  2.000E+04 -2.938E-01
   1   14   21     1    21    2.0799E+05 -5.0474E+03   2.1304E+05  0.000E+00  0.000E+00  0.000E+00  3.89420E+01  2.261E-01  2.000E+01  2.000E+04 -2.524E-01
   1   14   22     1    22    2.1304E+05  3.8312E+03   2.0921E+05  0.000E+00  0.000E+00  0.000E+00  3.84651E+01  2.265E-01  2.000E+01  2.000E+04  1.916E-01
   1    9   30     2     1    5.0000E+04 -4.8407E+03   5.4841E+04  0.000E+00  0.000E+00  0.000E+00  4.02442E+01  1.192E-01  2.000E+01  2.000E+04 -2.420E-01
   1    9   29     2     2    5.4841E+04 -5.1333E+03   5.9974E+04  0.000E+00  0.000E+00  0.000E+00  4.00009E+01  1.259E-01  2.000E+01  2.000E+04 -2.567E-01
   1    9   28     2     3    5.9974E+04 -5.4107E+03   6.5385E+04  0.000E+00  0.000E+00  0.000E+00  3.97577E+01  1.327E-01  2.000E+01  2.000E+04 -2.705E-01
   1    9   27     2     4    6.5385E+04 -8.2188E+03   7.3603E+04  0.000E+00  0.000E+00  0.000E+00  3.95162E+01  1.412E-01  2.000E+01  2.000E+04 -4.109E-01
   1   10   26     2     5    7.3603E+04 -7.2502E+03   8.0854E+04  0.000E+00  0.000E+00  0.000E+00  3.92754E+01  1.504E-01  2.000E+01  2.000E+04 -3.625E-01
   1   11   25     2     6    8.0854E+04 -6.6919E+03   8.7545E+04  0.000E+00  0.000E+00  0.000E+00  3.90334E+01  1.584E-01  2.000E+01  2.000E+04 -3.346E-01
   1   12   24     2     7    8.7545E+04 -6.1853E+03   9.3731E+04  0.000E+00  0.000E+00  0.000E+00  3.87906E+01  1.656E-01  2.000E+01  2.000E+04 -3.093E-01
   1   13   23     2     8    9.3731E+04 -1.6309E+03   9.5362E+04  0.000E+00  0.000E+00  0.000E+00  3.85448E+01  1.698E-01  2.000E+01  2.000E+04 -8.155E-02
   1   14   22     2     9    9.5362E+04  4.3771E+02   9.4924E+04  0.000E+00  0.000E+00  0.000E+00  3.82955E+01  1.705E-01  2.000E+01  2.000E+04  2.189E-02
   1   14   22     3     1    3.0413E+05 -9.6367E+03   3.1377E+05  0.000E+00  0.000E+00  0.000E+00  3.77917E+01  2.362E-01  2.000E+01  2.000E+04 -4.818E-01
   1   15   23     3     2    3.1377E+05 -1.8081E+03   3.1558E+05  0.000E+00  0.000E+00  0.000E+00  3.69055E+01  2.388E-01  2.000E+01  2.000E+04 -9.041E-02
   1   15   24     3     3    3.1558E+05 -1.5027E+03   3.1708E+05  0.000E+00  0.000E+00  0.000E+00  3.60173E+01  2.395E-01  2.000E+01  2.000E+04 -7.514E-02
   1   15   25     3     4    3.1708E+05 -1.5676E+03   3.1865E+05  0.000E+00  0.000E+00  0.000E+00  3.51291E+01  2.402E-01  2.000E+01  2.000E+04 -7.838E-02
   1   15   26     3     5    3.1865E+05 -1.8780E+03   3.2053E+05  0.000E+00  0.000E+00  0.000E+00  3.42410E+01  2.410E-01  2.000E+01  2.000E+04 -9.390E-02
   1   16   27     3     6    3.2053E+05 -2.1562E+03   3.2268E+05  0.000E+00  0.000E+00  0.000E+00  3.33530E+01  2.419E-01  2.000E+01  2.000E+04 -1.078E-01
   1   17   28     3     7    3.2268E+05 -6.5453E+03   3.2923E+05  0.000E+00  0.000E+00  0.000E+00  3.24661E+01  2.439E-01  2.000E+01  2.000E+04 -3.273E-01
   1   18   29     3     8    3.2923E+05 -7.9131E+03   3.3714E+05  0.000E+00  0.000E+00  0.000E+00  3.15805E+01  2.471E-01  2.000E+01  2.000E+04 -3.957E-01
   1   18   30     3     9    3.3714E+05 -7.1285E+03   3.4427E+05  0.000E+00  0.000E+00  0.000E+00  3.06949E+01  2.505E-01  2.000E+01  2.000E+04 -3.564E-01



1
              HEAD IN LAYER   1 AT END OF TIME STEP   1 IN STRESS PERIOD    1
  ---------------------------------------------------------------------------

          1      2      3      4      5      6      7      8      9     10
         11     12     13     14     15     16     17     18     19     20
         21     22     23     24     25     26     27     28     29     30
 .........................................................................
   1  ****** ****** ****** ****** ****** ****** ****** ****** ****** ******
      ****** ****** ****** ****** ****** ****** ****** ****** ****** ******
      ****** ****** ****** ****** ****** ****** ****** ****** ****** ******
   2  ****** ****** ****** ****** ****** ****** ****** ****** ****** ******
      ****** ****** ****** ****** ****** ****** ****** ****** ****** ******
      ****** ****** ****** ****** ****** ****** ****** ****** ****** ******
   3  ****** ****** ****** ****** ****** ****** ****** ****** ****** ******
      ****** ****** ****** ****** ****** ****** ****** ****** ****** ******
      ****** ****** ****** ****** ****** ****** ****** ****** ****** ******
   4  ****** ****** ****** ****** ****** ****** ****** ****** ****** ******
      ****** ****** ****** ****** ****** ****** ****** ****** ****** ******
      ****** ****** ****** ****** ****** ****** ****** ****** ****** ******
   5  ****** ****** ****** ****** ****** ****** ****** ****** ****** ******
      ****** ****** ****** ****** ****** ****** ****** ****** ****** ******
      ****** ****** ****** ****** ****** ****** ****** ****** ****** ******
   6  ****** ****** ****** ****** ****** ****** ****** ****** ****** ******
      ****** ****** ****** ****** ****** ****** ****** ****** ****** ******
      ****** ****** ****** ****** ****** ****** ****** ****** ****** ******
   7  ****** ****** ****** ****** ****** ****** ****** ****** ****** ******
      ****** ****** ****** ****** ****** ****** ****** ****** ****** ******
      ****** ****** ****** ****** ****** ****** ****** ****** ****** ******
   8  ****** ****** ****** ****** ****** ****** ****** ****** ****** ******
      ****** ****** ****** ****** ****** ****** ****** ****** ****** ******
      ****** ****** ****** ****** ****** ****** ****** ****** ****** ******
   9  ****** ****** ****** ****** ****** ****** ****** ****** ****** ******
      ****** ****** ****** ****** ****** ****** ****** ****** ****** ******
      ****** ****** ****** ****** ****** ****** ****** ****** ****** ******
  10  ****** ****** ****** ****** ****** ****** ****** ****** ****** ******
      ****** ****** ****** ****** ****** ****** ****** ****** ****** ******
      ****** ****** ****** ****** ****** ****** ****** ****** ****** ******
  11  ****** ****** ****** ****** ****** ****** ****** ****** ****** ******
      ****** ****** ****** ****** ****** ****** ****** ****** ****** ******
      ****** ****** ****** ****** ****** ****** ****** ****** ****** ******
  12  ****** ****** ****** ****** ****** ****** ****** ****** ****** ******
      ****** ****** ****** ****** ****** ****** ****** ****** ****** ******
      ****** ****** ****** ****** ****** ****** ****** ****** ****** ******
  13  ****** ****** ****** ****** ****** ****** ****** ****** ****** ******
      ****** ****** ****** ****** ****** ****** ****** ****** ****** ******
      ****** ****** ****** ****** ****** ****** ****** ****** ****** ******
  14  ****** ****** ****** ****** ****** ****** ****** ****** ****** ******
      ****** ****** ****** ****** ****** ****** ****** ****** ****** ******
      ****** ****** ****** ****** ****** ****** ****** ****** ****** ******
  15  ****** ****** ****** ****** ****** ****** ****** ****** ****** ******
      ****** ****** ****** ****** ****** ****** ****** ****** ****** ******
      ****** ****** ****** ****** ****** ****** ****** ****** ****** ******
  16  ****** ****** ****** ****** ****** ****** ****** ****** ****** ******
      ****** ****** ****** ****** ****** ****** ****** ****** ****** ******
      ****** ****** ****** ****** ****** ****** ****** ****** ****** ******
  17  ****** ****** ****** ****** ****** ****** ****** ****** ****** ******
      ****** ****** ****** ****** ****** ****** ****** ****** ****** ******
      ****** ****** ****** ****** ****** ****** ****** ****** ****** ******
  18  ****** ****** ****** ****** ****** ****** ****** ****** ****** ******
      ****** ****** ****** ****** ****** ****** ****** ****** ****** ******
      ****** ****** ****** ****** ****** ****** ****** ****** ****** ******
  19  ****** ****** ****** ****** ****** ****** ****** ****** ****** ******
      ****** ****** ****** ****** ****** ****** ****** ****** ****** ******
      ****** ****** ****** ****** ****** ****** ****** ****** ****** ******
  20  ****** ****** ****** ****** ****** ****** ****** ****** ****** ******
      ****** ****** ****** ****** ****** ****** ****** ****** ****** ******
      ****** ****** ****** ****** ****** ****** ****** ****** ****** ******
  21  ****** ****** ****** ****** ****** ****** ****** ****** ****** ******
      ****** ****** ****** ****** ****** ****** ****** ****** ****** ******
      ****** ****** ****** ****** ****** ****** ****** ****** ****** ******
  22  ****** ****** ****** ****** ****** ****** ****** ****** ****** ******
      ****** ****** ****** ****** ****** ****** ****** ****** ****** ******
      ****** ****** ****** ****** ****** ****** ****** ****** ****** ******
  23  ****** ****** ****** ****** ****** ****** ****** ****** ****** ******
      ****** ****** ****** ****** ****** ****** ****** ****** ****** ******
      ****** ****** ****** ****** ****** ****** ****** ****** ****** ******
  24  ****** ****** ****** ****** ****** ****** ****** ****** ****** ******
      ****** ****** ****** ****** ****** ****** ****** ****** ****** ******
      ****** ****** ****** ****** ****** ****** ****** ****** ****** ******
  25  ****** ****** ****** ****** ****** ****** ****** ****** ****** ******
      ****** ****** ****** ****** ****** ****** ****** ****** ****** ******
      ****** ****** ****** ****** ****** ****** ****** ****** ****** ******

 HEAD WILL BE SAVED ON UNIT   51 AT END OF TIME STEP    1, STRESS PERIOD    1
1
  VOLUMETRIC BUDGET FOR ENTIRE MODEL AT END OF TIME STEP    1, STRESS PERIOD   1
  ------------------------------------------------------------------------------

     CUMULATIVE VOLUMES      L**3       RATES FOR THIS TIME STEP      L**3/T
     ------------------                 ------------------------

           IN:                                      IN:
           ---                                      ---
             STORAGE =    18128252.8322               STORAGE =      197046.2264
       CONSTANT HEAD =     1187309.4929         CONSTANT HEAD =       12905.5380
               WELLS =           0.0000                 WELLS =           0.0000
            RECHARGE =     1269600.0000              RECHARGE =       13800.0000
      STREAM LEAKAGE =      392742.3895        STREAM LEAKAGE =        4268.9390

            TOTAL IN =    20977904.7147              TOTAL IN =      228020.7034

          OUT:                                     OUT:
          ----                                     ----
             STORAGE =           0.0000               STORAGE =           0.0000
       CONSTANT HEAD =           0.0000         CONSTANT HEAD =           0.0000
               WELLS =     2712297.9397                 WELLS =       29481.4993
            RECHARGE =           0.0000              RECHARGE =           0.0000
      STREAM LEAKAGE =    18265607.0727        STREAM LEAKAGE =      198539.2073

           TOTAL OUT =    20977905.0124             TOTAL OUT =      228020.7067

            IN - OUT =          -0.2977              IN - OUT =      -3.2360E-03

 PERCENT DISCREPANCY =          -0.00     PERCENT DISCREPANCY =          -0.00






         TIME SUMMARY AT END OF TIME STEP    1 IN STRESS PERIOD    1
                    SECONDS     MINUTES      HOURS       DAYS        YEARS
                    -----------------------------------------------------------
   TIME STEP LENGTH 7.94880E+06 1.32480E+05  2208.0      92.000     0.25188    
 STRESS PERIOD TIME 7.94880E+06 1.32480E+05  2208.0      92.000     0.25188    
         TOTAL TIME 7.94880E+06 1.32480E+05  2208.0      92.000     0.25188    
1
1
                            STRESS PERIOD NO.    2, LENGTH =   91.00000    
                            -----------------------------------------------

                              NUMBER OF TIME STEPS =     1

                               MULTIPLIER FOR DELT =     1.500

                            INITIAL TIME STEP SIZE =   91.00000    

 WELL NO.  LAYER   ROW   COL   STRESS RATE         
 --------------------------------------------------
      1      1      5     13      -7278.    
      2      1      9     16      -9144.    
      3      1     16     19      -5032.    
      4      1     18     19      -8028.    

      4 WELLS

                 RECHARGE =  2.000000E-03

 REUSING STREAM SEGMENT DATA FROM LAST STRESS PERIOD
 
 SOLVING FOR HEAD 


     7 CALLS TO PCG ROUTINE FOR TIME STEP   1 IN STRESS PERIOD    2
    27 TOTAL ITERATIONS

 OUTPUT CONTROL FOR STRESS PERIOD    2   TIME STEP    1
    SAVE BUDGET
    SAVE HEAD FOR ALL LAYERS
    PRINT HEAD FOR ALL LAYERS
 UBDSV2 SAVING "STREAMFLOW OUT  " ON UNIT  50 AT TIME STEP  1, STRESS PERIOD   2



 STREAM LISTING     PERIOD      2   STEP        1

 LAYER ROW COL. STREAM  RCH.  FLOW INTO     FLOW TO   FLOW OUT OF   OVRLND.     DIRECT     STREAM       STREAM     STREAM     STREAM   STREAMBED  STREAMBED
                SEG.NO.  NO.  STRM. RCH.    AQUIFER    STRM. RCH.    RUNOFF     PRECIP       ET          HEAD       DEPTH      WIDTH   CONDCTNC.   GRADIENT

   1   13    1     1     1    1.0000E+05 -3.9216E+03   1.0392E+05  0.000E+00  0.000E+00  0.000E+00  4.84077E+01  1.463E-01  2.000E+01  2.000E+04 -1.961E-01
   1   13    2     1     2    1.0392E+05 -5.1790E+03   1.0910E+05  0.000E+00  0.000E+00  0.000E+00  4.79343E+01  1.502E-01  2.000E+01  2.000E+04 -2.590E-01
   1   14    3     1     3    1.0910E+05 -1.1094E+03   1.1021E+05  0.000E+00  0.000E+00  0.000E+00  4.74597E+01  1.529E-01  2.000E+01  2.000E+04 -5.547E-02
   1   15    4     1     4    1.1021E+05 -1.1379E+03   1.1135E+05  0.000E+00  0.000E+00  0.000E+00  4.69834E+01  1.538E-01  2.000E+01  2.000E+04 -5.689E-02
   1   16    5     1     5    1.1135E+05 -4.2189E+03   1.1557E+05  0.000E+00  0.000E+00  0.000E+00  4.65083E+01  1.560E-01  2.000E+01  2.000E+04 -2.109E-01
   1   16    6     1     6    1.1557E+05 -2.4774E+03   1.1804E+05  0.000E+00  0.000E+00  0.000E+00  4.60338E+01  1.588E-01  2.000E+01  2.000E+04 -1.239E-01
   1   16    7     1     7    1.1804E+05 -2.3733E+03   1.2042E+05  0.000E+00  0.000E+00  0.000E+00  4.55585E+01  1.608E-01  2.000E+01  2.000E+04 -1.187E-01
   1   16    8     1     8    1.2042E+05 -2.3289E+03   1.2275E+05  0.000E+00  0.000E+00  0.000E+00  4.50831E+01  1.626E-01  2.000E+01  2.000E+04 -1.164E-01
   1   16    9     1     9    1.2275E+05 -2.2851E+03   1.2503E+05  0.000E+00  0.000E+00  0.000E+00  4.46077E+01  1.645E-01  2.000E+01  2.000E+04 -1.143E-01
   1   16   10     1    10    1.2503E+05 -2.2250E+03   1.2726E+05  0.000E+00  0.000E+00  0.000E+00  4.41322E+01  1.663E-01  2.000E+01  2.000E+04 -1.112E-01
   1   16   11     1    11    1.2726E+05 -2.1656E+03   1.2942E+05  0.000E+00  0.000E+00  0.000E+00  4.36566E+01  1.680E-01  2.000E+01  2.000E+04 -1.083E-01
   1   16   12     1    12    1.2942E+05 -3.5430E+03   1.3297E+05  0.000E+00  0.000E+00  0.000E+00  4.31816E+01  1.702E-01  2.000E+01  2.000E+04 -1.771E-01
   1   15   13     1    13    1.3297E+05 -3.2913E+03   1.3626E+05  0.000E+00  0.000E+00  0.000E+00  4.27070E+01  1.729E-01  2.000E+01  2.000E+04 -1.646E-01
   1   14   14     1    14    1.3626E+05 -3.3988E+03   1.3966E+05  0.000E+00  0.000E+00  0.000E+00  4.22323E+01  1.755E-01  2.000E+01  2.000E+04 -1.699E-01
   1   13   15     1    15    1.3966E+05 -3.4317E+03   1.4309E+05  0.000E+00  0.000E+00  0.000E+00  4.17576E+01  1.780E-01  2.000E+01  2.000E+04 -1.716E-01
   1   12   16     1    16    1.4309E+05 -3.6240E+03   1.4671E+05  0.000E+00  0.000E+00  0.000E+00  4.12830E+01  1.807E-01  2.000E+01  2.000E+04 -1.812E-01
   1   12   17     1    17    1.4671E+05 -2.3691E+03   1.4908E+05  0.000E+00  0.000E+00  0.000E+00  4.08079E+01  1.829E-01  2.000E+01  2.000E+04 -1.185E-01
   1   12   18     1    18    1.4908E+05 -2.4394E+03   1.5152E+05  0.000E+00  0.000E+00  0.000E+00  4.03324E+01  1.847E-01  2.000E+01  2.000E+04 -1.220E-01
   1   12   19     1    19    1.5152E+05 -3.5518E+03   1.5507E+05  0.000E+00  0.000E+00  0.000E+00  3.98574E+01  1.869E-01  2.000E+01  2.000E+04 -1.776E-01
   1   13   20     1    20    1.5507E+05 -2.4935E+03   1.5756E+05  0.000E+00  0.000E+00  0.000E+00  3.93823E+01  1.891E-01  2.000E+01  2.000E+04 -1.247E-01
   1   14   21     1    21    1.5756E+05 -1.9335E+03   1.5950E+05  0.000E+00  0.000E+00  0.000E+00  3.89066E+01  1.907E-01  2.000E+01  2.000E+04 -9.668E-02
   1   14   22     1    22    1.5950E+05  4.6430E+03   1.5486E+05  0.000E+00  0.000E+00  0.000E+00  3.84284E+01  1.897E-01  2.000E+01  2.000E+04  2.321E-01
   1    9   30     2     1    5.0000E+04 -2.1149E+03   5.2115E+04  0.000E+00  0.000E+00  0.000E+00  4.02423E+01  1.173E-01  2.000E+01  2.000E+04 -1.057E-01
   1    9   29     2     2    5.2115E+04 -2.4192E+03   5.4534E+04  0.000E+00  0.000E+00  0.000E+00  3.99954E+01  1.204E-01  2.000E+01  2.000E+04 -1.210E-01
   1    9   28     2     3    5.4534E+04 -2.7090E+03   5.7243E+04  0.000E+00  0.000E+00  0.000E+00  3.97489E+01  1.239E-01  2.000E+01  2.000E+04 -1.355E-01
   1    9   27     2     4    5.7243E+04 -4.7161E+03   6.1959E+04  0.000E+00  0.000E+00  0.000E+00  3.95037E+01  1.287E-01  2.000E+01  2.000E+04 -2.358E-01
   1   10   26     2     5    6.1959E+04 -3.6091E+03   6.5568E+04  0.000E+00  0.000E+00  0.000E+00  3.92591E+01  1.341E-01  2.000E+01  2.000E+04 -1.805E-01
   1   11   25     2     6    6.5568E+04 -3.2026E+03   6.8771E+04  0.000E+00  0.000E+00  0.000E+00  3.90133E+01  1.383E-01  2.000E+01  2.000E+04 -1.601E-01
   1   12   24     2     7    6.8771E+04 -3.0435E+03   7.1815E+04  0.000E+00  0.000E+00  0.000E+00  3.87671E+01  1.421E-01  2.000E+01  2.000E+04 -1.522E-01
   1   13   23     2     8    7.1815E+04 -5.7889E+02   7.2393E+04  0.000E+00  0.000E+00  0.000E+00  3.85193E+01  1.443E-01  2.000E+01  2.000E+04 -2.894E-02
   1   14   22     2     9    7.2393E+04  1.4515E+03   7.0942E+04  0.000E+00  0.000E+00  0.000E+00  3.82688E+01  1.438E-01  2.000E+01  2.000E+04  7.258E-02
   1   14   22     3     1    2.2580E+05 -8.8541E+03   2.3465E+05  0.000E+00  0.000E+00  0.000E+00  3.77535E+01  1.980E-01  2.000E+01  2.000E+04 -4.427E-01
   1   15   23     3     2    2.3465E+05 -7.9515E+02   2.3545E+05  0.000E+00  0.000E+00  0.000E+00  3.68671E+01  2.004E-01  2.000E+01  2.000E+04 -3.976E-02
   1   15   24     3     3    2.3545E+05 -6.1604E+02   2.3606E+05  0.000E+00  0.000E+00  0.000E+00  3.59786E+01  2.008E-01  2.000E+01  2.000E+04 -3.080E-02
   1   15   25     3     4    2.3606E+05 -6.4672E+02   2.3671E+05  0.000E+00  0.000E+00  0.000E+00  3.50900E+01  2.011E-01  2.000E+01  2.000E+04 -3.234E-02
   1   15   26     3     5    2.3671E+05 -7.6188E+02   2.3747E+05  0.000E+00  0.000E+00  0.000E+00  3.42015E+01  2.015E-01  2.000E+01  2.000E+04 -3.809E-02
   1   16   27     3     6    2.3747E+05 -8.7928E+02   2.3835E+05  0.000E+00  0.000E+00  0.000E+00  3.33130E+01  2.019E-01  2.000E+01  2.000E+04 -4.396E-02
   1   17   28     3     7    2.3835E+05 -3.1815E+03   2.4153E+05  0.000E+00  0.000E+00  0.000E+00  3.24252E+01  2.029E-01  2.000E+01  2.000E+04 -1.591E-01
   1   18   29     3     8    2.4153E+05 -4.8790E+03   2.4641E+05  0.000E+00  0.000E+00  0.000E+00  3.15383E+01  2.050E-01  2.000E+01  2.000E+04 -2.439E-01
   1   18   30     3     9    2.4641E+05 -4.5828E+03   2.5099E+05  0.000E+00  0.000E+00  0.000E+00  3.06518E+01  2.074E-01  2.000E+01  2.000E+04 -2.291E-01



1
              HEAD IN LAYER   1 AT END OF TIME STEP   1 IN STRESS PERIOD    2
  ---------------------------------------------------------------------------

          1      2      3      4      5      6      7      8      9     10
         11     12     13     14     15     16     17     18     19     20
         21     22     23     24     25     26     27     28     29     30
 .........................................................................
   1  ****** ****** ****** ****** ****** ****** ****** ****** ****** ******
      ****** ****** ****** ****** ****** ****** ****** ****** ****** ******
      ****** ****** ****** ****** ****** ****** ****** ****** ****** ******
   2  ****** ****** ****** ****** ****** ****** ****** ****** ****** ******
      ****** ****** ****** ****** ****** ****** ****** ****** ****** ******
      ****** ****** ****** ****** ****** ****** ****** ****** ****** ******
   3  ****** ****** ****** ****** ****** ****** ****** ****** ****** ******
      ****** ****** ****** ****** ****** ****** ****** ****** ****** ******
      ****** ****** ****** ****** ****** ****** ****** ****** ****** ******
   4  ****** ****** ****** ****** ****** ****** ****** ****** ****** ******
      ****** ****** ****** ****** ****** ****** ****** ****** ****** ******
      ****** ****** ****** ****** ****** ****** ****** ****** ****** ******
   5  ****** ****** ****** ****** ****** ****** ****** ****** ****** ******
      ****** ****** ****** ****** ****** ****** ****** ****** ****** ******
      ****** ****** ****** ****** ****** ****** ****** ****** ****** ******
   6  ****** ****** ****** ****** ****** ****** ****** ****** ****** ******
      ****** ****** ****** ****** ****** ****** ****** ****** ****** ******
      ****** ****** ****** ****** ****** ****** ****** ****** ****** ******
   7  ****** ****** ****** ****** ****** ****** ****** ****** ****** ******
      ****** ****** ****** ****** ****** ****** ****** ****** ****** ******
      ****** ****** ****** ****** ****** ****** ****** ****** ****** ******
   8  ****** ****** ****** ****** ****** ****** ****** ****** ****** ******
      ****** ****** ****** ****** ****** ****** ****** ****** ****** ******
      ****** ****** ****** ****** ****** ****** ****** ****** ****** ******
   9  ****** ****** ****** ****** ****** ****** ****** ****** ****** ******
      ****** ****** ****** ****** ****** ****** ****** ****** ****** ******
      ****** ****** ****** ****** ****** ****** ****** ****** ****** ******
  10  ****** ****** ****** ****** ****** ****** ****** ****** ****** ******
      ****** ****** ****** ****** ****** ****** ****** ****** ****** ******
      ****** ****** ****** ****** ****** ****** ****** ****** ****** ******
  11  ****** ****** ****** ****** ****** ****** ****** ****** ****** ******
      ****** ****** ****** ****** ****** ****** ****** ****** ****** ******
      ****** ****** ****** ****** ****** ****** ****** ****** ****** ******
  12  ****** ****** ****** ****** ****** ****** ****** ****** ****** ******
      ****** ****** ****** ****** ****** ****** ****** ****** ****** ******
      ****** ****** ****** ****** ****** ****** ****** ****** ****** ******
  13  ****** ****** ****** ****** ****** ****** ****** ****** ****** ******
      ****** ****** ****** ****** ****** ****** ****** ****** ****** ******
      ****** ****** ****** ****** ****** ****** ****** ****** ****** ******
  14  ****** ****** ****** ****** ****** ****** ****** ****** ****** ******
      ****** ****** ****** ****** ****** ****** ****** ****** ****** ******
      ****** ****** ****** ****** ****** ****** ****** ****** ****** ******
  15  ****** ****** ****** ****** ****** ****** ****** ****** ****** ******
      ****** ****** ****** ****** ****** ****** ****** ****** ****** ******
      ****** ****** ****** ****** ****** ****** ****** ****** ****** ******
  16  ****** ****** ****** ****** ****** ****** ****** ****** ****** ******
      ****** ****** ****** ****** ****** ****** ****** ****** ****** ******
      ****** ****** ****** ****** ****** ****** ****** ****** ****** ******
  17  ****** ****** ****** ****** ****** ****** ****** ****** ****** ******
      ****** ****** ****** ****** ****** ****** ****** ****** ****** ******
      ****** ****** ****** ****** ****** ****** ****** ****** ****** ******
  18  ****** ****** ****** ****** ****** ****** ****** ****** ****** ******
      ****** ****** ****** ****** ****** ****** ****** ****** ****** ******
      ****** ****** ****** ****** ****** ****** ****** ****** ****** ******
  19  ****** ****** ****** ****** ****** ****** ****** ****** ****** ******
      ****** ****** ****** ****** ****** ****** ****** ****** ****** ******
      ****** ****** ****** ****** ****** ****** ****** ****** ****** ******
  20  ****** ****** ****** ****** ****** ****** ****** ****** ****** ******
      ****** ****** ****** ****** ****** ****** ****** ****** ****** ******
      ****** ****** ****** ****** ****** ****** ****** ****** ****** ******
  21  ****** ****** ****** ****** ****** ****** ****** ****** ****** ******
      ****** ****** ****** ****** ****** ****** ****** ****** ****** ******
      ****** ****** ****** ****** ****** ****** ****** ****** ****** ******
  22  ****** ****** ****** ****** ****** ****** ****** ****** ****** ******
      ****** ****** ****** ****** ****** ****** ****** ****** ****** ******
      ****** ****** ****** ****** ****** ****** ****** ****** ****** ******
  23  ****** ****** ****** ****** ****** ****** ****** ****** ****** ******
      ****** ****** ****** ****** ****** ****** ****** ****** ****** ******
      ****** ****** ****** ****** ****** ****** ****** ****** ****** ******
  24  ****** ****** ****** ****** ****** ****** ****** ****** ****** ******
      ****** ****** ****** ****** ****** ****** ****** ****** ****** ******
      ****** ****** ****** ****** ****** ****** ****** ****** ****** ******
  25  ****** ****** ****** ****** ****** ****** ****** ****** ****** ******
      ****** ****** ****** ****** ****** ****** ****** ****** ****** ******
      ****** ****** ****** ****** ****** ****** ****** ****** ****** ******

 HEAD WILL BE SAVED ON UNIT   51 AT END OF TIME STEP    1, STRESS PERIOD    2
1
  VOLUMETRIC BUDGET FOR ENTIRE MODEL AT END OF TIME STEP    1, STRESS PERIOD   2
  ------------------------------------------------------------------------------

     CUMULATIVE VOLUMES      L**3       RATES FOR THIS TIME STEP      L**3/T
     ------------------                 ------------------------

           IN:                                      IN:
           ---                                      ---
             STORAGE =    23355618.0932               STORAGE =       57443.5743
       CONSTANT HEAD =     2809970.4934         CONSTANT HEAD =       17831.4396
               WELLS =           0.0000                 WELLS =           0.0000
            RECHARGE =     6292800.0000              RECHARGE =       55200.0000
      STREAM LEAKAGE =      947343.5093        STREAM LEAKAGE =        6094.5178

            TOTAL IN =    33405732.0959              TOTAL IN =      136569.5317

          OUT:                                     OUT:
          ----                                     ----
             STORAGE =           0.0000               STORAGE =           0.0000
       CONSTANT HEAD =           0.0000         CONSTANT HEAD =           0.0000
               WELLS =     5395114.3800                 WELLS =       29481.4993
            RECHARGE =           0.0000              RECHARGE =           0.0000
      STREAM LEAKAGE =    28010618.9620        STREAM LEAKAGE =      107088.0427

           TOTAL OUT =    33405733.3420             TOTAL OUT =      136569.5421

            IN - OUT =          -1.2461              IN - OUT =      -1.0422E-02

 PERCENT DISCREPANCY =          -0.00     PERCENT DISCREPANCY =          -0.00






         TIME SUMMARY AT END OF TIME STEP    1 IN STRESS PERIOD    2
                    SECONDS     MINUTES      HOURS       DAYS        YEARS
                    -----------------------------------------------------------
   TIME STEP LENGTH 7.86240E+06 1.31040E+05  2184.0      91.000     0.24914    
 STRESS PERIOD TIME 7.86240E+06 1.31040E+05  2184.0      91.000     0.24914    
         TOTAL TIME 1.58112E+07 2.63520E+05  4392.0      183.00     0.50103    
1
1
                            STRESS PERIOD NO.    3, LENGTH =   91.00000    
                            -----------------------------------------------

                              NUMBER OF TIME STEPS =     1

                               MULTIPLIER FOR DELT =     1.500

                            INITIAL TIME STEP SIZE =   91.00000    

 WELL NO.  LAYER   ROW   COL   STRESS RATE         
 --------------------------------------------------
      1      1      5     13      -7278.    
      2      1      9     16      -9144.    
      3      1     16     19      -5032.    
      4      1     18     19      -8028.    

      4 WELLS

                 RECHARGE =   0.00000    

 REUSING STREAM SEGMENT DATA FROM LAST STRESS PERIOD
 
 SOLVING FOR HEAD 


     7 CALLS TO PCG ROUTINE FOR TIME STEP   1 IN STRESS PERIOD    3
    27 TOTAL ITERATIONS

 OUTPUT CONTROL FOR STRESS PERIOD    3   TIME STEP    1
    SAVE BUDGET
    SAVE HEAD FOR ALL LAYERS
    PRINT HEAD FOR ALL LAYERS
 UBDSV2 SAVING "STREAMFLOW OUT  " ON UNIT  50 AT TIME STEP  1, STRESS PERIOD   3



 STREAM LISTING     PERIOD      3   STEP        1

 LAYER ROW COL. STREAM  RCH.  FLOW INTO     FLOW TO   FLOW OUT OF   OVRLND.     DIRECT     STREAM       STREAM     STREAM     STREAM   STREAMBED  STREAMBED
                SEG.NO.  NO.  STRM. RCH.    AQUIFER    STRM. RCH.    RUNOFF     PRECIP       ET          HEAD       DEPTH      WIDTH   CONDCTNC.   GRADIENT

   1   13    1     1     1    1.0000E+05 -2.6185E+03   1.0262E+05  0.000E+00  0.000E+00  0.000E+00  4.84071E+01  1.458E-01  2.000E+01  2.000E+04 -1.309E-01
   1   13    2     1     2    1.0262E+05 -3.7179E+03   1.0634E+05  0.000E+00  0.000E+00  0.000E+00  4.79326E+01  1.485E-01  2.000E+01  2.000E+04 -1.859E-01
   1   14    3     1     3    1.0634E+05 -6.4323E+02   1.0698E+05  0.000E+00  0.000E+00  0.000E+00  4.74572E+01  1.504E-01  2.000E+01  2.000E+04 -3.216E-02
   1   15    4     1     4    1.0698E+05 -6.2836E+02   1.0761E+05  0.000E+00  0.000E+00  0.000E+00  4.69804E+01  1.509E-01  2.000E+01  2.000E+04 -3.142E-02
   1   16    5     1     5    1.0761E+05 -2.4079E+03   1.1002E+05  0.000E+00  0.000E+00  0.000E+00  4.65044E+01  1.522E-01  2.000E+01  2.000E+04 -1.204E-01
   1   16    6     1     6    1.1002E+05 -1.4613E+03   1.1148E+05  0.000E+00  0.000E+00  0.000E+00  4.60288E+01  1.538E-01  2.000E+01  2.000E+04 -7.307E-02
   1   16    7     1     7    1.1148E+05 -1.4125E+03   1.1289E+05  0.000E+00  0.000E+00  0.000E+00  4.55527E+01  1.550E-01  2.000E+01  2.000E+04 -7.062E-02
   1   16    8     1     8    1.1289E+05 -1.3820E+03   1.1427E+05  0.000E+00  0.000E+00  0.000E+00  4.50766E+01  1.561E-01  2.000E+01  2.000E+04 -6.910E-02
   1   16    9     1     9    1.1427E+05 -1.3376E+03   1.1561E+05  0.000E+00  0.000E+00  0.000E+00  4.46004E+01  1.573E-01  2.000E+01  2.000E+04 -6.688E-02
   1   16   10     1    10    1.1561E+05 -1.2711E+03   1.1688E+05  0.000E+00  0.000E+00  0.000E+00  4.41242E+01  1.583E-01  2.000E+01  2.000E+04 -6.356E-02
   1   16   11     1    11    1.1688E+05 -1.1959E+03   1.1808E+05  0.000E+00  0.000E+00  0.000E+00  4.36480E+01  1.593E-01  2.000E+01  2.000E+04 -5.980E-02
   1   16   12     1    12    1.1808E+05 -1.8255E+03   1.1990E+05  0.000E+00  0.000E+00  0.000E+00  4.31719E+01  1.606E-01  2.000E+01  2.000E+04 -9.127E-02
   1   15   13     1    13    1.1990E+05 -1.5117E+03   1.2141E+05  0.000E+00  0.000E+00  0.000E+00  4.26960E+01  1.619E-01  2.000E+01  2.000E+04 -7.559E-02
   1   14   14     1    14    1.2141E+05 -1.5475E+03   1.2296E+05  0.000E+00  0.000E+00  0.000E+00  4.22200E+01  1.631E-01  2.000E+01  2.000E+04 -7.737E-02
   1   13   15     1    15    1.2296E+05 -1.5565E+03   1.2452E+05  0.000E+00  0.000E+00  0.000E+00  4.17439E+01  1.644E-01  2.000E+01  2.000E+04 -7.783E-02
   1   12   16     1    16    1.2452E+05 -1.6583E+03   1.2618E+05  0.000E+00  0.000E+00  0.000E+00  4.12679E+01  1.657E-01  2.000E+01  2.000E+04 -8.291E-02
   1   12   17     1    17    1.2618E+05 -9.6703E+02   1.2714E+05  0.000E+00  0.000E+00  0.000E+00  4.07917E+01  1.667E-01  2.000E+01  2.000E+04 -4.835E-02
   1   12   18     1    18    1.2714E+05 -1.0700E+03   1.2821E+05  0.000E+00  0.000E+00  0.000E+00  4.03152E+01  1.675E-01  2.000E+01  2.000E+04 -5.350E-02
   1   12   19     1    19    1.2821E+05 -1.8552E+03   1.3007E+05  0.000E+00  0.000E+00  0.000E+00  3.98391E+01  1.686E-01  2.000E+01  2.000E+04 -9.276E-02
   1   13   20     1    20    1.3007E+05 -9.4195E+02   1.3101E+05  0.000E+00  0.000E+00  0.000E+00  3.93629E+01  1.697E-01  2.000E+01  2.000E+04 -4.710E-02
   1   14   21     1    21    1.3101E+05 -3.2796E+02   1.3134E+05  0.000E+00  0.000E+00  0.000E+00  3.88861E+01  1.702E-01  2.000E+01  2.000E+04 -1.640E-02
   1   14   22     1    22    1.3134E+05  5.0140E+03   1.2632E+05  0.000E+00  0.000E+00  0.000E+00  3.84070E+01  1.684E-01  2.000E+01  2.000E+04  2.507E-01
   1    9   30     2     1    5.0000E+04 -9.0792E+02   5.0908E+04  0.000E+00  0.000E+00  0.000E+00  4.02415E+01  1.165E-01  2.000E+01  2.000E+04 -4.540E-02
   1    9   29     2     2    5.0908E+04 -1.2125E+03   5.2120E+04  0.000E+00  0.000E+00  0.000E+00  3.99930E+01  1.180E-01  2.000E+01  2.000E+04 -6.062E-02
   1    9   28     2     3    5.2120E+04 -1.4853E+03   5.3606E+04  0.000E+00  0.000E+00  0.000E+00  3.97448E+01  1.198E-01  2.000E+01  2.000E+04 -7.427E-02
   1    9   27     2     4    5.3606E+04 -2.9388E+03   5.6544E+04  0.000E+00  0.000E+00  0.000E+00  3.94978E+01  1.228E-01  2.000E+01  2.000E+04 -1.469E-01
   1   10   26     2     5    5.6544E+04 -1.9493E+03   5.8494E+04  0.000E+00  0.000E+00  0.000E+00  3.92510E+01  1.260E-01  2.000E+01  2.000E+04 -9.746E-02
   1   11   25     2     6    5.8494E+04 -1.6529E+03   6.0147E+04  0.000E+00  0.000E+00  0.000E+00  3.90034E+01  1.284E-01  2.000E+01  2.000E+04 -8.264E-02
   1   12   24     2     7    6.0147E+04 -1.6511E+03   6.1798E+04  0.000E+00  0.000E+00  0.000E+00  3.87555E+01  1.305E-01  2.000E+01  2.000E+04 -8.256E-02
   1   13   23     2     8    6.1798E+04 -2.3673E+02   6.2035E+04  0.000E+00  0.000E+00  0.000E+00  3.85067E+01  1.317E-01  2.000E+01  2.000E+04 -1.184E-02
   1   14   22     2     9    6.2035E+04  1.9854E+03   6.0049E+04  0.000E+00  0.000E+00  0.000E+00  3.82556E+01  1.306E-01  2.000E+01  2.000E+04  9.927E-02
   1   14   22     3     1    1.8637E+05 -8.4803E+03   1.9485E+05  0.000E+00  0.000E+00  0.000E+00  3.77323E+01  1.768E-01  2.000E+01  2.000E+04 -4.240E-01
   1   15   23     3     2    1.9485E+05 -3.7513E+02   1.9523E+05  0.000E+00  0.000E+00  0.000E+00  3.68459E+01  1.792E-01  2.000E+01  2.000E+04 -1.876E-02
   1   15   24     3     3    1.9523E+05 -2.8245E+02   1.9551E+05  0.000E+00  0.000E+00  0.000E+00  3.59572E+01  1.794E-01  2.000E+01  2.000E+04 -1.412E-02
   1   15   25     3     4    1.9551E+05 -3.0013E+02   1.9581E+05  0.000E+00  0.000E+00  0.000E+00  3.50684E+01  1.796E-01  2.000E+01  2.000E+04 -1.501E-02
   1   15   26     3     5    1.9581E+05 -3.5404E+02   1.9617E+05  0.000E+00  0.000E+00  0.000E+00  3.41797E+01  1.797E-01  2.000E+01  2.000E+04 -1.770E-02
   1   16   27     3     6    1.9617E+05 -4.0633E+02   1.9657E+05  0.000E+00  0.000E+00  0.000E+00  3.32911E+01  1.799E-01  2.000E+01  2.000E+04 -2.032E-02
   1   17   28     3     7    1.9657E+05 -1.7419E+03   1.9831E+05  0.000E+00  0.000E+00  0.000E+00  3.24028E+01  1.805E-01  2.000E+01  2.000E+04 -8.710E-02
   1   18   29     3     8    1.9831E+05 -3.2996E+03   2.0161E+05  0.000E+00  0.000E+00  0.000E+00  3.15152E+01  1.819E-01  2.000E+01  2.000E+04 -1.650E-01
   1   18   30     3     9    2.0161E+05 -3.4095E+03   2.0502E+05  0.000E+00  0.000E+00  0.000E+00  3.06282E+01  1.837E-01  2.000E+01  2.000E+04 -1.705E-01



1
              HEAD IN LAYER   1 AT END OF TIME STEP   1 IN STRESS PERIOD    3
  ---------------------------------------------------------------------------

          1      2      3      4      5      6      7      8      9     10
         11     12     13     14     15     16     17     18     19     20
         21     22     23     24     25     26     27     28     29     30
 .........................................................................
   1  ****** ****** ****** ****** ****** ****** ****** ****** ****** ******
      ****** ****** ****** ****** ****** ****** ****** ****** ****** ******
      ****** ****** ****** ****** ****** ****** ****** ****** ****** ******
   2  ****** ****** ****** ****** ****** ****** ****** ****** ****** ******
      ****** ****** ****** ****** ****** ****** ****** ****** ****** ******
      ****** ****** ****** ****** ****** ****** ****** ****** ****** ******
   3  ****** ****** ****** ****** ****** ****** ****** ****** ****** ******
      ****** ****** ****** ****** ****** ****** ****** ****** ****** ******
      ****** ****** ****** ****** ****** ****** ****** ****** ****** ******
   4  ****** ****** ****** ****** ****** ****** ****** ****** ****** ******
      ****** ****** ****** ****** ****** ****** ****** ****** ****** ******
      ****** ****** ****** ****** ****** ****** ****** ****** ****** ******
   5  ****** ****** ****** ****** ****** ****** ****** ****** ****** ******
      ****** ****** ****** ****** ****** ****** ****** ****** ****** ******
      ****** ****** ****** ****** ****** ****** ****** ****** ****** ******
   6  ****** ****** ****** ****** ****** ****** ****** ****** ****** ******
      ****** ****** ****** ****** ****** ****** ****** ****** ****** ******
      ****** ****** ****** ****** ****** ****** ****** ****** ****** ******
   7  ****** ****** ****** ****** ****** ****** ****** ****** ****** ******
      ****** ****** ****** ****** ****** ****** ****** ****** ****** ******
      ****** ****** ****** ****** ****** ****** ****** ****** ****** ******
   8  ****** ****** ****** ****** ****** ****** ****** ****** ****** ******
      ****** ****** ****** ****** ****** ****** ****** ****** ****** ******
      ****** ****** ****** ****** ****** ****** ****** ****** ****** ******
   9  ****** ****** ****** ****** ****** ****** ****** ****** ****** ******
      ****** ****** ****** ****** ****** ****** ****** ****** ****** ******
      ****** ****** ****** ****** ****** ****** ****** ****** ****** ******
  10  ****** ****** ****** ****** ****** ****** ****** ****** ****** ******
      ****** ****** ****** ****** ****** ****** ****** ****** ****** ******
      ****** ****** ****** ****** ****** ****** ****** ****** ****** ******
  11  ****** ****** ****** ****** ****** ****** ****** ****** ****** ******
      ****** ****** ****** ****** ****** ****** ****** ****** ****** ******
      ****** ****** ****** ****** ****** ****** ****** ****** ****** ******
  12  ****** ****** ****** ****** ****** ****** ****** ****** ****** ******
      ****** ****** ****** ****** ****** ****** ****** ****** ****** ******
      ****** ****** ****** ****** ****** ****** ****** ****** ****** ******
  13  ****** ****** ****** ****** ****** ****** ****** ****** ****** ******
      ****** ****** ****** ****** ****** ****** ****** ****** ****** ******
      ****** ****** ****** ****** ****** ****** ****** ****** ****** ******
  14  ****** ****** ****** ****** ****** ****** ****** ****** ****** ******
      ****** ****** ****** ****** ****** ****** ****** ****** ****** ******
      ****** ****** ****** ****** ****** ****** ****** ****** ****** ******
  15  ****** ****** ****** ****** ****** ****** ****** ****** ****** ******
      ****** ****** ****** ****** ****** ****** ****** ****** ****** ******
      ****** ****** ****** ****** ****** ****** ****** ****** ****** ******
  16  ****** ****** ****** ****** ****** ****** ****** ****** ****** ******
      ****** ****** ****** ****** ****** ****** ****** ****** ****** ******
      ****** ****** ****** ****** ****** ****** ****** ****** ****** ******
  17  ****** ****** ****** ****** ****** ****** ****** ****** ****** ******
      ****** ****** ****** ****** ****** ****** ****** ****** ****** ******
      ****** ****** ****** ****** ****** ****** ****** ****** ****** ******
  18  ****** ****** ****** ****** ****** ****** ****** ****** ****** ******
      ****** ****** ****** ****** ****** ****** ****** ****** ****** ******
      ****** ****** ****** ****** ****** ****** ****** ****** ****** ******
  19  ****** ****** ****** ****** ****** ****** ****** ****** ****** ******
      ****** ****** ****** ****** ****** ****** ****** ****** ****** ******
      ****** ****** ****** ****** ****** ****** ****** ****** ****** ******
  20  ****** ****** ****** ****** ****** ****** ****** ****** ****** ******
      ****** ****** ****** ****** ****** ****** ****** ****** ****** ******
      ****** ****** ****** ****** ****** ****** ****** ****** ****** ******
  21  ****** ****** ****** ****** ****** ****** ****** ****** ****** ******
      ****** ****** ****** ****** ****** ****** ****** ****** ****** ******
      ****** ****** ****** ****** ****** ****** ****** ****** ****** ******
  22  ****** ****** ****** ****** ****** ****** ****** ****** ****** ******
      ****** ****** ****** ****** ****** ****** ****** ****** ****** ******
      ****** ****** ****** ****** ****** ****** ****** ****** ****** ******
  23  ****** ****** ****** ****** ****** ****** ****** ****** ****** ******
      ****** ****** ****** ****** ****** ****** ****** ****** ****** ******
      ****** ****** ****** ****** ****** ****** ****** ****** ****** ******
  24  ****** ****** ****** ****** ****** ****** ****** ****** ****** ******
      ****** ****** ****** ****** ****** ****** ****** ****** ****** ******
      ****** ****** ****** ****** ****** ****** ****** ****** ****** ******
  25  ****** ****** ****** ****** ****** ****** ****** ****** ****** ******
      ****** ****** ****** ****** ****** ****** ****** ****** ****** ******
      ****** ****** ****** ****** ****** ****** ****** ****** ****** ******

 HEAD WILL BE SAVED ON UNIT   51 AT END OF TIME STEP    1, STRESS PERIOD    3
1
  VOLUMETRIC BUDGET FOR ENTIRE MODEL AT END OF TIME STEP    1, STRESS PERIOD   3
  ------------------------------------------------------------------------------

     CUMULATIVE VOLUMES      L**3       RATES FOR THIS TIME STEP      L**3/T
     ------------------                 ------------------------

           IN:                                      IN:
           ---                                      ---
             STORAGE =    28613180.1263               STORAGE =       57775.4070
       CONSTANT HEAD =     5242284.0748         CONSTANT HEAD =       26728.7207
               WELLS =           0.0000                 WELLS =           0.0000
            RECHARGE =     6292800.0000              RECHARGE =           0.0000
      STREAM LEAKAGE =     1584291.3171        STREAM LEAKAGE =        6999.4265

            TOTAL IN =    41732555.5183              TOTAL IN =       91503.5541

          OUT:                                     OUT:
          ----                                     ----
             STORAGE =           0.0000               STORAGE =           0.0000
       CONSTANT HEAD =           0.0000         CONSTANT HEAD =           0.0000
               WELLS =     8077930.8204                 WELLS =       29481.4993
            RECHARGE =           0.0000              RECHARGE =           0.0000
      STREAM LEAKAGE =    33654626.6193        STREAM LEAKAGE =       62022.0622

           TOTAL OUT =    41732557.4397             TOTAL OUT =       91503.5615

            IN - OUT =          -1.9214              IN - OUT =      -7.4211E-03

 PERCENT DISCREPANCY =          -0.00     PERCENT DISCREPANCY =          -0.00






         TIME SUMMARY AT END OF TIME STEP    1 IN STRESS PERIOD    3
                    SECONDS     MINUTES      HOURS       DAYS        YEARS
                    -----------------------------------------------------------
   TIME STEP LENGTH 7.86240E+06 1.31040E+05  2184.0      91.000     0.24914    
 STRESS PERIOD TIME 7.86240E+06 1.31040E+05  2184.0      91.000     0.24914    
         TOTAL TIME 2.36736E+07 3.94560E+05  6576.0      274.00     0.75017    
1
1
                            STRESS PERIOD NO.    4, LENGTH =   91.00000    
                            -----------------------------------------------

                              NUMBER OF TIME STEPS =     1

                               MULTIPLIER FOR DELT =     1.500

                            INITIAL TIME STEP SIZE =   91.00000    

 WELL NO.  LAYER   ROW   COL   STRESS RATE         
 --------------------------------------------------
      1      1      5     13      -7278.    
      2      1      9     16      -9144.    
      3      1     16     19      -5032.    
      4      1     18     19      -8028.    

      4 WELLS

                 RECHARGE =  1.000000E-03

 REUSING STREAM SEGMENT DATA FROM LAST STRESS PERIOD
 
 SOLVING FOR HEAD 


     6 CALLS TO PCG ROUTINE FOR TIME STEP   1 IN STRESS PERIOD    4
    23 TOTAL ITERATIONS

 OUTPUT CONTROL FOR STRESS PERIOD    4   TIME STEP    1
    SAVE BUDGET
    SAVE HEAD FOR ALL LAYERS
    PRINT HEAD FOR ALL LAYERS
 UBDSV2 SAVING "STREAMFLOW OUT  " ON UNIT  50 AT TIME STEP  1, STRESS PERIOD   4



 STREAM LISTING     PERIOD      4   STEP        1

 LAYER ROW COL. STREAM  RCH.  FLOW INTO     FLOW TO   FLOW OUT OF   OVRLND.     DIRECT     STREAM       STREAM     STREAM     STREAM   STREAMBED  STREAMBED
                SEG.NO.  NO.  STRM. RCH.    AQUIFER    STRM. RCH.    RUNOFF     PRECIP       ET          HEAD       DEPTH      WIDTH   CONDCTNC.   GRADIENT

   1   13    1     1     1    1.0000E+05 -2.3378E+03   1.0234E+05  0.000E+00  0.000E+00  0.000E+00  4.84070E+01  1.457E-01  2.000E+01  2.000E+04 -1.169E-01
   1   13    2     1     2    1.0234E+05 -3.3942E+03   1.0573E+05  0.000E+00  0.000E+00  0.000E+00  4.79322E+01  1.481E-01  2.000E+01  2.000E+04 -1.697E-01
   1   14    3     1     3    1.0573E+05 -6.0946E+02   1.0634E+05  0.000E+00  0.000E+00  0.000E+00  4.74566E+01  1.498E-01  2.000E+01  2.000E+04 -3.047E-02
   1   15    4     1     4    1.0634E+05 -5.8580E+02   1.0693E+05  0.000E+00  0.000E+00  0.000E+00  4.69799E+01  1.503E-01  2.000E+01  2.000E+04 -2.929E-02
   1   16    5     1     5    1.0693E+05 -2.0956E+03   1.0902E+05  0.000E+00  0.000E+00  0.000E+00  4.65037E+01  1.515E-01  2.000E+01  2.000E+04 -1.048E-01
   1   16    6     1     6    1.0902E+05 -1.3043E+03   1.1033E+05  0.000E+00  0.000E+00  0.000E+00  4.60279E+01  1.529E-01  2.000E+01  2.000E+04 -6.522E-02
   1   16    7     1     7    1.1033E+05 -1.2653E+03   1.1159E+05  0.000E+00  0.000E+00  0.000E+00  4.55517E+01  1.540E-01  2.000E+01  2.000E+04 -6.327E-02
   1   16    8     1     8    1.1159E+05 -1.2373E+03   1.1283E+05  0.000E+00  0.000E+00  0.000E+00  4.50755E+01  1.550E-01  2.000E+01  2.000E+04 -6.187E-02
   1   16    9     1     9    1.1283E+05 -1.1937E+03   1.1402E+05  0.000E+00  0.000E+00  0.000E+00  4.45992E+01  1.560E-01  2.000E+01  2.000E+04 -5.969E-02
   1   16   10     1    10    1.1402E+05 -1.1285E+03   1.1515E+05  0.000E+00  0.000E+00  0.000E+00  4.41229E+01  1.570E-01  2.000E+01  2.000E+04 -5.643E-02
   1   16   11     1    11    1.1515E+05 -1.0502E+03   1.1620E+05  0.000E+00  0.000E+00  0.000E+00  4.36465E+01  1.579E-01  2.000E+01  2.000E+04 -5.251E-02
   1   16   12     1    12    1.1620E+05 -1.5136E+03   1.1772E+05  0.000E+00  0.000E+00  0.000E+00  4.31703E+01  1.589E-01  2.000E+01  2.000E+04 -7.568E-02
   1   15   13     1    13    1.1772E+05 -1.2068E+03   1.1892E+05  0.000E+00  0.000E+00  0.000E+00  4.26941E+01  1.600E-01  2.000E+01  2.000E+04 -6.034E-02
   1   14   14     1    14    1.1892E+05 -1.2087E+03   1.2013E+05  0.000E+00  0.000E+00  0.000E+00  4.22178E+01  1.610E-01  2.000E+01  2.000E+04 -6.044E-02
   1   13   15     1    15    1.2013E+05 -1.1835E+03   1.2131E+05  0.000E+00  0.000E+00  0.000E+00  4.17415E+01  1.620E-01  2.000E+01  2.000E+04 -5.917E-02
   1   12   16     1    16    1.2131E+05 -1.1732E+03   1.2249E+05  0.000E+00  0.000E+00  0.000E+00  4.12652E+01  1.629E-01  2.000E+01  2.000E+04 -5.866E-02
   1   12   17     1    17    1.2249E+05 -6.7797E+02   1.2317E+05  0.000E+00  0.000E+00  0.000E+00  4.07886E+01  1.636E-01  2.000E+01  2.000E+04 -3.390E-02
   1   12   18     1    18    1.2317E+05 -8.0447E+02   1.2397E+05  0.000E+00  0.000E+00  0.000E+00  4.03120E+01  1.642E-01  2.000E+01  2.000E+04 -4.022E-02
   1   12   19     1    19    1.2397E+05 -1.5328E+03   1.2550E+05  0.000E+00  0.000E+00  0.000E+00  3.98356E+01  1.652E-01  2.000E+01  2.000E+04 -7.664E-02
   1   13   20     1    20    1.2550E+05 -7.2893E+02   1.2623E+05  0.000E+00  0.000E+00  0.000E+00  3.93592E+01  1.661E-01  2.000E+01  2.000E+04 -3.645E-02
   1   14   21     1    21    1.2623E+05 -4.7035E+01   1.2628E+05  0.000E+00  0.000E+00  0.000E+00  3.88823E+01  1.664E-01  2.000E+01  2.000E+04 -2.352E-03
   1   14   22     1    22    1.2628E+05  5.0560E+03   1.2122E+05  0.000E+00  0.000E+00  0.000E+00  3.84030E+01  1.644E-01  2.000E+01  2.000E+04  2.528E-01
   1    9   30     2     1    5.0000E+04 -8.1386E+02   5.0814E+04  0.000E+00  0.000E+00  0.000E+00  4.02414E+01  1.164E-01  2.000E+01  2.000E+04 -4.069E-02
   1    9   29     2     2    5.0814E+04 -1.1104E+03   5.1924E+04  0.000E+00  0.000E+00  0.000E+00  3.99928E+01  1.178E-01  2.000E+01  2.000E+04 -5.552E-02
   1    9   28     2     3    5.1924E+04 -1.3606E+03   5.3285E+04  0.000E+00  0.000E+00  0.000E+00  3.97445E+01  1.195E-01  2.000E+01  2.000E+04 -6.803E-02
   1    9   27     2     4    5.3285E+04 -2.6491E+03   5.5934E+04  0.000E+00  0.000E+00  0.000E+00  3.94972E+01  1.222E-01  2.000E+01  2.000E+04 -1.325E-01
   1   10   26     2     5    5.5934E+04 -1.7724E+03   5.7706E+04  0.000E+00  0.000E+00  0.000E+00  3.92501E+01  1.251E-01  2.000E+01  2.000E+04 -8.862E-02
   1   11   25     2     6    5.7706E+04 -1.5160E+03   5.9222E+04  0.000E+00  0.000E+00  0.000E+00  3.90023E+01  1.273E-01  2.000E+01  2.000E+04 -7.580E-02
   1   12   24     2     7    5.9222E+04 -1.5301E+03   6.0753E+04  0.000E+00  0.000E+00  0.000E+00  3.87542E+01  1.292E-01  2.000E+01  2.000E+04 -7.651E-02
   1   13   23     2     8    6.0753E+04 -2.5856E+02   6.1011E+04  0.000E+00  0.000E+00  0.000E+00  3.85054E+01  1.304E-01  2.000E+01  2.000E+04 -1.293E-02
   1   14   22     2     9    6.1011E+04  2.0801E+03   5.8931E+04  0.000E+00  0.000E+00  0.000E+00  3.82542E+01  1.292E-01  2.000E+01  2.000E+04  1.040E-01
   1   14   22     3     1    1.8015E+05 -8.4280E+03   1.8858E+05  0.000E+00  0.000E+00  0.000E+00  3.77288E+01  1.733E-01  2.000E+01  2.000E+04 -4.214E-01
   1   15   23     3     2    1.8858E+05 -3.4017E+02   1.8892E+05  0.000E+00  0.000E+00  0.000E+00  3.68424E+01  1.757E-01  2.000E+01  2.000E+04 -1.701E-02
   1   15   24     3     3    1.8892E+05 -2.7628E+02   1.8920E+05  0.000E+00  0.000E+00  0.000E+00  3.59537E+01  1.759E-01  2.000E+01  2.000E+04 -1.381E-02
   1   15   25     3     4    1.8920E+05 -2.9515E+02   1.8949E+05  0.000E+00  0.000E+00  0.000E+00  3.50649E+01  1.761E-01  2.000E+01  2.000E+04 -1.476E-02
   1   15   26     3     5    1.8949E+05 -3.6069E+02   1.8985E+05  0.000E+00  0.000E+00  0.000E+00  3.41762E+01  1.762E-01  2.000E+01  2.000E+04 -1.803E-02
   1   16   27     3     6    1.8985E+05 -4.0218E+02   1.9026E+05  0.000E+00  0.000E+00  0.000E+00  3.32876E+01  1.765E-01  2.000E+01  2.000E+04 -2.011E-02
   1   17   28     3     7    1.9026E+05 -1.6626E+03   1.9192E+05  0.000E+00  0.000E+00  0.000E+00  3.23992E+01  1.770E-01  2.000E+01  2.000E+04 -8.313E-02
   1   18   29     3     8    1.9192E+05 -3.0475E+03   1.9497E+05  0.000E+00  0.000E+00  0.000E+00  3.15117E+01  1.783E-01  2.000E+01  2.000E+04 -1.524E-01
   1   18   30     3     9    1.9497E+05 -3.2810E+03   1.9825E+05  0.000E+00  0.000E+00  0.000E+00  3.06245E+01  1.801E-01  2.000E+01  2.000E+04 -1.640E-01



1
              HEAD IN LAYER   1 AT END OF TIME STEP   1 IN STRESS PERIOD    4
  ---------------------------------------------------------------------------

          1      2      3      4      5      6      7      8      9     10
         11     12     13     14     15     16     17     18     19     20
         21     22     23     24     25     26     27     28     29     30
 .........................................................................
   1  ****** ****** ****** ****** ****** ****** ****** ****** ****** ******
      ****** ****** ****** ****** ****** ****** ****** ****** ****** ******
      ****** ****** ****** ****** ****** ****** ****** ****** ****** ******
   2  ****** ****** ****** ****** ****** ****** ****** ****** ****** ******
      ****** ****** ****** ****** ****** ****** ****** ****** ****** ******
      ****** ****** ****** ****** ****** ****** ****** ****** ****** ******
   3  ****** ****** ****** ****** ****** ****** ****** ****** ****** ******
      ****** ****** ****** ****** ****** ****** ****** ****** ****** ******
      ****** ****** ****** ****** ****** ****** ****** ****** ****** ******
   4  ****** ****** ****** ****** ****** ****** ****** ****** ****** ******
      ****** ****** ****** ****** ****** ****** ****** ****** ****** ******
      ****** ****** ****** ****** ****** ****** ****** ****** ****** ******
   5  ****** ****** ****** ****** ****** ****** ****** ****** ****** ******
      ****** ****** ****** ****** ****** ****** ****** ****** ****** ******
      ****** ****** ****** ****** ****** ****** ****** ****** ****** ******
   6  ****** ****** ****** ****** ****** ****** ****** ****** ****** ******
      ****** ****** ****** ****** ****** ****** ****** ****** ****** ******
      ****** ****** ****** ****** ****** ****** ****** ****** ****** ******
   7  ****** ****** ****** ****** ****** ****** ****** ****** ****** ******
      ****** ****** ****** ****** ****** ****** ****** ****** ****** ******
      ****** ****** ****** ****** ****** ****** ****** ****** ****** ******
   8  ****** ****** ****** ****** ****** ****** ****** ****** ****** ******
      ****** ****** ****** ****** ****** ****** ****** ****** ****** ******
      ****** ****** ****** ****** ****** ****** ****** ****** ****** ******
   9  ****** ****** ****** ****** ****** ****** ****** ****** ****** ******
      ****** ****** ****** ****** ****** ****** ****** ****** ****** ******
      ****** ****** ****** ****** ****** ****** ****** ****** ****** ******
  10  ****** ****** ****** ****** ****** ****** ****** ****** ****** ******
      ****** ****** ****** ****** ****** ****** ****** ****** ****** ******
      ****** ****** ****** ****** ****** ****** ****** ****** ****** ******
  11  ****** ****** ****** ****** ****** ****** ****** ****** ****** ******
      ****** ****** ****** ****** ****** ****** ****** ****** ****** ******
      ****** ****** ****** ****** ****** ****** ****** ****** ****** ******
  12  ****** ****** ****** ****** ****** ****** ****** ****** ****** ******
      ****** ****** ****** ****** ****** ****** ****** ****** ****** ******
      ****** ****** ****** ****** ****** ****** ****** ****** ****** ******
  13  ****** ****** ****** ****** ****** ****** ****** ****** ****** ******
      ****** ****** ****** ****** ****** ****** ****** ****** ****** ******
      ****** ****** ****** ****** ****** ****** ****** ****** ****** ******
  14  ****** ****** ****** ****** ****** ****** ****** ****** ****** ******
      ****** ****** ****** ****** ****** ****** ****** ****** ****** ******
      ****** ****** ****** ****** ****** ****** ****** ****** ****** ******
  15  ****** ****** ****** ****** ****** ****** ****** ****** ****** ******
      ****** ****** ****** ****** ****** ****** ****** ****** ****** ******
      ****** ****** ****** ****** ****** ****** ****** ****** ****** ******
  16  ****** ****** ****** ****** ****** ****** ****** ****** ****** ******
      ****** ****** ****** ****** ****** ****** ****** ****** ****** ******
      ****** ****** ****** ****** ****** ****** ****** ****** ****** ******
  17  ****** ****** ****** ****** ****** ****** ****** ****** ****** ******
      ****** ****** ****** ****** ****** ****** ****** ****** ****** ******
      ****** ****** ****** ****** ****** ****** ****** ****** ****** ******
  18  ****** ****** ****** ****** ****** ****** ****** ****** ****** ******
      ****** ****** ****** ****** ****** ****** ****** ****** ****** ******
      ****** ****** ****** ****** ****** ****** ****** ****** ****** ******
  19  ****** ****** ****** ****** ****** ****** ****** ****** ****** ******
      ****** ****** ****** ****** ****** ****** ****** ****** ****** ******
      ****** ****** ****** ****** ****** ****** ****** ****** ****** ******
  20  ****** ****** ****** ****** ****** ****** ****** ****** ****** ******
      ****** ****** ****** ****** ****** ****** ****** ****** ****** ******
      ****** ****** ****** ****** ****** ****** ****** ****** ****** ******
  21  ****** ****** ****** ****** ****** ****** ****** ****** ****** ******
      ****** ****** ****** ****** ****** ****** ****** ****** ****** ******
      ****** ****** ****** ****** ****** ****** ****** ****** ****** ******
  22  ****** ****** ****** ****** ****** ****** ****** ****** ****** ******
      ****** ****** ****** ****** ****** ****** ****** ****** ****** ******
      ****** ****** ****** ****** ****** ****** ****** ****** ****** ******
  23  ****** ****** ****** ****** ****** ****** ****** ****** ****** ******
      ****** ****** ****** ****** ****** ****** ****** ****** ****** ******
      ****** ****** ****** ****** ****** ****** ****** ****** ****** ******
  24  ****** ****** ****** ****** ****** ****** ****** ****** ****** ******
      ****** ****** ****** ****** ****** ****** ****** ****** ****** ******
      ****** ****** ****** ****** ****** ****** ****** ****** ****** ******
  25  ****** ****** ****** ****** ****** ****** ****** ****** ****** ******
      ****** ****** ****** ****** ****** ****** ****** ****** ****** ******
      ****** ****** ****** ****** ****** ****** ****** ****** ****** ******

 HEAD WILL BE SAVED ON UNIT   51 AT END OF TIME STEP    1, STRESS PERIOD    4
1
  VOLUMETRIC BUDGET FOR ENTIRE MODEL AT END OF TIME STEP    1, STRESS PERIOD   4
  ------------------------------------------------------------------------------

     CUMULATIVE VOLUMES      L**3       RATES FOR THIS TIME STEP      L**3/T
     ------------------                 ------------------------

           IN:                                      IN:
           ---                                      ---
             STORAGE =    30483183.3571               STORAGE =       20549.4861
       CONSTANT HEAD =     7935238.8303         CONSTANT HEAD =       29592.9094
               WELLS =           0.0000                 WELLS =           0.0000
            RECHARGE =     8804400.0000              RECHARGE =       27600.0000
      STREAM LEAKAGE =     2233670.2960        STREAM LEAKAGE =        7136.0327

            TOTAL IN =    49456492.4834              TOTAL IN =       84878.4282

          OUT:                                     OUT:
          ----                                     ----
             STORAGE =        1187.5731               STORAGE =          13.0503
       CONSTANT HEAD =           0.0000         CONSTANT HEAD =           0.0000
               WELLS =    10760747.2607                 WELLS =       29481.4993
            RECHARGE =           0.0000              RECHARGE =           0.0000
      STREAM LEAKAGE =    38694559.6529        STREAM LEAKAGE =       55383.8795

           TOTAL OUT =    49456494.4868             TOTAL OUT =       84878.4291

            IN - OUT =          -2.0034              IN - OUT =      -9.0108E-04

 PERCENT DISCREPANCY =          -0.00     PERCENT DISCREPANCY =          -0.00






         TIME SUMMARY AT END OF TIME STEP    1 IN STRESS PERIOD    4
                    SECONDS     MINUTES      HOURS       DAYS        YEARS
                    -----------------------------------------------------------
   TIME STEP LENGTH 7.86240E+06 1.31040E+05  2184.0      91.000     0.24914    
 STRESS PERIOD TIME 7.86240E+06 1.31040E+05  2184.0      91.000     0.24914    
         TOTAL TIME 3.15360E+07 5.25600E+05  8760.0      365.00     0.99932    
1
1
                            STRESS PERIOD NO.    5, LENGTH =   92.00000    
                            -----------------------------------------------

                              NUMBER OF TIME STEPS =     1

                               MULTIPLIER FOR DELT =     1.500

                            INITIAL TIME STEP SIZE =   92.00000    

 WELL NO.  LAYER   ROW   COL   STRESS RATE         
 --------------------------------------------------
      1      1      5     13      -7278.    
      2      1      9     16      -9144.    
      3      1     16     19      -5032.    
      4      1     18     19      -8028.    

      4 WELLS

                 RECHARGE =  5.000000E-04

 REUSING STREAM SEGMENT DATA FROM LAST STRESS PERIOD
 
 SOLVING FOR HEAD 


     7 CALLS TO PCG ROUTINE FOR TIME STEP   1 IN STRESS PERIOD    5
    26 TOTAL ITERATIONS

 OUTPUT CONTROL FOR STRESS PERIOD    5   TIME STEP    1
    SAVE BUDGET
    SAVE HEAD FOR ALL LAYERS
    PRINT HEAD FOR ALL LAYERS
 UBDSV2 SAVING "STREAMFLOW OUT  " ON UNIT  50 AT TIME STEP  1, STRESS PERIOD   5



 STREAM LISTING     PERIOD      5   STEP        1

 LAYER ROW COL. STREAM  RCH.  FLOW INTO     FLOW TO   FLOW OUT OF   OVRLND.     DIRECT     STREAM       STREAM     STREAM     STREAM   STREAMBED  STREAMBED
                SEG.NO.  NO.  STRM. RCH.    AQUIFER    STRM. RCH.    RUNOFF     PRECIP       ET          HEAD       DEPTH      WIDTH   CONDCTNC.   GRADIENT

   1   13    1     1     1    1.0000E+05 -1.8861E+03   1.0189E+05  0.000E+00  0.000E+00  0.000E+00  4.84068E+01  1.455E-01  2.000E+01  2.000E+04 -9.431E-02
   1   13    2     1     2    1.0189E+05 -2.8840E+03   1.0477E+05  0.000E+00  0.000E+00  0.000E+00  4.79316E+01  1.475E-01  2.000E+01  2.000E+04 -1.442E-01
   1   14    3     1     3    1.0477E+05 -4.8242E+02   1.0525E+05  0.000E+00  0.000E+00  0.000E+00  4.74558E+01  1.490E-01  2.000E+01  2.000E+04 -2.412E-02
   1   15    4     1     4    1.0525E+05 -4.5321E+02   1.0571E+05  0.000E+00  0.000E+00  0.000E+00  4.69789E+01  1.494E-01  2.000E+01  2.000E+04 -2.266E-02
   1   16    5     1     5    1.0571E+05 -1.6578E+03   1.0736E+05  0.000E+00  0.000E+00  0.000E+00  4.65025E+01  1.503E-01  2.000E+01  2.000E+04 -8.289E-02
   1   16    6     1     6    1.0736E+05 -1.0461E+03   1.0841E+05  0.000E+00  0.000E+00  0.000E+00  4.60264E+01  1.514E-01  2.000E+01  2.000E+04 -5.231E-02
   1   16    7     1     7    1.0841E+05 -1.0167E+03   1.0943E+05  0.000E+00  0.000E+00  0.000E+00  4.55500E+01  1.523E-01  2.000E+01  2.000E+04 -5.083E-02
   1   16    8     1     8    1.0943E+05 -9.9157E+02   1.1042E+05  0.000E+00  0.000E+00  0.000E+00  4.50736E+01  1.531E-01  2.000E+01  2.000E+04 -4.958E-02
   1   16    9     1     9    1.1042E+05 -9.5019E+02   1.1137E+05  0.000E+00  0.000E+00  0.000E+00  4.45971E+01  1.539E-01  2.000E+01  2.000E+04 -4.751E-02
   1   16   10     1    10    1.1137E+05 -8.8782E+02   1.1226E+05  0.000E+00  0.000E+00  0.000E+00  4.41206E+01  1.547E-01  2.000E+01  2.000E+04 -4.439E-02
   1   16   11     1    11    1.1226E+05 -8.0823E+02   1.1306E+05  0.000E+00  0.000E+00  0.000E+00  4.36440E+01  1.554E-01  2.000E+01  2.000E+04 -4.041E-02
   1   16   12     1    12    1.1306E+05 -1.0750E+03   1.1414E+05  0.000E+00  0.000E+00  0.000E+00  4.31675E+01  1.562E-01  2.000E+01  2.000E+04 -5.375E-02
   1   15   13     1    13    1.1414E+05 -7.3810E+02   1.1488E+05  0.000E+00  0.000E+00  0.000E+00  4.26910E+01  1.569E-01  2.000E+01  2.000E+04 -3.690E-02
   1   14   14     1    14    1.1488E+05 -7.0506E+02   1.1558E+05  0.000E+00  0.000E+00  0.000E+00  4.22143E+01  1.575E-01  2.000E+01  2.000E+04 -3.525E-02
   1   13   15     1    15    1.1558E+05 -6.5664E+02   1.1624E+05  0.000E+00  0.000E+00  0.000E+00  4.17376E+01  1.581E-01  2.000E+01  2.000E+04 -3.283E-02
   1   12   16     1    16    1.1624E+05 -5.8999E+02   1.1683E+05  0.000E+00  0.000E+00  0.000E+00  4.12608E+01  1.586E-01  2.000E+01  2.000E+04 -2.950E-02
   1   12   17     1    17    1.1683E+05 -2.9223E+02   1.1712E+05  0.000E+00  0.000E+00  0.000E+00  4.07839E+01  1.589E-01  2.000E+01  2.000E+04 -1.461E-02
   1   12   18     1    18    1.1712E+05 -4.3988E+02   1.1756E+05  0.000E+00  0.000E+00  0.000E+00  4.03069E+01  1.592E-01  2.000E+01  2.000E+04 -2.199E-02
   1   12   19     1    19    1.1756E+05 -1.0934E+03   1.1865E+05  0.000E+00  0.000E+00  0.000E+00  3.98303E+01  1.598E-01  2.000E+01  2.000E+04 -5.467E-02
   1   13   20     1    20    1.1865E+05 -3.5167E+02   1.1901E+05  0.000E+00  0.000E+00  0.000E+00  3.93536E+01  1.604E-01  2.000E+01  2.000E+04 -1.758E-02
   1   14   21     1    21    1.1901E+05  3.5612E+02   1.1865E+05  0.000E+00  0.000E+00  0.000E+00  3.88763E+01  1.604E-01  2.000E+01  2.000E+04  1.781E-02
   1   14   22     1    22    1.1865E+05  5.1370E+03   1.1351E+05  0.000E+00  0.000E+00  0.000E+00  3.83968E+01  1.582E-01  2.000E+01  2.000E+04  2.568E-01
   1    9   30     2     1    5.0000E+04 -5.7829E+02   5.0578E+04  0.000E+00  0.000E+00  0.000E+00  4.02413E+01  1.163E-01  2.000E+01  2.000E+04 -2.891E-02
   1    9   29     2     2    5.0578E+04 -8.7077E+02   5.1449E+04  0.000E+00  0.000E+00  0.000E+00  3.99923E+01  1.173E-01  2.000E+01  2.000E+04 -4.354E-02
   1    9   28     2     3    5.1449E+04 -1.1077E+03   5.2557E+04  0.000E+00  0.000E+00  0.000E+00  3.97436E+01  1.186E-01  2.000E+01  2.000E+04 -5.538E-02
   1    9   27     2     4    5.2557E+04 -2.2455E+03   5.4802E+04  0.000E+00  0.000E+00  0.000E+00  3.94959E+01  1.209E-01  2.000E+01  2.000E+04 -1.123E-01
   1   10   26     2     5    5.4802E+04 -1.4197E+03   5.6222E+04  0.000E+00  0.000E+00  0.000E+00  3.92484E+01  1.234E-01  2.000E+01  2.000E+04 -7.099E-02
   1   11   25     2     6    5.6222E+04 -1.1913E+03   5.7413E+04  0.000E+00  0.000E+00  0.000E+00  3.90001E+01  1.251E-01  2.000E+01  2.000E+04 -5.957E-02
   1   12   24     2     7    5.7413E+04 -1.2319E+03   5.8645E+04  0.000E+00  0.000E+00  0.000E+00  3.87517E+01  1.267E-01  2.000E+01  2.000E+04 -6.160E-02
   1   13   23     2     8    5.8645E+04 -1.8784E+02   5.8833E+04  0.000E+00  0.000E+00  0.000E+00  3.85026E+01  1.276E-01  2.000E+01  2.000E+04 -9.392E-03
   1   14   22     2     9    5.8833E+04  2.2262E+03   5.6607E+04  0.000E+00  0.000E+00  0.000E+00  3.82513E+01  1.263E-01  2.000E+01  2.000E+04  1.113E-01
   1   14   22     3     1    1.7012E+05 -8.3381E+03   1.7846E+05  0.000E+00  0.000E+00  0.000E+00  3.77231E+01  1.675E-01  2.000E+01  2.000E+04 -4.169E-01
   1   15   23     3     2    1.7846E+05 -2.3573E+02   1.7869E+05  0.000E+00  0.000E+00  0.000E+00  3.68366E+01  1.700E-01  2.000E+01  2.000E+04 -1.179E-02
   1   15   24     3     3    1.7869E+05 -2.0094E+02   1.7889E+05  0.000E+00  0.000E+00  0.000E+00  3.59479E+01  1.701E-01  2.000E+01  2.000E+04 -1.005E-02
   1   15   25     3     4    1.7889E+05 -2.2100E+02   1.7912E+05  0.000E+00  0.000E+00  0.000E+00  3.50591E+01  1.702E-01  2.000E+01  2.000E+04 -1.105E-02
   1   15   26     3     5    1.7912E+05 -2.8681E+02   1.7940E+05  0.000E+00  0.000E+00  0.000E+00  3.41704E+01  1.704E-01  2.000E+01  2.000E+04 -1.434E-02
   1   16   27     3     6    1.7940E+05 -3.0842E+02   1.7971E+05  0.000E+00  0.000E+00  0.000E+00  3.32816E+01  1.705E-01  2.000E+01  2.000E+04 -1.542E-02
   1   17   28     3     7    1.7971E+05 -1.3834E+03   1.8109E+05  0.000E+00  0.000E+00  0.000E+00  3.23932E+01  1.710E-01  2.000E+01  2.000E+04 -6.917E-02
   1   18   29     3     8    1.8109E+05 -2.6492E+03   1.8374E+05  0.000E+00  0.000E+00  0.000E+00  3.15055E+01  1.722E-01  2.000E+01  2.000E+04 -1.325E-01
   1   18   30     3     9    1.8374E+05 -3.0089E+03   1.8675E+05  0.000E+00  0.000E+00  0.000E+00  3.06182E+01  1.738E-01  2.000E+01  2.000E+04 -1.504E-01



1
              HEAD IN LAYER   1 AT END OF TIME STEP   1 IN STRESS PERIOD    5
  ---------------------------------------------------------------------------

          1      2      3      4      5      6      7      8      9     10
         11     12     13     14     15     16     17     18     19     20
         21     22     23     24     25     26     27     28     29     30
 .........................................................................
   1  ****** ****** ****** ****** ****** ****** ****** ****** ****** ******
      ****** ****** ****** ****** ****** ****** ****** ****** ****** ******
      ****** ****** ****** ****** ****** ****** ****** ****** ****** ******
   2  ****** ****** ****** ****** ****** ****** ****** ****** ****** ******
      ****** ****** ****** ****** ****** ****** ****** ****** ****** ******
      ****** ****** ****** ****** ****** ****** ****** ****** ****** ******
   3  ****** ****** ****** ****** ****** ****** ****** ****** ****** ******
      ****** ****** ****** ****** ****** ****** ****** ****** ****** ******
      ****** ****** ****** ****** ****** ****** ****** ****** ****** ******
   4  ****** ****** ****** ****** ****** ****** ****** ****** ****** ******
      ****** ****** ****** ****** ****** ****** ****** ****** ****** ******
      ****** ****** ****** ****** ****** ****** ****** ****** ****** ******
   5  ****** ****** ****** ****** ****** ****** ****** ****** ****** ******
      ****** ****** ****** ****** ****** ****** ****** ****** ****** ******
      ****** ****** ****** ****** ****** ****** ****** ****** ****** ******
   6  ****** ****** ****** ****** ****** ****** ****** ****** ****** ******
      ****** ****** ****** ****** ****** ****** ****** ****** ****** ******
      ****** ****** ****** ****** ****** ****** ****** ****** ****** ******
   7  ****** ****** ****** ****** ****** ****** ****** ****** ****** ******
      ****** ****** ****** ****** ****** ****** ****** ****** ****** ******
      ****** ****** ****** ****** ****** ****** ****** ****** ****** ******
   8  ****** ****** ****** ****** ****** ****** ****** ****** ****** ******
      ****** ****** ****** ****** ****** ****** ****** ****** ****** ******
      ****** ****** ****** ****** ****** ****** ****** ****** ****** ******
   9  ****** ****** ****** ****** ****** ****** ****** ****** ****** ******
      ****** ****** ****** ****** ****** ****** ****** ****** ****** ******
      ****** ****** ****** ****** ****** ****** ****** ****** ****** ******
  10  ****** ****** ****** ****** ****** ****** ****** ****** ****** ******
      ****** ****** ****** ****** ****** ****** ****** ****** ****** ******
      ****** ****** ****** ****** ****** ****** ****** ****** ****** ******
  11  ****** ****** ****** ****** ****** ****** ****** ****** ****** ******
      ****** ****** ****** ****** ****** ****** ****** ****** ****** ******
      ****** ****** ****** ****** ****** ****** ****** ****** ****** ******
  12  ****** ****** ****** ****** ****** ****** ****** ****** ****** ******
      ****** ****** ****** ****** ****** ****** ****** ****** ****** ******
      ****** ****** ****** ****** ****** ****** ****** ****** ****** ******
  13  ****** ****** ****** ****** ****** ****** ****** ****** ****** ******
      ****** ****** ****** ****** ****** ****** ****** ****** ****** ******
      ****** ****** ****** ****** ****** ****** ****** ****** ****** ******
  14  ****** ****** ****** ****** ****** ****** ****** ****** ****** ******
      ****** ****** ****** ****** ****** ****** ****** ****** ****** ******
      ****** ****** ****** ****** ****** ****** ****** ****** ****** ******
  15  ****** ****** ****** ****** ****** ****** ****** ****** ****** ******
      ****** ****** ****** ****** ****** ****** ****** ****** ****** ******
      ****** ****** ****** ****** ****** ****** ****** ****** ****** ******
  16  ****** ****** ****** ****** ****** ****** ****** ****** ****** ******
      ****** ****** ****** ****** ****** ****** ****** ****** ****** ******
      ****** ****** ****** ****** ****** ****** ****** ****** ****** ******
  17  ****** ****** ****** ****** ****** ****** ****** ****** ****** ******
      ****** ****** ****** ****** ****** ****** ****** ****** ****** ******
      ****** ****** ****** ****** ****** ****** ****** ****** ****** ******
  18  ****** ****** ****** ****** ****** ****** ****** ****** ****** ******
      ****** ****** ****** ****** ****** ****** ****** ****** ****** ******
      ****** ****** ****** ****** ****** ****** ****** ****** ****** ******
  19  ****** ****** ****** ****** ****** ****** ****** ****** ****** ******
      ****** ****** ****** ****** ****** ****** ****** ****** ****** ******
      ****** ****** ****** ****** ****** ****** ****** ****** ****** ******
  20  ****** ****** ****** ****** ****** ****** ****** ****** ****** ******
      ****** ****** ****** ****** ****** ****** ****** ****** ****** ******
      ****** ****** ****** ****** ****** ****** ****** ****** ****** ******
  21  ****** ****** ****** ****** ****** ****** ****** ****** ****** ******
      ****** ****** ****** ****** ****** ****** ****** ****** ****** ******
      ****** ****** ****** ****** ****** ****** ****** ****** ****** ******
  22  ****** ****** ****** ****** ****** ****** ****** ****** ****** ******
      ****** ****** ****** ****** ****** ****** ****** ****** ****** ******
      ****** ****** ****** ****** ****** ****** ****** ****** ****** ******
  23  ****** ****** ****** ****** ****** ****** ****** ****** ****** ******
      ****** ****** ****** ****** ****** ****** ****** ****** ****** ******
      ****** ****** ****** ****** ****** ****** ****** ****** ****** ******
  24  ****** ****** ****** ****** ****** ****** ****** ****** ****** ******
      ****** ****** ****** ****** ****** ****** ****** ****** ****** ******
      ****** ****** ****** ****** ****** ****** ****** ****** ****** ******
  25  ****** ****** ****** ****** ****** ****** ****** ****** ****** ******
      ****** ****** ****** ****** ****** ****** ****** ****** ****** ******
      ****** ****** ****** ****** ****** ****** ****** ****** ****** ******

 HEAD WILL BE SAVED ON UNIT   51 AT END OF TIME STEP    1, STRESS PERIOD    5
1
  VOLUMETRIC BUDGET FOR ENTIRE MODEL AT END OF TIME STEP    1, STRESS PERIOD   5
  ------------------------------------------------------------------------------

     CUMULATIVE VOLUMES      L**3       RATES FOR THIS TIME STEP      L**3/T
     ------------------                 ------------------------

           IN:                                      IN:
           ---                                      ---
             STORAGE =    32298453.3501               STORAGE =       19731.1956
       CONSTANT HEAD =    10943870.7477         CONSTANT HEAD =       32702.5208
               WELLS =           0.0000                 WELLS =           0.0000
            RECHARGE =    10074000.0000              RECHARGE =       13800.0000
      STREAM LEAKAGE =     2943843.4655        STREAM LEAKAGE =        7719.2736

            TOTAL IN =    56260167.5632              TOTAL IN =       73952.9900

          OUT:                                     OUT:
          ----                                     ----
             STORAGE =        1187.5731               STORAGE =           0.0000
       CONSTANT HEAD =           0.0000         CONSTANT HEAD =           0.0000
               WELLS =    13473045.2004                 WELLS =       29481.4993
            RECHARGE =           0.0000              RECHARGE =           0.0000
      STREAM LEAKAGE =    42785937.0967        STREAM LEAKAGE =       44471.4940

           TOTAL OUT =    56260169.8703             TOTAL OUT =       73952.9933

            IN - OUT =          -2.3071              IN - OUT =      -3.3005E-03

 PERCENT DISCREPANCY =          -0.00     PERCENT DISCREPANCY =          -0.00






         TIME SUMMARY AT END OF TIME STEP    1 IN STRESS PERIOD    5
                    SECONDS     MINUTES      HOURS       DAYS        YEARS
                    -----------------------------------------------------------
   TIME STEP LENGTH 7.94880E+06 1.32480E+05  2208.0      92.000     0.25188    
 STRESS PERIOD TIME 7.94880E+06 1.32480E+05  2208.0      92.000     0.25188    
         TOTAL TIME 3.94848E+07 6.58080E+05  10968.      457.00      1.2512    
1
1
                            STRESS PERIOD NO.    6, LENGTH =   91.00000    
                            -----------------------------------------------

                              NUMBER OF TIME STEPS =     1

                               MULTIPLIER FOR DELT =     1.500

                            INITIAL TIME STEP SIZE =   91.00000    

 WELL NO.  LAYER   ROW   COL   STRESS RATE         
 --------------------------------------------------
      1      1      5     13      -7278.    
      2      1      9     16      -9144.    
      3      1     16     19      -5032.    
      4      1     18     19      -8028.    

      4 WELLS

                 RECHARGE =  2.000000E-03

 REUSING STREAM SEGMENT DATA FROM LAST STRESS PERIOD
 
 SOLVING FOR HEAD 


     7 CALLS TO PCG ROUTINE FOR TIME STEP   1 IN STRESS PERIOD    6
    26 TOTAL ITERATIONS

 OUTPUT CONTROL FOR STRESS PERIOD    6   TIME STEP    1
    SAVE BUDGET
    SAVE HEAD FOR ALL LAYERS
    PRINT HEAD FOR ALL LAYERS
 UBDSV2 SAVING "STREAMFLOW OUT  " ON UNIT  50 AT TIME STEP  1, STRESS PERIOD   6



 STREAM LISTING     PERIOD      6   STEP        1

 LAYER ROW COL. STREAM  RCH.  FLOW INTO     FLOW TO   FLOW OUT OF   OVRLND.     DIRECT     STREAM       STREAM     STREAM     STREAM   STREAMBED  STREAMBED
                SEG.NO.  NO.  STRM. RCH.    AQUIFER    STRM. RCH.    RUNOFF     PRECIP       ET          HEAD       DEPTH      WIDTH   CONDCTNC.   GRADIENT

   1   13    1     1     1    1.0000E+05 -2.1735E+03   1.0217E+05  0.000E+00  0.000E+00  0.000E+00  4.84070E+01  1.456E-01  2.000E+01  2.000E+04 -1.087E-01
   1   13    2     1     2    1.0217E+05 -3.1975E+03   1.0537E+05  0.000E+00  0.000E+00  0.000E+00  4.79320E+01  1.479E-01  2.000E+01  2.000E+04 -1.599E-01
   1   14    3     1     3    1.0537E+05 -6.3335E+02   1.0600E+05  0.000E+00  0.000E+00  0.000E+00  4.74564E+01  1.495E-01  2.000E+01  2.000E+04 -3.167E-02
   1   15    4     1     4    1.0600E+05 -6.1640E+02   1.0662E+05  0.000E+00  0.000E+00  0.000E+00  4.69796E+01  1.501E-01  2.000E+01  2.000E+04 -3.082E-02
   1   16    5     1     5    1.0662E+05 -2.1495E+03   1.0877E+05  0.000E+00  0.000E+00  0.000E+00  4.65035E+01  1.512E-01  2.000E+01  2.000E+04 -1.075E-01
   1   16    6     1     6    1.0877E+05 -1.3331E+03   1.1010E+05  0.000E+00  0.000E+00  0.000E+00  4.60277E+01  1.527E-01  2.000E+01  2.000E+04 -6.666E-02
   1   16    7     1     7    1.1010E+05 -1.2879E+03   1.1139E+05  0.000E+00  0.000E+00  0.000E+00  4.55515E+01  1.538E-01  2.000E+01  2.000E+04 -6.440E-02
   1   16    8     1     8    1.1139E+05 -1.2579E+03   1.1265E+05  0.000E+00  0.000E+00  0.000E+00  4.50753E+01  1.548E-01  2.000E+01  2.000E+04 -6.289E-02
   1   16    9     1     9    1.1265E+05 -1.2159E+03   1.1387E+05  0.000E+00  0.000E+00  0.000E+00  4.45991E+01  1.559E-01  2.000E+01  2.000E+04 -6.079E-02
   1   16   10     1    10    1.1387E+05 -1.1551E+03   1.1502E+05  0.000E+00  0.000E+00  0.000E+00  4.41228E+01  1.568E-01  2.000E+01  2.000E+04 -5.776E-02
   1   16   11     1    11    1.1502E+05 -1.0788E+03   1.1610E+05  0.000E+00  0.000E+00  0.000E+00  4.36464E+01  1.578E-01  2.000E+01  2.000E+04 -5.394E-02
   1   16   12     1    12    1.1610E+05 -1.5081E+03   1.1761E+05  0.000E+00  0.000E+00  0.000E+00  4.31702E+01  1.588E-01  2.000E+01  2.000E+04 -7.541E-02
   1   15   13     1    13    1.1761E+05 -1.1755E+03   1.1878E+05  0.000E+00  0.000E+00  0.000E+00  4.26940E+01  1.599E-01  2.000E+01  2.000E+04 -5.877E-02
   1   14   14     1    14    1.1878E+05 -1.1327E+03   1.1992E+05  0.000E+00  0.000E+00  0.000E+00  4.22177E+01  1.608E-01  2.000E+01  2.000E+04 -5.664E-02
   1   13   15     1    15    1.1992E+05 -1.0611E+03   1.2098E+05  0.000E+00  0.000E+00  0.000E+00  4.17413E+01  1.617E-01  2.000E+01  2.000E+04 -5.305E-02
   1   12   16     1    16    1.2098E+05 -9.4149E+02   1.2192E+05  0.000E+00  0.000E+00  0.000E+00  4.12648E+01  1.625E-01  2.000E+01  2.000E+04 -4.707E-02
   1   12   17     1    17    1.2192E+05 -5.8765E+02   1.2251E+05  0.000E+00  0.000E+00  0.000E+00  4.07882E+01  1.632E-01  2.000E+01  2.000E+04 -2.938E-02
   1   12   18     1    18    1.2251E+05 -7.4160E+02   1.2325E+05  0.000E+00  0.000E+00  0.000E+00  4.03114E+01  1.637E-01  2.000E+01  2.000E+04 -3.708E-02
   1   12   19     1    19    1.2325E+05 -1.4700E+03   1.2472E+05  0.000E+00  0.000E+00  0.000E+00  3.98350E+01  1.646E-01  2.000E+01  2.000E+04 -7.350E-02
   1   13   20     1    20    1.2472E+05 -7.6209E+02   1.2548E+05  0.000E+00  0.000E+00  0.000E+00  3.93586E+01  1.655E-01  2.000E+01  2.000E+04 -3.810E-02
   1   14   21     1    21    1.2548E+05 -4.3799E+01   1.2552E+05  0.000E+00  0.000E+00  0.000E+00  3.88817E+01  1.658E-01  2.000E+01  2.000E+04 -2.190E-03
   1   14   22     1    22    1.2552E+05  5.0332E+03   1.2049E+05  0.000E+00  0.000E+00  0.000E+00  3.84024E+01  1.638E-01  2.000E+01  2.000E+04  2.517E-01
   1    9   30     2     1    5.0000E+04 -9.3924E+02   5.0939E+04  0.000E+00  0.000E+00  0.000E+00  4.02415E+01  1.165E-01  2.000E+01  2.000E+04 -4.696E-02
   1    9   29     2     2    5.0939E+04 -1.2270E+03   5.2166E+04  0.000E+00  0.000E+00  0.000E+00  3.99930E+01  1.180E-01  2.000E+01  2.000E+04 -6.135E-02
   1    9   28     2     3    5.2166E+04 -1.4564E+03   5.3623E+04  0.000E+00  0.000E+00  0.000E+00  3.97448E+01  1.198E-01  2.000E+01  2.000E+04 -7.282E-02
   1    9   27     2     4    5.3623E+04 -2.6824E+03   5.6305E+04  0.000E+00  0.000E+00  0.000E+00  3.94976E+01  1.226E-01  2.000E+01  2.000E+04 -1.341E-01
   1   10   26     2     5    5.6305E+04 -1.8818E+03   5.8187E+04  0.000E+00  0.000E+00  0.000E+00  3.92507E+01  1.257E-01  2.000E+01  2.000E+04 -9.409E-02
   1   11   25     2     6    5.8187E+04 -1.6390E+03   5.9826E+04  0.000E+00  0.000E+00  0.000E+00  3.90030E+01  1.280E-01  2.000E+01  2.000E+04 -8.195E-02
   1   12   24     2     7    5.9826E+04 -1.6346E+03   6.1460E+04  0.000E+00  0.000E+00  0.000E+00  3.87551E+01  1.301E-01  2.000E+01  2.000E+04 -8.173E-02
   1   13   23     2     8    6.1460E+04 -3.2454E+02   6.1785E+04  0.000E+00  0.000E+00  0.000E+00  3.85063E+01  1.313E-01  2.000E+01  2.000E+04 -1.623E-02
   1   14   22     2     9    6.1785E+04  2.0890E+03   5.9696E+04  0.000E+00  0.000E+00  0.000E+00  3.82552E+01  1.302E-01  2.000E+01  2.000E+04  1.045E-01
   1   14   22     3     1    1.8019E+05 -8.4384E+03   1.8862E+05  0.000E+00  0.000E+00  0.000E+00  3.77288E+01  1.733E-01  2.000E+01  2.000E+04 -4.219E-01
   1   15   23     3     2    1.8862E+05 -3.7047E+02   1.8899E+05  0.000E+00  0.000E+00  0.000E+00  3.68424E+01  1.758E-01  2.000E+01  2.000E+04 -1.852E-02
   1   15   24     3     3    1.8899E+05 -3.2147E+02   1.8932E+05  0.000E+00  0.000E+00  0.000E+00  3.59537E+01  1.760E-01  2.000E+01  2.000E+04 -1.607E-02
   1   15   25     3     4    1.8932E+05 -3.4621E+02   1.8966E+05  0.000E+00  0.000E+00  0.000E+00  3.50650E+01  1.761E-01  2.000E+01  2.000E+04 -1.731E-02
   1   15   26     3     5    1.8966E+05 -4.3745E+02   1.9010E+05  0.000E+00  0.000E+00  0.000E+00  3.41764E+01  1.764E-01  2.000E+01  2.000E+04 -2.187E-02
   1   16   27     3     6    1.9010E+05 -4.7578E+02   1.9058E+05  0.000E+00  0.000E+00  0.000E+00  3.32877E+01  1.766E-01  2.000E+01  2.000E+04 -2.379E-02
   1   17   28     3     7    1.9058E+05 -1.8416E+03   1.9242E+05  0.000E+00  0.000E+00  0.000E+00  3.23995E+01  1.773E-01  2.000E+01  2.000E+04 -9.208E-02
   1   18   29     3     8    1.9242E+05 -3.0792E+03   1.9550E+05  0.000E+00  0.000E+00  0.000E+00  3.15120E+01  1.786E-01  2.000E+01  2.000E+04 -1.540E-01
   1   18   30     3     9    1.9550E+05 -3.3594E+03   1.9886E+05  0.000E+00  0.000E+00  0.000E+00  3.06248E+01  1.804E-01  2.000E+01  2.000E+04 -1.680E-01



1
              HEAD IN LAYER   1 AT END OF TIME STEP   1 IN STRESS PERIOD    6
  ---------------------------------------------------------------------------

          1      2      3      4      5      6      7      8      9     10
         11     12     13     14     15     16     17     18     19     20
         21     22     23     24     25     26     27     28     29     30
 .........................................................................
   1  ****** ****** ****** ****** ****** ****** ****** ****** ****** ******
      ****** ****** ****** ****** ****** ****** ****** ****** ****** ******
      ****** ****** ****** ****** ****** ****** ****** ****** ****** ******
   2  ****** ****** ****** ****** ****** ****** ****** ****** ****** ******
      ****** ****** ****** ****** ****** ****** ****** ****** ****** ******
      ****** ****** ****** ****** ****** ****** ****** ****** ****** ******
   3  ****** ****** ****** ****** ****** ****** ****** ****** ****** ******
      ****** ****** ****** ****** ****** ****** ****** ****** ****** ******
      ****** ****** ****** ****** ****** ****** ****** ****** ****** ******
   4  ****** ****** ****** ****** ****** ****** ****** ****** ****** ******
      ****** ****** ****** ****** ****** ****** ****** ****** ****** ******
      ****** ****** ****** ****** ****** ****** ****** ****** ****** ******
   5  ****** ****** ****** ****** ****** ****** ****** ****** ****** ******
      ****** ****** ****** ****** ****** ****** ****** ****** ****** ******
      ****** ****** ****** ****** ****** ****** ****** ****** ****** ******
   6  ****** ****** ****** ****** ****** ****** ****** ****** ****** ******
      ****** ****** ****** ****** ****** ****** ****** ****** ****** ******
      ****** ****** ****** ****** ****** ****** ****** ****** ****** ******
   7  ****** ****** ****** ****** ****** ****** ****** ****** ****** ******
      ****** ****** ****** ****** ****** ****** ****** ****** ****** ******
      ****** ****** ****** ****** ****** ****** ****** ****** ****** ******
   8  ****** ****** ****** ****** ****** ****** ****** ****** ****** ******
      ****** ****** ****** ****** ****** ****** ****** ****** ****** ******
      ****** ****** ****** ****** ****** ****** ****** ****** ****** ******
   9  ****** ****** ****** ****** ****** ****** ****** ****** ****** ******
      ****** ****** ****** ****** ****** ****** ****** ****** ****** ******
      ****** ****** ****** ****** ****** ****** ****** ****** ****** ******
  10  ****** ****** ****** ****** ****** ****** ****** ****** ****** ******
      ****** ****** ****** ****** ****** ****** ****** ****** ****** ******
      ****** ****** ****** ****** ****** ****** ****** ****** ****** ******
  11  ****** ****** ****** ****** ****** ****** ****** ****** ****** ******
      ****** ****** ****** ****** ****** ****** ****** ****** ****** ******
      ****** ****** ****** ****** ****** ****** ****** ****** ****** ******
  12  ****** ****** ****** ****** ****** ****** ****** ****** ****** ******
      ****** ****** ****** ****** ****** ****** ****** ****** ****** ******
      ****** ****** ****** ****** ****** ****** ****** ****** ****** ******
  13  ****** ****** ****** ****** ****** ****** ****** ****** ****** ******
      ****** ****** ****** ****** ****** ****** ****** ****** ****** ******
      ****** ****** ****** ****** ****** ****** ****** ****** ****** ******
  14  ****** ****** ****** ****** ****** ****** ****** ****** ****** ******
      ****** ****** ****** ****** ****** ****** ****** ****** ****** ******
      ****** ****** ****** ****** ****** ****** ****** ****** ****** ******
  15  ****** ****** ****** ****** ****** ****** ****** ****** ****** ******
      ****** ****** ****** ****** ****** ****** ****** ****** ****** ******
      ****** ****** ****** ****** ****** ****** ****** ****** ****** ******
  16  ****** ****** ****** ****** ****** ****** ****** ****** ****** ******
      ****** ****** ****** ****** ****** ****** ****** ****** ****** ******
      ****** ****** ****** ****** ****** ****** ****** ****** ****** ******
  17  ****** ****** ****** ****** ****** ****** ****** ****** ****** ******
      ****** ****** ****** ****** ****** ****** ****** ****** ****** ******
      ****** ****** ****** ****** ****** ****** ****** ****** ****** ******
  18  ****** ****** ****** ****** ****** ****** ****** ****** ****** ******
      ****** ****** ****** ****** ****** ****** ****** ****** ****** ******
      ****** ****** ****** ****** ****** ****** ****** ****** ****** ******
  19  ****** ****** ****** ****** ****** ****** ****** ****** ****** ******
      ****** ****** ****** ****** ****** ****** ****** ****** ****** ******
      ****** ****** ****** ****** ****** ****** ****** ****** ****** ******
  20  ****** ****** ****** ****** ****** ****** ****** ****** ****** ******
      ****** ****** ****** ****** ****** ****** ****** ****** ****** ******
      ****** ****** ****** ****** ****** ****** ****** ****** ****** ******
  21  ****** ****** ****** ****** ****** ****** ****** ****** ****** ******
      ****** ****** ****** ****** ****** ****** ****** ****** ****** ******
      ****** ****** ****** ****** ****** ****** ****** ****** ****** ******
  22  ****** ****** ****** ****** ****** ****** ****** ****** ****** ******
      ****** ****** ****** ****** ****** ****** ****** ****** ****** ******
      ****** ****** ****** ****** ****** ****** ****** ****** ****** ******
  23  ****** ****** ****** ****** ****** ****** ****** ****** ****** ******
      ****** ****** ****** ****** ****** ****** ****** ****** ****** ******
      ****** ****** ****** ****** ****** ****** ****** ****** ****** ******
  24  ****** ****** ****** ****** ****** ****** ****** ****** ****** ******
      ****** ****** ****** ****** ****** ****** ****** ****** ****** ******
      ****** ****** ****** ****** ****** ****** ****** ****** ****** ******
  25  ****** ****** ****** ****** ****** ****** ****** ****** ****** ******
      ****** ****** ****** ****** ****** ****** ****** ****** ****** ******
      ****** ****** ****** ****** ****** ****** ****** ****** ****** ******

 HEAD WILL BE SAVED ON UNIT   51 AT END OF TIME STEP    1, STRESS PERIOD    6
1
  VOLUMETRIC BUDGET FOR ENTIRE MODEL AT END OF TIME STEP    1, STRESS PERIOD   6
  ------------------------------------------------------------------------------

     CUMULATIVE VOLUMES      L**3       RATES FOR THIS TIME STEP      L**3/T
     ------------------                 ------------------------

           IN:                                      IN:
           ---                                      ---
             STORAGE =    32301597.7769               STORAGE =          34.5541
       CONSTANT HEAD =    13757831.1044         CONSTANT HEAD =       30922.6413
               WELLS =           0.0000                 WELLS =           0.0000
            RECHARGE =    15097200.0000              RECHARGE =       55200.0000
      STREAM LEAKAGE =     3591969.8807        STREAM LEAKAGE =        7122.2683

            TOTAL IN =    64748598.7621              TOTAL IN =       93279.4637

          OUT:                                     OUT:
          ----                                     ----
             STORAGE =      712807.5439               STORAGE =        7819.9997
       CONSTANT HEAD =           0.0000         CONSTANT HEAD =           0.0000
               WELLS =    16155861.6408                 WELLS =       29481.4993
            RECHARGE =           0.0000              RECHARGE =           0.0000
      STREAM LEAKAGE =    47879931.6303        STREAM LEAKAGE =       55977.9619

           TOTAL OUT =    64748600.8150             TOTAL OUT =       93279.4609

            IN - OUT =          -2.0529              IN - OUT =       2.7928E-03

 PERCENT DISCREPANCY =          -0.00     PERCENT DISCREPANCY =           0.00






         TIME SUMMARY AT END OF TIME STEP    1 IN STRESS PERIOD    6
                    SECONDS     MINUTES      HOURS       DAYS        YEARS
                    -----------------------------------------------------------
   TIME STEP LENGTH 7.86240E+06 1.31040E+05  2184.0      91.000     0.24914    
 STRESS PERIOD TIME 7.86240E+06 1.31040E+05  2184.0      91.000     0.24914    
         TOTAL TIME 4.73472E+07 7.89120E+05  13152.      548.00      1.5003    
1
1
                            STRESS PERIOD NO.    7, LENGTH =   91.00000    
                            -----------------------------------------------

                              NUMBER OF TIME STEPS =     1

                               MULTIPLIER FOR DELT =     1.500

                            INITIAL TIME STEP SIZE =   91.00000    

 WELL NO.  LAYER   ROW   COL   STRESS RATE         
 --------------------------------------------------
      1      1      5     13      -7278.    
      2      1      9     16      -9144.    
      3      1     16     19      -5032.    
      4      1     18     19      -8028.    

      4 WELLS

                 RECHARGE =   0.00000    

 REUSING STREAM SEGMENT DATA FROM LAST STRESS PERIOD
 
 SOLVING FOR HEAD 


     7 CALLS TO PCG ROUTINE FOR TIME STEP   1 IN STRESS PERIOD    7
    26 TOTAL ITERATIONS

 OUTPUT CONTROL FOR STRESS PERIOD    7   TIME STEP    1
    SAVE BUDGET
    SAVE HEAD FOR ALL LAYERS
    PRINT HEAD FOR ALL LAYERS
 UBDSV2 SAVING "STREAMFLOW OUT  " ON UNIT  50 AT TIME STEP  1, STRESS PERIOD   7



 STREAM LISTING     PERIOD      7   STEP        1

 LAYER ROW COL. STREAM  RCH.  FLOW INTO     FLOW TO   FLOW OUT OF   OVRLND.     DIRECT     STREAM       STREAM     STREAM     STREAM   STREAMBED  STREAMBED
                SEG.NO.  NO.  STRM. RCH.    AQUIFER    STRM. RCH.    RUNOFF     PRECIP       ET          HEAD       DEPTH      WIDTH   CONDCTNC.   GRADIENT

   1   13    1     1     1    1.0000E+05 -1.4874E+03   1.0149E+05  0.000E+00  0.000E+00  0.000E+00  4.84067E+01  1.453E-01  2.000E+01  2.000E+04 -7.437E-02
   1   13    2     1     2    1.0149E+05 -2.4292E+03   1.0392E+05  0.000E+00  0.000E+00  0.000E+00  4.79311E+01  1.470E-01  2.000E+01  2.000E+04 -1.215E-01
   1   14    3     1     3    1.0392E+05 -3.7828E+02   1.0429E+05  0.000E+00  0.000E+00  0.000E+00  4.74550E+01  1.482E-01  2.000E+01  2.000E+04 -1.891E-02
   1   15    4     1     4    1.0429E+05 -3.5117E+02   1.0465E+05  0.000E+00  0.000E+00  0.000E+00  4.69780E+01  1.485E-01  2.000E+01  2.000E+04 -1.756E-02
   1   16    5     1     5    1.0465E+05 -1.3930E+03   1.0604E+05  0.000E+00  0.000E+00  0.000E+00  4.65015E+01  1.492E-01  2.000E+01  2.000E+04 -6.965E-02
   1   16    6     1     6    1.0604E+05 -8.7564E+02   1.0691E+05  0.000E+00  0.000E+00  0.000E+00  4.60252E+01  1.502E-01  2.000E+01  2.000E+04 -4.378E-02
   1   16    7     1     7    1.0691E+05 -8.4852E+02   1.0776E+05  0.000E+00  0.000E+00  0.000E+00  4.55487E+01  1.509E-01  2.000E+01  2.000E+04 -4.243E-02
   1   16    8     1     8    1.0776E+05 -8.2427E+02   1.0859E+05  0.000E+00  0.000E+00  0.000E+00  4.50721E+01  1.516E-01  2.000E+01  2.000E+04 -4.121E-02
   1   16    9     1     9    1.0859E+05 -7.8540E+02   1.0937E+05  0.000E+00  0.000E+00  0.000E+00  4.45955E+01  1.523E-01  2.000E+01  2.000E+04 -3.927E-02
   1   16   10     1    10    1.0937E+05 -7.2727E+02   1.1010E+05  0.000E+00  0.000E+00  0.000E+00  4.41189E+01  1.529E-01  2.000E+01  2.000E+04 -3.636E-02
   1   16   11     1    11    1.1010E+05 -6.4989E+02   1.1075E+05  0.000E+00  0.000E+00  0.000E+00  4.36422E+01  1.535E-01  2.000E+01  2.000E+04 -3.249E-02
   1   16   12     1    12    1.1075E+05 -7.8537E+02   1.1154E+05  0.000E+00  0.000E+00  0.000E+00  4.31655E+01  1.541E-01  2.000E+01  2.000E+04 -3.927E-02
   1   15   13     1    13    1.1154E+05 -3.9674E+02   1.1193E+05  0.000E+00  0.000E+00  0.000E+00  4.26887E+01  1.546E-01  2.000E+01  2.000E+04 -1.984E-02
   1   14   14     1    14    1.1193E+05 -3.2313E+02   1.1226E+05  0.000E+00  0.000E+00  0.000E+00  4.22117E+01  1.549E-01  2.000E+01  2.000E+04 -1.616E-02
   1   13   15     1    15    1.1226E+05 -2.4699E+02   1.1250E+05  0.000E+00  0.000E+00  0.000E+00  4.17347E+01  1.551E-01  2.000E+01  2.000E+04 -1.235E-02
   1   12   16     1    16    1.1250E+05 -1.2934E+02   1.1263E+05  0.000E+00  0.000E+00  0.000E+00  4.12576E+01  1.553E-01  2.000E+01  2.000E+04 -6.467E-03
   1   12   17     1    17    1.1263E+05 -8.1908E-01   1.1263E+05  0.000E+00  0.000E+00  0.000E+00  4.07804E+01  1.554E-01  2.000E+01  2.000E+04 -4.095E-05
   1   12   18     1    18    1.1263E+05 -1.7038E+02   1.1280E+05  0.000E+00  0.000E+00  0.000E+00  4.03032E+01  1.554E-01  2.000E+01  2.000E+04 -8.519E-03
   1   12   19     1    19    1.1280E+05 -7.7291E+02   1.1358E+05  0.000E+00  0.000E+00  0.000E+00  3.98263E+01  1.558E-01  2.000E+01  2.000E+04 -3.865E-02
   1   13   20     1    20    1.1358E+05 -8.6710E+01   1.1366E+05  0.000E+00  0.000E+00  0.000E+00  3.93494E+01  1.562E-01  2.000E+01  2.000E+04 -4.335E-03
   1   14   21     1    21    1.1366E+05  6.2243E+02   1.1304E+05  0.000E+00  0.000E+00  0.000E+00  3.88719E+01  1.559E-01  2.000E+01  2.000E+04  3.112E-02
   1   14   22     1    22    1.1304E+05  5.1883E+03   1.0785E+05  0.000E+00  0.000E+00  0.000E+00  3.83922E+01  1.535E-01  2.000E+01  2.000E+04  2.594E-01
   1    9   30     2     1    5.0000E+04 -4.2379E+02   5.0424E+04  0.000E+00  0.000E+00  0.000E+00  4.02412E+01  1.162E-01  2.000E+01  2.000E+04 -2.119E-02
   1    9   29     2     2    5.0424E+04 -7.1319E+02   5.1137E+04  0.000E+00  0.000E+00  0.000E+00  3.99919E+01  1.169E-01  2.000E+01  2.000E+04 -3.566E-02
   1    9   28     2     3    5.1137E+04 -9.4067E+02   5.2078E+04  0.000E+00  0.000E+00  0.000E+00  3.97431E+01  1.181E-01  2.000E+01  2.000E+04 -4.703E-02
   1    9   27     2     4    5.2078E+04 -1.9794E+03   5.4057E+04  0.000E+00  0.000E+00  0.000E+00  3.94951E+01  1.201E-01  2.000E+01  2.000E+04 -9.897E-02
   1   10   26     2     5    5.4057E+04 -1.1777E+03   5.5235E+04  0.000E+00  0.000E+00  0.000E+00  3.92472E+01  1.222E-01  2.000E+01  2.000E+04 -5.889E-02
   1   11   25     2     6    5.5235E+04 -9.6372E+02   5.6199E+04  0.000E+00  0.000E+00  0.000E+00  3.89986E+01  1.236E-01  2.000E+01  2.000E+04 -4.819E-02
   1   12   24     2     7    5.6199E+04 -1.0184E+03   5.7217E+04  0.000E+00  0.000E+00  0.000E+00  3.87500E+01  1.250E-01  2.000E+01  2.000E+04 -5.092E-02
   1   13   23     2     8    5.7217E+04 -1.3189E+02   5.7349E+04  0.000E+00  0.000E+00  0.000E+00  3.85007E+01  1.257E-01  2.000E+01  2.000E+04 -6.595E-03
   1   14   22     2     9    5.7349E+04  2.3301E+03   5.5019E+04  0.000E+00  0.000E+00  0.000E+00  3.82493E+01  1.243E-01  2.000E+01  2.000E+04  1.165E-01
   1   14   22     3     1    1.6287E+05 -8.2784E+03   1.7115E+05  0.000E+00  0.000E+00  0.000E+00  3.77188E+01  1.633E-01  2.000E+01  2.000E+04 -4.139E-01
   1   15   23     3     2    1.7115E+05 -1.6314E+02   1.7131E+05  0.000E+00  0.000E+00  0.000E+00  3.68324E+01  1.657E-01  2.000E+01  2.000E+04 -8.157E-03
   1   15   24     3     3    1.7131E+05 -1.4734E+02   1.7146E+05  0.000E+00  0.000E+00  0.000E+00  3.59436E+01  1.658E-01  2.000E+01  2.000E+04 -7.367E-03
   1   15   25     3     4    1.7146E+05 -1.6909E+02   1.7163E+05  0.000E+00  0.000E+00  0.000E+00  3.50548E+01  1.659E-01  2.000E+01  2.000E+04 -8.454E-03
   1   15   26     3     5    1.7163E+05 -2.3600E+02   1.7186E+05  0.000E+00  0.000E+00  0.000E+00  3.41660E+01  1.660E-01  2.000E+01  2.000E+04 -1.180E-02
   1   16   27     3     6    1.7186E+05 -2.4297E+02   1.7211E+05  0.000E+00  0.000E+00  0.000E+00  3.32773E+01  1.662E-01  2.000E+01  2.000E+04 -1.215E-02
   1   17   28     3     7    1.7211E+05 -1.1986E+03   1.7331E+05  0.000E+00  0.000E+00  0.000E+00  3.23888E+01  1.666E-01  2.000E+01  2.000E+04 -5.993E-02
   1   18   29     3     8    1.7331E+05 -2.3896E+03   1.7570E+05  0.000E+00  0.000E+00  0.000E+00  3.15010E+01  1.676E-01  2.000E+01  2.000E+04 -1.195E-01
   1   18   30     3     9    1.7570E+05 -2.8288E+03   1.7852E+05  0.000E+00  0.000E+00  0.000E+00  3.06136E+01  1.691E-01  2.000E+01  2.000E+04 -1.414E-01



1
              HEAD IN LAYER   1 AT END OF TIME STEP   1 IN STRESS PERIOD    7
  ---------------------------------------------------------------------------

          1      2      3      4      5      6      7      8      9     10
         11     12     13     14     15     16     17     18     19     20
         21     22     23     24     25     26     27     28     29     30
 .........................................................................
   1  ****** ****** ****** ****** ****** ****** ****** ****** ****** ******
      ****** ****** ****** ****** ****** ****** ****** ****** ****** ******
      ****** ****** ****** ****** ****** ****** ****** ****** ****** ******
   2  ****** ****** ****** ****** ****** ****** ****** ****** ****** ******
      ****** ****** ****** ****** ****** ****** ****** ****** ****** ******
      ****** ****** ****** ****** ****** ****** ****** ****** ****** ******
   3  ****** ****** ****** ****** ****** ****** ****** ****** ****** ******
      ****** ****** ****** ****** ****** ****** ****** ****** ****** ******
      ****** ****** ****** ****** ****** ****** ****** ****** ****** ******
   4  ****** ****** ****** ****** ****** ****** ****** ****** ****** ******
      ****** ****** ****** ****** ****** ****** ****** ****** ****** ******
      ****** ****** ****** ****** ****** ****** ****** ****** ****** ******
   5  ****** ****** ****** ****** ****** ****** ****** ****** ****** ******
      ****** ****** ****** ****** ****** ****** ****** ****** ****** ******
      ****** ****** ****** ****** ****** ****** ****** ****** ****** ******
   6  ****** ****** ****** ****** ****** ****** ****** ****** ****** ******
      ****** ****** ****** ****** ****** ****** ****** ****** ****** ******
      ****** ****** ****** ****** ****** ****** ****** ****** ****** ******
   7  ****** ****** ****** ****** ****** ****** ****** ****** ****** ******
      ****** ****** ****** ****** ****** ****** ****** ****** ****** ******
      ****** ****** ****** ****** ****** ****** ****** ****** ****** ******
   8  ****** ****** ****** ****** ****** ****** ****** ****** ****** ******
      ****** ****** ****** ****** ****** ****** ****** ****** ****** ******
      ****** ****** ****** ****** ****** ****** ****** ****** ****** ******
   9  ****** ****** ****** ****** ****** ****** ****** ****** ****** ******
      ****** ****** ****** ****** ****** ****** ****** ****** ****** ******
      ****** ****** ****** ****** ****** ****** ****** ****** ****** ******
  10  ****** ****** ****** ****** ****** ****** ****** ****** ****** ******
      ****** ****** ****** ****** ****** ****** ****** ****** ****** ******
      ****** ****** ****** ****** ****** ****** ****** ****** ****** ******
  11  ****** ****** ****** ****** ****** ****** ****** ****** ****** ******
      ****** ****** ****** ****** ****** ****** ****** ****** ****** ******
      ****** ****** ****** ****** ****** ****** ****** ****** ****** ******
  12  ****** ****** ****** ****** ****** ****** ****** ****** ****** ******
      ****** ****** ****** ****** ****** ****** ****** ****** ****** ******
      ****** ****** ****** ****** ****** ****** ****** ****** ****** ******
  13  ****** ****** ****** ****** ****** ****** ****** ****** ****** ******
      ****** ****** ****** ****** ****** ****** ****** ****** ****** ******
      ****** ****** ****** ****** ****** ****** ****** ****** ****** ******
  14  ****** ****** ****** ****** ****** ****** ****** ****** ****** ******
      ****** ****** ****** ****** ****** ****** ****** ****** ****** ******
      ****** ****** ****** ****** ****** ****** ****** ****** ****** ******
  15  ****** ****** ****** ****** ****** ****** ****** ****** ****** ******
      ****** ****** ****** ****** ****** ****** ****** ****** ****** ******
      ****** ****** ****** ****** ****** ****** ****** ****** ****** ******
  16  ****** ****** ****** ****** ****** ****** ****** ****** ****** ******
      ****** ****** ****** ****** ****** ****** ****** ****** ****** ******
      ****** ****** ****** ****** ****** ****** ****** ****** ****** ******
  17  ****** ****** ****** ****** ****** ****** ****** ****** ****** ******
      ****** ****** ****** ****** ****** ****** ****** ****** ****** ******
      ****** ****** ****** ****** ****** ****** ****** ****** ****** ******
  18  ****** ****** ****** ****** ****** ****** ****** ****** ****** ******
      ****** ****** ****** ****** ****** ****** ****** ****** ****** ******
      ****** ****** ****** ****** ****** ****** ****** ****** ****** ******
  19  ****** ****** ****** ****** ****** ****** ****** ****** ****** ******
      ****** ****** ****** ****** ****** ****** ****** ****** ****** ******
      ****** ****** ****** ****** ****** ****** ****** ****** ****** ******
  20  ****** ****** ****** ****** ****** ****** ****** ****** ****** ******
      ****** ****** ****** ****** ****** ****** ****** ****** ****** ******
      ****** ****** ****** ****** ****** ****** ****** ****** ****** ******
  21  ****** ****** ****** ****** ****** ****** ****** ****** ****** ******
      ****** ****** ****** ****** ****** ****** ****** ****** ****** ******
      ****** ****** ****** ****** ****** ****** ****** ****** ****** ******
  22  ****** ****** ****** ****** ****** ****** ****** ****** ****** ******
      ****** ****** ****** ****** ****** ****** ****** ****** ****** ******
      ****** ****** ****** ****** ****** ****** ****** ****** ****** ******
  23  ****** ****** ****** ****** ****** ****** ****** ****** ****** ******
      ****** ****** ****** ****** ****** ****** ****** ****** ****** ******
      ****** ****** ****** ****** ****** ****** ****** ****** ****** ******
  24  ****** ****** ****** ****** ****** ****** ****** ****** ****** ******
      ****** ****** ****** ****** ****** ****** ****** ****** ****** ******
      ****** ****** ****** ****** ****** ****** ****** ****** ****** ******
  25  ****** ****** ****** ****** ****** ****** ****** ****** ****** ******
      ****** ****** ****** ****** ****** ****** ****** ****** ****** ******
      ****** ****** ****** ****** ****** ****** ****** ****** ****** ******

 HEAD WILL BE SAVED ON UNIT   51 AT END OF TIME STEP    1, STRESS PERIOD    7
1
  VOLUMETRIC BUDGET FOR ENTIRE MODEL AT END OF TIME STEP    1, STRESS PERIOD   7
  ------------------------------------------------------------------------------

     CUMULATIVE VOLUMES      L**3       RATES FOR THIS TIME STEP      L**3/T
     ------------------                 ------------------------

           IN:                                      IN:
           ---                                      ---
             STORAGE =    34400978.5127               STORAGE =       23070.1180
       CONSTANT HEAD =    16936987.6662         CONSTANT HEAD =       34935.7864
               WELLS =           0.0000                 WELLS =           0.0000
            RECHARGE =    15097200.0000              RECHARGE =           0.0000
      STREAM LEAKAGE =     4332780.3991        STREAM LEAKAGE =        8140.7749

            TOTAL IN =    70767946.5780              TOTAL IN =       66146.6793

          OUT:                                     OUT:
          ----                                     ----
             STORAGE =      712807.5439               STORAGE =           0.0000
       CONSTANT HEAD =           0.0000         CONSTANT HEAD =           0.0000
               WELLS =    18838678.0811                 WELLS =       29481.4993
            RECHARGE =           0.0000              RECHARGE =           0.0000
      STREAM LEAKAGE =    51216463.5087        STREAM LEAKAGE =       36665.1855

           TOTAL OUT =    70767949.1337             TOTAL OUT =       66146.6848

            IN - OUT =          -2.5557              IN - OUT =      -5.5258E-03

 PERCENT DISCREPANCY =          -0.00     PERCENT DISCREPANCY =          -0.00






         TIME SUMMARY AT END OF TIME STEP    1 IN STRESS PERIOD    7
                    SECONDS     MINUTES      HOURS       DAYS        YEARS
                    -----------------------------------------------------------
   TIME STEP LENGTH 7.86240E+06 1.31040E+05  2184.0      91.000     0.24914    
 STRESS PERIOD TIME 7.86240E+06 1.31040E+05  2184.0      91.000     0.24914    
         TOTAL TIME 5.52096E+07 9.20160E+05  15336.      639.00      1.7495    
1
1
                            STRESS PERIOD NO.    8, LENGTH =   91.00000    
                            -----------------------------------------------

                              NUMBER OF TIME STEPS =     1

                               MULTIPLIER FOR DELT =     1.500

                            INITIAL TIME STEP SIZE =   91.00000    

 WELL NO.  LAYER   ROW   COL   STRESS RATE         
 --------------------------------------------------
      1      1      5     13      -7278.    
      2      1      9     16      -9144.    
      3      1     16     19      -5032.    
      4      1     18     19      -8028.    

      4 WELLS

                 RECHARGE =  1.000000E-03

 REUSING STREAM SEGMENT DATA FROM LAST STRESS PERIOD
 
 SOLVING FOR HEAD 


     6 CALLS TO PCG ROUTINE FOR TIME STEP   1 IN STRESS PERIOD    8
    22 TOTAL ITERATIONS

 OUTPUT CONTROL FOR STRESS PERIOD    8   TIME STEP    1
    SAVE BUDGET
    SAVE HEAD FOR ALL LAYERS
    PRINT HEAD FOR ALL LAYERS
 UBDSV2 SAVING "STREAMFLOW OUT  " ON UNIT  50 AT TIME STEP  1, STRESS PERIOD   8



 STREAM LISTING     PERIOD      8   STEP        1

 LAYER ROW COL. STREAM  RCH.  FLOW INTO     FLOW TO   FLOW OUT OF   OVRLND.     DIRECT     STREAM       STREAM     STREAM     STREAM   STREAMBED  STREAMBED
                SEG.NO.  NO.  STRM. RCH.    AQUIFER    STRM. RCH.    RUNOFF     PRECIP       ET          HEAD       DEPTH      WIDTH   CONDCTNC.   GRADIENT

   1   13    1     1     1    1.0000E+05 -1.5462E+03   1.0155E+05  0.000E+00  0.000E+00  0.000E+00  4.84067E+01  1.453E-01  2.000E+01  2.000E+04 -7.731E-02
   1   13    2     1     2    1.0155E+05 -2.4851E+03   1.0403E+05  0.000E+00  0.000E+00  0.000E+00  4.79311E+01  1.471E-01  2.000E+01  2.000E+04 -1.243E-01
   1   14    3     1     3    1.0403E+05 -4.3987E+02   1.0447E+05  0.000E+00  0.000E+00  0.000E+00  4.74551E+01  1.483E-01  2.000E+01  2.000E+04 -2.199E-02
   1   15    4     1     4    1.0447E+05 -4.1787E+02   1.0489E+05  0.000E+00  0.000E+00  0.000E+00  4.69782E+01  1.487E-01  2.000E+01  2.000E+04 -2.089E-02
   1   16    5     1     5    1.0489E+05 -1.5647E+03   1.0645E+05  0.000E+00  0.000E+00  0.000E+00  4.65018E+01  1.495E-01  2.000E+01  2.000E+04 -7.823E-02
   1   16    6     1     6    1.0645E+05 -9.8035E+02   1.0743E+05  0.000E+00  0.000E+00  0.000E+00  4.60256E+01  1.506E-01  2.000E+01  2.000E+04 -4.902E-02
   1   16    7     1     7    1.0743E+05 -9.4802E+02   1.0838E+05  0.000E+00  0.000E+00  0.000E+00  4.55491E+01  1.514E-01  2.000E+01  2.000E+04 -4.740E-02
   1   16    8     1     8    1.0838E+05 -9.2289E+02   1.0931E+05  0.000E+00  0.000E+00  0.000E+00  4.50727E+01  1.522E-01  2.000E+01  2.000E+04 -4.614E-02
   1   16    9     1     9    1.0931E+05 -8.8529E+02   1.1019E+05  0.000E+00  0.000E+00  0.000E+00  4.45961E+01  1.530E-01  2.000E+01  2.000E+04 -4.426E-02
   1   16   10     1    10    1.1019E+05 -8.2993E+02   1.1102E+05  0.000E+00  0.000E+00  0.000E+00  4.41196E+01  1.537E-01  2.000E+01  2.000E+04 -4.150E-02
   1   16   11     1    11    1.1102E+05 -7.5592E+02   1.1178E+05  0.000E+00  0.000E+00  0.000E+00  4.36430E+01  1.543E-01  2.000E+01  2.000E+04 -3.780E-02
   1   16   12     1    12    1.1178E+05 -9.4247E+02   1.1272E+05  0.000E+00  0.000E+00  0.000E+00  4.31664E+01  1.550E-01  2.000E+01  2.000E+04 -4.712E-02
   1   15   13     1    13    1.1272E+05 -5.5751E+02   1.1328E+05  0.000E+00  0.000E+00  0.000E+00  4.26897E+01  1.557E-01  2.000E+01  2.000E+04 -2.788E-02
   1   14   14     1    14    1.1328E+05 -4.7447E+02   1.1375E+05  0.000E+00  0.000E+00  0.000E+00  4.22129E+01  1.561E-01  2.000E+01  2.000E+04 -2.372E-02
   1   13   15     1    15    1.1375E+05 -3.8344E+02   1.1413E+05  0.000E+00  0.000E+00  0.000E+00  4.17360E+01  1.564E-01  2.000E+01  2.000E+04 -1.917E-02
   1   12   16     1    16    1.1413E+05 -2.2417E+02   1.1436E+05  0.000E+00  0.000E+00  0.000E+00  4.12590E+01  1.567E-01  2.000E+01  2.000E+04 -1.121E-02
   1   12   17     1    17    1.1436E+05 -1.0349E+02   1.1446E+05  0.000E+00  0.000E+00  0.000E+00  4.07818E+01  1.568E-01  2.000E+01  2.000E+04 -5.174E-03
   1   12   18     1    18    1.1446E+05 -2.8109E+02   1.1474E+05  0.000E+00  0.000E+00  0.000E+00  4.03047E+01  1.570E-01  2.000E+01  2.000E+04 -1.405E-02
   1   12   19     1    19    1.1474E+05 -9.1330E+02   1.1566E+05  0.000E+00  0.000E+00  0.000E+00  3.98279E+01  1.575E-01  2.000E+01  2.000E+04 -4.566E-02
   1   13   20     1    20    1.1566E+05 -2.6021E+02   1.1592E+05  0.000E+00  0.000E+00  0.000E+00  3.93511E+01  1.579E-01  2.000E+01  2.000E+04 -1.301E-02
   1   14   21     1    21    1.1592E+05  4.6741E+02   1.1545E+05  0.000E+00  0.000E+00  0.000E+00  3.88738E+01  1.579E-01  2.000E+01  2.000E+04  2.337E-02
   1   14   22     1    22    1.1545E+05  5.1415E+03   1.1031E+05  0.000E+00  0.000E+00  0.000E+00  3.83942E+01  1.556E-01  2.000E+01  2.000E+04  2.571E-01
   1    9   30     2     1    5.0000E+04 -5.8527E+02   5.0585E+04  0.000E+00  0.000E+00  0.000E+00  4.02413E+01  1.163E-01  2.000E+01  2.000E+04 -2.926E-02
   1    9   29     2     2    5.0585E+04 -8.7172E+02   5.1457E+04  0.000E+00  0.000E+00  0.000E+00  3.99923E+01  1.173E-01  2.000E+01  2.000E+04 -4.359E-02
   1    9   28     2     3    5.1457E+04 -1.0932E+03   5.2550E+04  0.000E+00  0.000E+00  0.000E+00  3.97436E+01  1.186E-01  2.000E+01  2.000E+04 -5.466E-02
   1    9   27     2     4    5.2550E+04 -2.1525E+03   5.4703E+04  0.000E+00  0.000E+00  0.000E+00  3.94958E+01  1.208E-01  2.000E+01  2.000E+04 -1.076E-01
   1   10   26     2     5    5.4703E+04 -1.3786E+03   5.6081E+04  0.000E+00  0.000E+00  0.000E+00  3.92482E+01  1.232E-01  2.000E+01  2.000E+04 -6.893E-02
   1   11   25     2     6    5.6081E+04 -1.1633E+03   5.7245E+04  0.000E+00  0.000E+00  0.000E+00  3.89999E+01  1.249E-01  2.000E+01  2.000E+04 -5.816E-02
   1   12   24     2     7    5.7245E+04 -1.1992E+03   5.8444E+04  0.000E+00  0.000E+00  0.000E+00  3.87515E+01  1.265E-01  2.000E+01  2.000E+04 -5.996E-02
   1   13   23     2     8    5.8444E+04 -2.0551E+02   5.8649E+04  0.000E+00  0.000E+00  0.000E+00  3.85024E+01  1.274E-01  2.000E+01  2.000E+04 -1.028E-02
   1   14   22     2     9    5.8649E+04  2.2780E+03   5.6371E+04  0.000E+00  0.000E+00  0.000E+00  3.82510E+01  1.260E-01  2.000E+01  2.000E+04  1.139E-01
   1   14   22     3     1    1.6668E+05 -8.3208E+03   1.7500E+05  0.000E+00  0.000E+00  0.000E+00  3.77211E+01  1.655E-01  2.000E+01  2.000E+04 -4.160E-01
   1   15   23     3     2    1.7500E+05 -2.2670E+02   1.7523E+05  0.000E+00  0.000E+00  0.000E+00  3.68347E+01  1.680E-01  2.000E+01  2.000E+04 -1.134E-02
   1   15   24     3     3    1.7523E+05 -2.0748E+02   1.7543E+05  0.000E+00  0.000E+00  0.000E+00  3.59459E+01  1.681E-01  2.000E+01  2.000E+04 -1.037E-02
   1   15   25     3     4    1.7543E+05 -2.3099E+02   1.7566E+05  0.000E+00  0.000E+00  0.000E+00  3.50571E+01  1.682E-01  2.000E+01  2.000E+04 -1.155E-02
   1   15   26     3     5    1.7566E+05 -3.1044E+02   1.7598E+05  0.000E+00  0.000E+00  0.000E+00  3.41684E+01  1.684E-01  2.000E+01  2.000E+04 -1.552E-02
   1   16   27     3     6    1.7598E+05 -3.2440E+02   1.7630E+05  0.000E+00  0.000E+00  0.000E+00  3.32797E+01  1.686E-01  2.000E+01  2.000E+04 -1.622E-02
   1   17   28     3     7    1.7630E+05 -1.4010E+03   1.7770E+05  0.000E+00  0.000E+00  0.000E+00  3.23913E+01  1.691E-01  2.000E+01  2.000E+04 -7.005E-02
   1   18   29     3     8    1.7770E+05 -2.5522E+03   1.8025E+05  0.000E+00  0.000E+00  0.000E+00  3.15035E+01  1.702E-01  2.000E+01  2.000E+04 -1.276E-01
   1   18   30     3     9    1.8025E+05 -2.9738E+03   1.8323E+05  0.000E+00  0.000E+00  0.000E+00  3.06162E+01  1.718E-01  2.000E+01  2.000E+04 -1.487E-01



1
              HEAD IN LAYER   1 AT END OF TIME STEP   1 IN STRESS PERIOD    8
  ---------------------------------------------------------------------------

          1      2      3      4      5      6      7      8      9     10
         11     12     13     14     15     16     17     18     19     20
         21     22     23     24     25     26     27     28     29     30
 .........................................................................
   1  ****** ****** ****** ****** ****** ****** ****** ****** ****** ******
      ****** ****** ****** ****** ****** ****** ****** ****** ****** ******
      ****** ****** ****** ****** ****** ****** ****** ****** ****** ******
   2  ****** ****** ****** ****** ****** ****** ****** ****** ****** ******
      ****** ****** ****** ****** ****** ****** ****** ****** ****** ******
      ****** ****** ****** ****** ****** ****** ****** ****** ****** ******
   3  ****** ****** ****** ****** ****** ****** ****** ****** ****** ******
      ****** ****** ****** ****** ****** ****** ****** ****** ****** ******
      ****** ****** ****** ****** ****** ****** ****** ****** ****** ******
   4  ****** ****** ****** ****** ****** ****** ****** ****** ****** ******
      ****** ****** ****** ****** ****** ****** ****** ****** ****** ******
      ****** ****** ****** ****** ****** ****** ****** ****** ****** ******
   5  ****** ****** ****** ****** ****** ****** ****** ****** ****** ******
      ****** ****** ****** ****** ****** ****** ****** ****** ****** ******
      ****** ****** ****** ****** ****** ****** ****** ****** ****** ******
   6  ****** ****** ****** ****** ****** ****** ****** ****** ****** ******
      ****** ****** ****** ****** ****** ****** ****** ****** ****** ******
      ****** ****** ****** ****** ****** ****** ****** ****** ****** ******
   7  ****** ****** ****** ****** ****** ****** ****** ****** ****** ******
      ****** ****** ****** ****** ****** ****** ****** ****** ****** ******
      ****** ****** ****** ****** ****** ****** ****** ****** ****** ******
   8  ****** ****** ****** ****** ****** ****** ****** ****** ****** ******
      ****** ****** ****** ****** ****** ****** ****** ****** ****** ******
      ****** ****** ****** ****** ****** ****** ****** ****** ****** ******
   9  ****** ****** ****** ****** ****** ****** ****** ****** ****** ******
      ****** ****** ****** ****** ****** ****** ****** ****** ****** ******
      ****** ****** ****** ****** ****** ****** ****** ****** ****** ******
  10  ****** ****** ****** ****** ****** ****** ****** ****** ****** ******
      ****** ****** ****** ****** ****** ****** ****** ****** ****** ******
      ****** ****** ****** ****** ****** ****** ****** ****** ****** ******
  11  ****** ****** ****** ****** ****** ****** ****** ****** ****** ******
      ****** ****** ****** ****** ****** ****** ****** ****** ****** ******
      ****** ****** ****** ****** ****** ****** ****** ****** ****** ******
  12  ****** ****** ****** ****** ****** ****** ****** ****** ****** ******
      ****** ****** ****** ****** ****** ****** ****** ****** ****** ******
      ****** ****** ****** ****** ****** ****** ****** ****** ****** ******
  13  ****** ****** ****** ****** ****** ****** ****** ****** ****** ******
      ****** ****** ****** ****** ****** ****** ****** ****** ****** ******
      ****** ****** ****** ****** ****** ****** ****** ****** ****** ******
  14  ****** ****** ****** ****** ****** ****** ****** ****** ****** ******
      ****** ****** ****** ****** ****** ****** ****** ****** ****** ******
      ****** ****** ****** ****** ****** ****** ****** ****** ****** ******
  15  ****** ****** ****** ****** ****** ****** ****** ****** ****** ******
      ****** ****** ****** ****** ****** ****** ****** ****** ****** ******
      ****** ****** ****** ****** ****** ****** ****** ****** ****** ******
  16  ****** ****** ****** ****** ****** ****** ****** ****** ****** ******
      ****** ****** ****** ****** ****** ****** ****** ****** ****** ******
      ****** ****** ****** ****** ****** ****** ****** ****** ****** ******
  17  ****** ****** ****** ****** ****** ****** ****** ****** ****** ******
      ****** ****** ****** ****** ****** ****** ****** ****** ****** ******
      ****** ****** ****** ****** ****** ****** ****** ****** ****** ******
  18  ****** ****** ****** ****** ****** ****** ****** ****** ****** ******
      ****** ****** ****** ****** ****** ****** ****** ****** ****** ******
      ****** ****** ****** ****** ****** ****** ****** ****** ****** ******
  19  ****** ****** ****** ****** ****** ****** ****** ****** ****** ******
      ****** ****** ****** ****** ****** ****** ****** ****** ****** ******
      ****** ****** ****** ****** ****** ****** ****** ****** ****** ******
  20  ****** ****** ****** ****** ****** ****** ****** ****** ****** ******
      ****** ****** ****** ****** ****** ****** ****** ****** ****** ******
      ****** ****** ****** ****** ****** ****** ****** ****** ****** ******
  21  ****** ****** ****** ****** ****** ****** ****** ****** ****** ******
      ****** ****** ****** ****** ****** ****** ****** ****** ****** ******
      ****** ****** ****** ****** ****** ****** ****** ****** ****** ******
  22  ****** ****** ****** ****** ****** ****** ****** ****** ****** ******
      ****** ****** ****** ****** ****** ****** ****** ****** ****** ******
      ****** ****** ****** ****** ****** ****** ****** ****** ****** ******
  23  ****** ****** ****** ****** ****** ****** ****** ****** ****** ******
      ****** ****** ****** ****** ****** ****** ****** ****** ****** ******
      ****** ****** ****** ****** ****** ****** ****** ****** ****** ******
  24  ****** ****** ****** ****** ****** ****** ****** ****** ****** ******
      ****** ****** ****** ****** ****** ****** ****** ****** ****** ******
      ****** ****** ****** ****** ****** ****** ****** ****** ****** ******
  25  ****** ****** ****** ****** ****** ****** ****** ****** ****** ******
      ****** ****** ****** ****** ****** ****** ****** ****** ****** ******
      ****** ****** ****** ****** ****** ****** ****** ****** ****** ******

 HEAD WILL BE SAVED ON UNIT   51 AT END OF TIME STEP    1, STRESS PERIOD    8
1
  VOLUMETRIC BUDGET FOR ENTIRE MODEL AT END OF TIME STEP    1, STRESS PERIOD   8
  ------------------------------------------------------------------------------

     CUMULATIVE VOLUMES      L**3       RATES FOR THIS TIME STEP      L**3/T
     ------------------                 ------------------------

           IN:                                      IN:
           ---                                      ---
             STORAGE =    34572409.9278               STORAGE =        1883.8617
       CONSTANT HEAD =    20094730.1017         CONSTANT HEAD =       34700.4663
               WELLS =           0.0000                 WELLS =           0.0000
            RECHARGE =    17608800.0000              RECHARGE =       27600.0000
      STREAM LEAKAGE =     5050489.3848        STREAM LEAKAGE =        7886.9119

            TOTAL IN =    77326429.4143              TOTAL IN =       72071.2400

          OUT:                                     OUT:
          ----                                     ----
             STORAGE =      847137.6802               STORAGE =        1476.1553
       CONSTANT HEAD =           0.0000         CONSTANT HEAD =           0.0000
               WELLS =    21521494.5215                 WELLS =       29481.4993
            RECHARGE =           0.0000              RECHARGE =           0.0000
      STREAM LEAKAGE =    54957799.0711        STREAM LEAKAGE =       41113.5776

           TOTAL OUT =    77326431.2728             TOTAL OUT =       72071.2323

            IN - OUT =          -1.8585              IN - OUT =       7.6619E-03

 PERCENT DISCREPANCY =          -0.00     PERCENT DISCREPANCY =           0.00






         TIME SUMMARY AT END OF TIME STEP    1 IN STRESS PERIOD    8
                    SECONDS     MINUTES      HOURS       DAYS        YEARS
                    -----------------------------------------------------------
   TIME STEP LENGTH 7.86240E+06 1.31040E+05  2184.0      91.000     0.24914    
 STRESS PERIOD TIME 7.86240E+06 1.31040E+05  2184.0      91.000     0.24914    
         TOTAL TIME 6.30720E+07 1.05120E+06  17520.      730.00      1.9986    
1
1
                            STRESS PERIOD NO.    9, LENGTH =   92.00000    
                            -----------------------------------------------

                              NUMBER OF TIME STEPS =     1

                               MULTIPLIER FOR DELT =     1.500

                            INITIAL TIME STEP SIZE =   92.00000    

 WELL NO.  LAYER   ROW   COL   STRESS RATE         
 --------------------------------------------------
      1      1      5     13      -7278.    
      2      1      9     16      -9144.    
      3      1     16     19      -5032.    
      4      1     18     19      -8028.    

      4 WELLS

                 RECHARGE =  5.000000E-04

 REUSING STREAM SEGMENT DATA FROM LAST STRESS PERIOD
 
 SOLVING FOR HEAD 


     6 CALLS TO PCG ROUTINE FOR TIME STEP   1 IN STRESS PERIOD    9
    23 TOTAL ITERATIONS

 OUTPUT CONTROL FOR STRESS PERIOD    9   TIME STEP    1
    SAVE BUDGET
    SAVE HEAD FOR ALL LAYERS
    PRINT HEAD FOR ALL LAYERS
 UBDSV2 SAVING "STREAMFLOW OUT  " ON UNIT  50 AT TIME STEP  1, STRESS PERIOD   9



 STREAM LISTING     PERIOD      9   STEP        1

 LAYER ROW COL. STREAM  RCH.  FLOW INTO     FLOW TO   FLOW OUT OF   OVRLND.     DIRECT     STREAM       STREAM     STREAM     STREAM   STREAMBED  STREAMBED
                SEG.NO.  NO.  STRM. RCH.    AQUIFER    STRM. RCH.    RUNOFF     PRECIP       ET          HEAD       DEPTH      WIDTH   CONDCTNC.   GRADIENT

   1   13    1     1     1    1.0000E+05 -1.3210E+03   1.0132E+05  0.000E+00  0.000E+00  0.000E+00  4.84066E+01  1.452E-01  2.000E+01  2.000E+04 -6.605E-02
   1   13    2     1     2    1.0132E+05 -2.2297E+03   1.0355E+05  0.000E+00  0.000E+00  0.000E+00  4.79308E+01  1.468E-01  2.000E+01  2.000E+04 -1.115E-01
   1   14    3     1     3    1.0355E+05 -3.6717E+02   1.0392E+05  0.000E+00  0.000E+00  0.000E+00  4.74547E+01  1.479E-01  2.000E+01  2.000E+04 -1.836E-02
   1   15    4     1     4    1.0392E+05 -3.4451E+02   1.0426E+05  0.000E+00  0.000E+00  0.000E+00  4.69777E+01  1.482E-01  2.000E+01  2.000E+04 -1.723E-02
   1   16    5     1     5    1.0426E+05 -1.3708E+03   1.0563E+05  0.000E+00  0.000E+00  0.000E+00  4.65012E+01  1.489E-01  2.000E+01  2.000E+04 -6.854E-02
   1   16    6     1     6    1.0563E+05 -8.5881E+02   1.0649E+05  0.000E+00  0.000E+00  0.000E+00  4.60249E+01  1.499E-01  2.000E+01  2.000E+04 -4.294E-02
   1   16    7     1     7    1.0649E+05 -8.3005E+02   1.0732E+05  0.000E+00  0.000E+00  0.000E+00  4.55483E+01  1.506E-01  2.000E+01  2.000E+04 -4.150E-02
   1   16    8     1     8    1.0732E+05 -8.0644E+02   1.0813E+05  0.000E+00  0.000E+00  0.000E+00  4.50717E+01  1.513E-01  2.000E+01  2.000E+04 -4.032E-02
   1   16    9     1     9    1.0813E+05 -7.7057E+02   1.0890E+05  0.000E+00  0.000E+00  0.000E+00  4.45951E+01  1.519E-01  2.000E+01  2.000E+04 -3.853E-02
   1   16   10     1    10    1.0890E+05 -7.1747E+02   1.0962E+05  0.000E+00  0.000E+00  0.000E+00  4.41185E+01  1.525E-01  2.000E+01  2.000E+04 -3.587E-02
   1   16   11     1    11    1.0962E+05 -6.4475E+02   1.1026E+05  0.000E+00  0.000E+00  0.000E+00  4.36418E+01  1.531E-01  2.000E+01  2.000E+04 -3.224E-02
   1   16   12     1    12    1.1026E+05 -7.5157E+02   1.1101E+05  0.000E+00  0.000E+00  0.000E+00  4.31651E+01  1.537E-01  2.000E+01  2.000E+04 -3.758E-02
   1   15   13     1    13    1.1101E+05 -3.4310E+02   1.1136E+05  0.000E+00  0.000E+00  0.000E+00  4.26882E+01  1.542E-01  2.000E+01  2.000E+04 -1.715E-02
   1   14   14     1    14    1.1136E+05 -2.4501E+02   1.1160E+05  0.000E+00  0.000E+00  0.000E+00  4.22112E+01  1.544E-01  2.000E+01  2.000E+04 -1.225E-02
   1   13   15     1    15    1.1160E+05 -1.4686E+02   1.1175E+05  0.000E+00  0.000E+00  0.000E+00  4.17341E+01  1.546E-01  2.000E+01  2.000E+04 -7.343E-03
   1   12   16     1    16    1.1175E+05  2.2865E+01   1.1172E+05  0.000E+00  0.000E+00  0.000E+00  4.12569E+01  1.546E-01  2.000E+01  2.000E+04  1.143E-03
   1   12   17     1    17    1.1172E+05  6.4419E+01   1.1166E+05  0.000E+00  0.000E+00  0.000E+00  4.07796E+01  1.546E-01  2.000E+01  2.000E+04  3.221E-03
   1   12   18     1    18    1.1166E+05 -1.2151E+02   1.1178E+05  0.000E+00  0.000E+00  0.000E+00  4.03023E+01  1.546E-01  2.000E+01  2.000E+04 -6.075E-03
   1   12   19     1    19    1.1178E+05 -7.2143E+02   1.1250E+05  0.000E+00  0.000E+00  0.000E+00  3.98254E+01  1.549E-01  2.000E+01  2.000E+04 -3.607E-02
   1   13   20     1    20    1.1250E+05 -8.4163E+01   1.1259E+05  0.000E+00  0.000E+00  0.000E+00  3.93485E+01  1.553E-01  2.000E+01  2.000E+04 -4.208E-03
   1   14   21     1    21    1.1259E+05  6.4067E+02   1.1195E+05  0.000E+00  0.000E+00  0.000E+00  3.88710E+01  1.551E-01  2.000E+01  2.000E+04  3.203E-02
   1   14   22     1    22    1.1195E+05  5.1789E+03   1.0677E+05  0.000E+00  0.000E+00  0.000E+00  3.83913E+01  1.526E-01  2.000E+01  2.000E+04  2.589E-01
   1    9   30     2     1    5.0000E+04 -4.6095E+02   5.0461E+04  0.000E+00  0.000E+00  0.000E+00  4.02412E+01  1.162E-01  2.000E+01  2.000E+04 -2.305E-02
   1    9   29     2     2    5.0461E+04 -7.4709E+02   5.1208E+04  0.000E+00  0.000E+00  0.000E+00  3.99920E+01  1.170E-01  2.000E+01  2.000E+04 -3.735E-02
   1    9   28     2     3    5.1208E+04 -9.6646E+02   5.2175E+04  0.000E+00  0.000E+00  0.000E+00  3.97432E+01  1.182E-01  2.000E+01  2.000E+04 -4.832E-02
   1    9   27     2     4    5.2175E+04 -1.9731E+03   5.4148E+04  0.000E+00  0.000E+00  0.000E+00  3.94952E+01  1.202E-01  2.000E+01  2.000E+04 -9.866E-02
   1   10   26     2     5    5.4148E+04 -1.2025E+03   5.5350E+04  0.000E+00  0.000E+00  0.000E+00  3.92473E+01  1.223E-01  2.000E+01  2.000E+04 -6.013E-02
   1   11   25     2     6    5.5350E+04 -9.9474E+02   5.6345E+04  0.000E+00  0.000E+00  0.000E+00  3.89988E+01  1.238E-01  2.000E+01  2.000E+04 -4.974E-02
   1   12   24     2     7    5.6345E+04 -1.0440E+03   5.7389E+04  0.000E+00  0.000E+00  0.000E+00  3.87502E+01  1.252E-01  2.000E+01  2.000E+04 -5.220E-02
   1   13   23     2     8    5.7389E+04 -1.5802E+02   5.7547E+04  0.000E+00  0.000E+00  0.000E+00  3.85010E+01  1.260E-01  2.000E+01  2.000E+04 -7.901E-03
   1   14   22     2     9    5.7547E+04  2.3439E+03   5.5203E+04  0.000E+00  0.000E+00  0.000E+00  3.82495E+01  1.245E-01  2.000E+01  2.000E+04  1.172E-01
   1   14   22     3     1    1.6197E+05 -8.2802E+03   1.7025E+05  0.000E+00  0.000E+00  0.000E+00  3.77183E+01  1.628E-01  2.000E+01  2.000E+04 -4.140E-01
   1   15   23     3     2    1.7025E+05 -1.7386E+02   1.7043E+05  0.000E+00  0.000E+00  0.000E+00  3.68319E+01  1.652E-01  2.000E+01  2.000E+04 -8.693E-03
   1   15   24     3     3    1.7043E+05 -1.6431E+02   1.7059E+05  0.000E+00  0.000E+00  0.000E+00  3.59431E+01  1.653E-01  2.000E+01  2.000E+04 -8.216E-03
   1   15   25     3     4    1.7059E+05 -1.8759E+02   1.7078E+05  0.000E+00  0.000E+00  0.000E+00  3.50543E+01  1.654E-01  2.000E+01  2.000E+04 -9.380E-03
   1   15   26     3     5    1.7078E+05 -2.6276E+02   1.7104E+05  0.000E+00  0.000E+00  0.000E+00  3.41656E+01  1.656E-01  2.000E+01  2.000E+04 -1.314E-02
   1   16   27     3     6    1.7104E+05 -2.6824E+02   1.7131E+05  0.000E+00  0.000E+00  0.000E+00  3.32768E+01  1.657E-01  2.000E+01  2.000E+04 -1.341E-02
   1   17   28     3     7    1.7131E+05 -1.2469E+03   1.7255E+05  0.000E+00  0.000E+00  0.000E+00  3.23884E+01  1.662E-01  2.000E+01  2.000E+04 -6.235E-02
   1   18   29     3     8    1.7255E+05 -2.3751E+03   1.7493E+05  0.000E+00  0.000E+00  0.000E+00  3.15005E+01  1.672E-01  2.000E+01  2.000E+04 -1.188E-01
   1   18   30     3     9    1.7493E+05 -2.8409E+03   1.7777E+05  0.000E+00  0.000E+00  0.000E+00  3.06131E+01  1.687E-01  2.000E+01  2.000E+04 -1.420E-01



1
              HEAD IN LAYER   1 AT END OF TIME STEP   1 IN STRESS PERIOD    9
  ---------------------------------------------------------------------------

          1      2      3      4      5      6      7      8      9     10
         11     12     13     14     15     16     17     18     19     20
         21     22     23     24     25     26     27     28     29     30
 .........................................................................
   1  ****** ****** ****** ****** ****** ****** ****** ****** ****** ******
      ****** ****** ****** ****** ****** ****** ****** ****** ****** ******
      ****** ****** ****** ****** ****** ****** ****** ****** ****** ******
   2  ****** ****** ****** ****** ****** ****** ****** ****** ****** ******
      ****** ****** ****** ****** ****** ****** ****** ****** ****** ******
      ****** ****** ****** ****** ****** ****** ****** ****** ****** ******
   3  ****** ****** ****** ****** ****** ****** ****** ****** ****** ******
      ****** ****** ****** ****** ****** ****** ****** ****** ****** ******
      ****** ****** ****** ****** ****** ****** ****** ****** ****** ******
   4  ****** ****** ****** ****** ****** ****** ****** ****** ****** ******
      ****** ****** ****** ****** ****** ****** ****** ****** ****** ******
      ****** ****** ****** ****** ****** ****** ****** ****** ****** ******
   5  ****** ****** ****** ****** ****** ****** ****** ****** ****** ******
      ****** ****** ****** ****** ****** ****** ****** ****** ****** ******
      ****** ****** ****** ****** ****** ****** ****** ****** ****** ******
   6  ****** ****** ****** ****** ****** ****** ****** ****** ****** ******
      ****** ****** ****** ****** ****** ****** ****** ****** ****** ******
      ****** ****** ****** ****** ****** ****** ****** ****** ****** ******
   7  ****** ****** ****** ****** ****** ****** ****** ****** ****** ******
      ****** ****** ****** ****** ****** ****** ****** ****** ****** ******
      ****** ****** ****** ****** ****** ****** ****** ****** ****** ******
   8  ****** ****** ****** ****** ****** ****** ****** ****** ****** ******
      ****** ****** ****** ****** ****** ****** ****** ****** ****** ******
      ****** ****** ****** ****** ****** ****** ****** ****** ****** ******
   9  ****** ****** ****** ****** ****** ****** ****** ****** ****** ******
      ****** ****** ****** ****** ****** ****** ****** ****** ****** ******
      ****** ****** ****** ****** ****** ****** ****** ****** ****** ******
  10  ****** ****** ****** ****** ****** ****** ****** ****** ****** ******
      ****** ****** ****** ****** ****** ****** ****** ****** ****** ******
      ****** ****** ****** ****** ****** ****** ****** ****** ****** ******
  11  ****** ****** ****** ****** ****** ****** ****** ****** ****** ******
      ****** ****** ****** ****** ****** ****** ****** ****** ****** ******
      ****** ****** ****** ****** ****** ****** ****** ****** ****** ******
  12  ****** ****** ****** ****** ****** ****** ****** ****** ****** ******
      ****** ****** ****** ****** ****** ****** ****** ****** ****** ******
      ****** ****** ****** ****** ****** ****** ****** ****** ****** ******
  13  ****** ****** ****** ****** ****** ****** ****** ****** ****** ******
      ****** ****** ****** ****** ****** ****** ****** ****** ****** ******
      ****** ****** ****** ****** ****** ****** ****** ****** ****** ******
  14  ****** ****** ****** ****** ****** ****** ****** ****** ****** ******
      ****** ****** ****** ****** ****** ****** ****** ****** ****** ******
      ****** ****** ****** ****** ****** ****** ****** ****** ****** ******
  15  ****** ****** ****** ****** ****** ****** ****** ****** ****** ******
      ****** ****** ****** ****** ****** ****** ****** ****** ****** ******
      ****** ****** ****** ****** ****** ****** ****** ****** ****** ******
  16  ****** ****** ****** ****** ****** ****** ****** ****** ****** ******
      ****** ****** ****** ****** ****** ****** ****** ****** ****** ******
      ****** ****** ****** ****** ****** ****** ****** ****** ****** ******
  17  ****** ****** ****** ****** ****** ****** ****** ****** ****** ******
      ****** ****** ****** ****** ****** ****** ****** ****** ****** ******
      ****** ****** ****** ****** ****** ****** ****** ****** ****** ******
  18  ****** ****** ****** ****** ****** ****** ****** ****** ****** ******
      ****** ****** ****** ****** ****** ****** ****** ****** ****** ******
      ****** ****** ****** ****** ****** ****** ****** ****** ****** ******
  19  ****** ****** ****** ****** ****** ****** ****** ****** ****** ******
      ****** ****** ****** ****** ****** ****** ****** ****** ****** ******
      ****** ****** ****** ****** ****** ****** ****** ****** ****** ******
  20  ****** ****** ****** ****** ****** ****** ****** ****** ****** ******
      ****** ****** ****** ****** ****** ****** ****** ****** ****** ******
      ****** ****** ****** ****** ****** ****** ****** ****** ****** ******
  21  ****** ****** ****** ****** ****** ****** ****** ****** ****** ******
      ****** ****** ****** ****** ****** ****** ****** ****** ****** ******
      ****** ****** ****** ****** ****** ****** ****** ****** ****** ******
  22  ****** ****** ****** ****** ****** ****** ****** ****** ****** ******
      ****** ****** ****** ****** ****** ****** ****** ****** ****** ******
      ****** ****** ****** ****** ****** ****** ****** ****** ****** ******
  23  ****** ****** ****** ****** ****** ****** ****** ****** ****** ******
      ****** ****** ****** ****** ****** ****** ****** ****** ****** ******
      ****** ****** ****** ****** ****** ****** ****** ****** ****** ******
  24  ****** ****** ****** ****** ****** ****** ****** ****** ****** ******
      ****** ****** ****** ****** ****** ****** ****** ****** ****** ******
      ****** ****** ****** ****** ****** ****** ****** ****** ****** ******
  25  ****** ****** ****** ****** ****** ****** ****** ****** ****** ******
      ****** ****** ****** ****** ****** ****** ****** ****** ****** ******
      ****** ****** ****** ****** ****** ****** ****** ****** ****** ******

 HEAD WILL BE SAVED ON UNIT   51 AT END OF TIME STEP    1, STRESS PERIOD    9
1
  VOLUMETRIC BUDGET FOR ENTIRE MODEL AT END OF TIME STEP    1, STRESS PERIOD   9
  ------------------------------------------------------------------------------

     CUMULATIVE VOLUMES      L**3       RATES FOR THIS TIME STEP      L**3/T
     ------------------                 ------------------------

           IN:                                      IN:
           ---                                      ---
             STORAGE =    35266532.7809               STORAGE =        7544.8136
       CONSTANT HEAD =    23398236.3137         CONSTANT HEAD =       35907.6762
               WELLS =           0.0000                 WELLS =           0.0000
            RECHARGE =    18878400.0000              RECHARGE =       13800.0000
      STREAM LEAKAGE =     5809556.4024        STREAM LEAKAGE =        8250.7285

            TOTAL IN =    83352725.4969              TOTAL IN =       65503.2183

          OUT:                                     OUT:
          ----                                     ----
             STORAGE =      847137.6802               STORAGE =           0.0000
       CONSTANT HEAD =           0.0000         CONSTANT HEAD =           0.0000
               WELLS =    24233792.4612                 WELLS =       29481.4993
            RECHARGE =           0.0000              RECHARGE =           0.0000
      STREAM LEAKAGE =    58271797.2875        STREAM LEAKAGE =       36021.7197

           TOTAL OUT =    83352727.4289             TOTAL OUT =       65503.2191

            IN - OUT =          -1.9320              IN - OUT =      -7.9859E-04

 PERCENT DISCREPANCY =          -0.00     PERCENT DISCREPANCY =          -0.00






         TIME SUMMARY AT END OF TIME STEP    1 IN STRESS PERIOD    9
                    SECONDS     MINUTES      HOURS       DAYS        YEARS
                    -----------------------------------------------------------
   TIME STEP LENGTH 7.94880E+06 1.32480E+05  2208.0      92.000     0.25188    
 STRESS PERIOD TIME 7.94880E+06 1.32480E+05  2208.0      92.000     0.25188    
         TOTAL TIME 7.10208E+07 1.18368E+06  19728.      822.00      2.2505    
1
1
                            STRESS PERIOD NO.   10, LENGTH =   91.00000    
                            -----------------------------------------------

                              NUMBER OF TIME STEPS =     1

                               MULTIPLIER FOR DELT =     1.500

                            INITIAL TIME STEP SIZE =   91.00000    

 WELL NO.  LAYER   ROW   COL   STRESS RATE         
 --------------------------------------------------
      1      1      5     13      -7278.    
      2      1      9     16      -9144.    
      3      1     16     19      -5032.    
      4      1     18     19      -8028.    

      4 WELLS

                 RECHARGE =  2.000000E-03

 REUSING STREAM SEGMENT DATA FROM LAST STRESS PERIOD
 
 SOLVING FOR HEAD 


     7 CALLS TO PCG ROUTINE FOR TIME STEP   1 IN STRESS PERIOD   10
    26 TOTAL ITERATIONS

 OUTPUT CONTROL FOR STRESS PERIOD   10   TIME STEP    1
    SAVE BUDGET
    SAVE HEAD FOR ALL LAYERS
    PRINT HEAD FOR ALL LAYERS
 UBDSV2 SAVING "STREAMFLOW OUT  " ON UNIT  50 AT TIME STEP  1, STRESS PERIOD  10



 STREAM LISTING     PERIOD     10   STEP        1

 LAYER ROW COL. STREAM  RCH.  FLOW INTO     FLOW TO   FLOW OUT OF   OVRLND.     DIRECT     STREAM       STREAM     STREAM     STREAM   STREAMBED  STREAMBED
                SEG.NO.  NO.  STRM. RCH.    AQUIFER    STRM. RCH.    RUNOFF     PRECIP       ET          HEAD       DEPTH      WIDTH   CONDCTNC.   GRADIENT

   1   13    1     1     1    1.0000E+05 -1.7657E+03   1.0177E+05  0.000E+00  0.000E+00  0.000E+00  4.84068E+01  1.454E-01  2.000E+01  2.000E+04 -8.829E-02
   1   13    2     1     2    1.0177E+05 -2.7220E+03   1.0449E+05  0.000E+00  0.000E+00  0.000E+00  4.79314E+01  1.473E-01  2.000E+01  2.000E+04 -1.361E-01
   1   14    3     1     3    1.0449E+05 -5.5230E+02   1.0504E+05  0.000E+00  0.000E+00  0.000E+00  4.74556E+01  1.487E-01  2.000E+01  2.000E+04 -2.761E-02
   1   15    4     1     4    1.0504E+05 -5.4281E+02   1.0558E+05  0.000E+00  0.000E+00  0.000E+00  4.69788E+01  1.492E-01  2.000E+01  2.000E+04 -2.714E-02
   1   16    5     1     5    1.0558E+05 -1.9888E+03   1.0757E+05  0.000E+00  0.000E+00  0.000E+00  4.65026E+01  1.503E-01  2.000E+01  2.000E+04 -9.944E-02
   1   16    6     1     6    1.0757E+05 -1.2199E+03   1.0879E+05  0.000E+00  0.000E+00  0.000E+00  4.60266E+01  1.516E-01  2.000E+01  2.000E+04 -6.100E-02
   1   16    7     1     7    1.0879E+05 -1.1733E+03   1.0996E+05  0.000E+00  0.000E+00  0.000E+00  4.55504E+01  1.526E-01  2.000E+01  2.000E+04 -5.866E-02
   1   16    8     1     8    1.0996E+05 -1.1442E+03   1.1111E+05  0.000E+00  0.000E+00  0.000E+00  4.50741E+01  1.536E-01  2.000E+01  2.000E+04 -5.721E-02
   1   16    9     1     9    1.1111E+05 -1.1069E+03   1.1222E+05  0.000E+00  0.000E+00  0.000E+00  4.45977E+01  1.545E-01  2.000E+01  2.000E+04 -5.535E-02
   1   16   10     1    10    1.1222E+05 -1.0542E+03   1.1327E+05  0.000E+00  0.000E+00  0.000E+00  4.41214E+01  1.554E-01  2.000E+01  2.000E+04 -5.271E-02
   1   16   11     1    11    1.1327E+05 -9.8516E+02   1.1426E+05  0.000E+00  0.000E+00  0.000E+00  4.36449E+01  1.563E-01  2.000E+01  2.000E+04 -4.926E-02
   1   16   12     1    12    1.1426E+05 -1.3194E+03   1.1557E+05  0.000E+00  0.000E+00  0.000E+00  4.31686E+01  1.572E-01  2.000E+01  2.000E+04 -6.597E-02
   1   15   13     1    13    1.1557E+05 -9.2632E+02   1.1650E+05  0.000E+00  0.000E+00  0.000E+00  4.26922E+01  1.582E-01  2.000E+01  2.000E+04 -4.632E-02
   1   14   14     1    14    1.1650E+05 -8.3433E+02   1.1734E+05  0.000E+00  0.000E+00  0.000E+00  4.22157E+01  1.589E-01  2.000E+01  2.000E+04 -4.172E-02
   1   13   15     1    15    1.1734E+05 -7.2530E+02   1.1806E+05  0.000E+00  0.000E+00  0.000E+00  4.17391E+01  1.595E-01  2.000E+01  2.000E+04 -3.627E-02
   1   12   16     1    16    1.1806E+05 -5.3258E+02   1.1859E+05  0.000E+00  0.000E+00  0.000E+00  4.12623E+01  1.600E-01  2.000E+01  2.000E+04 -2.663E-02
   1   12   17     1    17    1.1859E+05 -3.5779E+02   1.1895E+05  0.000E+00  0.000E+00  0.000E+00  4.07854E+01  1.604E-01  2.000E+01  2.000E+04 -1.789E-02
   1   12   18     1    18    1.1895E+05 -5.4012E+02   1.1949E+05  0.000E+00  0.000E+00  0.000E+00  4.03085E+01  1.607E-01  2.000E+01  2.000E+04 -2.701E-02
   1   12   19     1    19    1.1949E+05 -1.2368E+03   1.2073E+05  0.000E+00  0.000E+00  0.000E+00  3.98319E+01  1.615E-01  2.000E+01  2.000E+04 -6.184E-02
   1   13   20     1    20    1.2073E+05 -6.0384E+02   1.2133E+05  0.000E+00  0.000E+00  0.000E+00  3.93554E+01  1.622E-01  2.000E+01  2.000E+04 -3.019E-02
   1   14   21     1    21    1.2133E+05  1.1676E+02   1.2121E+05  0.000E+00  0.000E+00  0.000E+00  3.88783E+01  1.624E-01  2.000E+01  2.000E+04  5.838E-03
   1   14   22     1    22    1.2121E+05  5.0545E+03   1.1616E+05  0.000E+00  0.000E+00  0.000E+00  3.83989E+01  1.603E-01  2.000E+01  2.000E+04  2.527E-01
   1    9   30     2     1    5.0000E+04 -8.7455E+02   5.0875E+04  0.000E+00  0.000E+00  0.000E+00  4.02415E+01  1.165E-01  2.000E+01  2.000E+04 -4.373E-02
   1    9   29     2     2    5.0875E+04 -1.1583E+03   5.2033E+04  0.000E+00  0.000E+00  0.000E+00  3.99929E+01  1.179E-01  2.000E+01  2.000E+04 -5.792E-02
   1    9   28     2     3    5.2033E+04 -1.3768E+03   5.3410E+04  0.000E+00  0.000E+00  0.000E+00  3.97446E+01  1.196E-01  2.000E+01  2.000E+04 -6.884E-02
   1    9   27     2     4    5.3410E+04 -2.5243E+03   5.5934E+04  0.000E+00  0.000E+00  0.000E+00  3.94972E+01  1.222E-01  2.000E+01  2.000E+04 -1.262E-01
   1   10   26     2     5    5.5934E+04 -1.7539E+03   5.7688E+04  0.000E+00  0.000E+00  0.000E+00  3.92501E+01  1.251E-01  2.000E+01  2.000E+04 -8.770E-02
   1   11   25     2     6    5.7688E+04 -1.5217E+03   5.9209E+04  0.000E+00  0.000E+00  0.000E+00  3.90022E+01  1.272E-01  2.000E+01  2.000E+04 -7.608E-02
   1   12   24     2     7    5.9209E+04 -1.5208E+03   6.0730E+04  0.000E+00  0.000E+00  0.000E+00  3.87542E+01  1.292E-01  2.000E+01  2.000E+04 -7.604E-02
   1   13   23     2     8    6.0730E+04 -3.0651E+02   6.1037E+04  0.000E+00  0.000E+00  0.000E+00  3.85054E+01  1.304E-01  2.000E+01  2.000E+04 -1.533E-02
   1   14   22     2     9    6.1037E+04  2.1597E+03   5.8877E+04  0.000E+00  0.000E+00  0.000E+00  3.82542E+01  1.292E-01  2.000E+01  2.000E+04  1.080E-01
   1   14   22     3     1    1.7504E+05 -8.4062E+03   1.8344E+05  0.000E+00  0.000E+00  0.000E+00  3.77259E+01  1.704E-01  2.000E+01  2.000E+04 -4.203E-01
   1   15   23     3     2    1.8344E+05 -3.3624E+02   1.8378E+05  0.000E+00  0.000E+00  0.000E+00  3.68395E+01  1.728E-01  2.000E+01  2.000E+04 -1.681E-02
   1   15   24     3     3    1.8378E+05 -3.0140E+02   1.8408E+05  0.000E+00  0.000E+00  0.000E+00  3.59508E+01  1.730E-01  2.000E+01  2.000E+04 -1.507E-02
   1   15   25     3     4    1.8408E+05 -3.2810E+02   1.8441E+05  0.000E+00  0.000E+00  0.000E+00  3.50621E+01  1.732E-01  2.000E+01  2.000E+04 -1.640E-02
   1   15   26     3     5    1.8441E+05 -4.2495E+02   1.8483E+05  0.000E+00  0.000E+00  0.000E+00  3.41734E+01  1.734E-01  2.000E+01  2.000E+04 -2.125E-02
   1   16   27     3     6    1.8483E+05 -4.5401E+02   1.8529E+05  0.000E+00  0.000E+00  0.000E+00  3.32848E+01  1.737E-01  2.000E+01  2.000E+04 -2.270E-02
   1   17   28     3     7    1.8529E+05 -1.7672E+03   1.8706E+05  0.000E+00  0.000E+00  0.000E+00  3.23965E+01  1.743E-01  2.000E+01  2.000E+04 -8.836E-02
   1   18   29     3     8    1.8706E+05 -2.9259E+03   1.8998E+05  0.000E+00  0.000E+00  0.000E+00  3.15089E+01  1.756E-01  2.000E+01  2.000E+04 -1.463E-01
   1   18   30     3     9    1.8998E+05 -3.2659E+03   1.9325E+05  0.000E+00  0.000E+00  0.000E+00  3.06218E+01  1.773E-01  2.000E+01  2.000E+04 -1.633E-01



1
              HEAD IN LAYER   1 AT END OF TIME STEP   1 IN STRESS PERIOD   10
  ---------------------------------------------------------------------------

          1      2      3      4      5      6      7      8      9     10
         11     12     13     14     15     16     17     18     19     20
         21     22     23     24     25     26     27     28     29     30
 .........................................................................
   1  ****** ****** ****** ****** ****** ****** ****** ****** ****** ******
      ****** ****** ****** ****** ****** ****** ****** ****** ****** ******
      ****** ****** ****** ****** ****** ****** ****** ****** ****** ******
   2  ****** ****** ****** ****** ****** ****** ****** ****** ****** ******
      ****** ****** ****** ****** ****** ****** ****** ****** ****** ******
      ****** ****** ****** ****** ****** ****** ****** ****** ****** ******
   3  ****** ****** ****** ****** ****** ****** ****** ****** ****** ******
      ****** ****** ****** ****** ****** ****** ****** ****** ****** ******
      ****** ****** ****** ****** ****** ****** ****** ****** ****** ******
   4  ****** ****** ****** ****** ****** ****** ****** ****** ****** ******
      ****** ****** ****** ****** ****** ****** ****** ****** ****** ******
      ****** ****** ****** ****** ****** ****** ****** ****** ****** ******
   5  ****** ****** ****** ****** ****** ****** ****** ****** ****** ******
      ****** ****** ****** ****** ****** ****** ****** ****** ****** ******
      ****** ****** ****** ****** ****** ****** ****** ****** ****** ******
   6  ****** ****** ****** ****** ****** ****** ****** ****** ****** ******
      ****** ****** ****** ****** ****** ****** ****** ****** ****** ******
      ****** ****** ****** ****** ****** ****** ****** ****** ****** ******
   7  ****** ****** ****** ****** ****** ****** ****** ****** ****** ******
      ****** ****** ****** ****** ****** ****** ****** ****** ****** ******
      ****** ****** ****** ****** ****** ****** ****** ****** ****** ******
   8  ****** ****** ****** ****** ****** ****** ****** ****** ****** ******
      ****** ****** ****** ****** ****** ****** ****** ****** ****** ******
      ****** ****** ****** ****** ****** ****** ****** ****** ****** ******
   9  ****** ****** ****** ****** ****** ****** ****** ****** ****** ******
      ****** ****** ****** ****** ****** ****** ****** ****** ****** ******
      ****** ****** ****** ****** ****** ****** ****** ****** ****** ******
  10  ****** ****** ****** ****** ****** ****** ****** ****** ****** ******
      ****** ****** ****** ****** ****** ****** ****** ****** ****** ******
      ****** ****** ****** ****** ****** ****** ****** ****** ****** ******
  11  ****** ****** ****** ****** ****** ****** ****** ****** ****** ******
      ****** ****** ****** ****** ****** ****** ****** ****** ****** ******
      ****** ****** ****** ****** ****** ****** ****** ****** ****** ******
  12  ****** ****** ****** ****** ****** ****** ****** ****** ****** ******
      ****** ****** ****** ****** ****** ****** ****** ****** ****** ******
      ****** ****** ****** ****** ****** ****** ****** ****** ****** ******
  13  ****** ****** ****** ****** ****** ****** ****** ****** ****** ******
      ****** ****** ****** ****** ****** ****** ****** ****** ****** ******
      ****** ****** ****** ****** ****** ****** ****** ****** ****** ******
  14  ****** ****** ****** ****** ****** ****** ****** ****** ****** ******
      ****** ****** ****** ****** ****** ****** ****** ****** ****** ******
      ****** ****** ****** ****** ****** ****** ****** ****** ****** ******
  15  ****** ****** ****** ****** ****** ****** ****** ****** ****** ******
      ****** ****** ****** ****** ****** ****** ****** ****** ****** ******
      ****** ****** ****** ****** ****** ****** ****** ****** ****** ******
  16  ****** ****** ****** ****** ****** ****** ****** ****** ****** ******
      ****** ****** ****** ****** ****** ****** ****** ****** ****** ******
      ****** ****** ****** ****** ****** ****** ****** ****** ****** ******
  17  ****** ****** ****** ****** ****** ****** ****** ****** ****** ******
      ****** ****** ****** ****** ****** ****** ****** ****** ****** ******
      ****** ****** ****** ****** ****** ****** ****** ****** ****** ******
  18  ****** ****** ****** ****** ****** ****** ****** ****** ****** ******
      ****** ****** ****** ****** ****** ****** ****** ****** ****** ******
      ****** ****** ****** ****** ****** ****** ****** ****** ****** ******
  19  ****** ****** ****** ****** ****** ****** ****** ****** ****** ******
      ****** ****** ****** ****** ****** ****** ****** ****** ****** ******
      ****** ****** ****** ****** ****** ****** ****** ****** ****** ******
  20  ****** ****** ****** ****** ****** ****** ****** ****** ****** ******
      ****** ****** ****** ****** ****** ****** ****** ****** ****** ******
      ****** ****** ****** ****** ****** ****** ****** ****** ****** ******
  21  ****** ****** ****** ****** ****** ****** ****** ****** ****** ******
      ****** ****** ****** ****** ****** ****** ****** ****** ****** ******
      ****** ****** ****** ****** ****** ****** ****** ****** ****** ******
  22  ****** ****** ****** ****** ****** ****** ****** ****** ****** ******
      ****** ****** ****** ****** ****** ****** ****** ****** ****** ******
      ****** ****** ****** ****** ****** ****** ****** ****** ****** ******
  23  ****** ****** ****** ****** ****** ****** ****** ****** ****** ******
      ****** ****** ****** ****** ****** ****** ****** ****** ****** ******
      ****** ****** ****** ****** ****** ****** ****** ****** ****** ******
  24  ****** ****** ****** ****** ****** ****** ****** ****** ****** ******
      ****** ****** ****** ****** ****** ****** ****** ****** ****** ******
      ****** ****** ****** ****** ****** ****** ****** ****** ****** ******
  25  ****** ****** ****** ****** ****** ****** ****** ****** ****** ******
      ****** ****** ****** ****** ****** ****** ****** ****** ****** ******
      ****** ****** ****** ****** ****** ****** ****** ****** ****** ******

 HEAD WILL BE SAVED ON UNIT   51 AT END OF TIME STEP    1, STRESS PERIOD   10
1
  VOLUMETRIC BUDGET FOR ENTIRE MODEL AT END OF TIME STEP    1, STRESS PERIOD  10
  ------------------------------------------------------------------------------

     CUMULATIVE VOLUMES      L**3       RATES FOR THIS TIME STEP      L**3/T
     ------------------                 ------------------------

           IN:                                      IN:
           ---                                      ---
             STORAGE =    35266532.7809               STORAGE =           0.0000
       CONSTANT HEAD =    26399605.1280         CONSTANT HEAD =       32982.0749
               WELLS =           0.0000                 WELLS =           0.0000
            RECHARGE =    23901600.0000              RECHARGE =       55200.0000
      STREAM LEAKAGE =     6476673.7415        STREAM LEAKAGE =        7330.9598

            TOTAL IN =    92044411.6504              TOTAL IN =       95513.0347

          OUT:                                     OUT:
          ----                                     ----
             STORAGE =     2253374.9989               STORAGE =       15453.1573
       CONSTANT HEAD =           0.0000         CONSTANT HEAD =           0.0000
               WELLS =    26916608.9015                 WELLS =       29481.4993
            RECHARGE =           0.0000              RECHARGE =           0.0000
      STREAM LEAKAGE =    62874429.3348        STREAM LEAKAGE =       50578.3741

           TOTAL OUT =    92044413.2353             TOTAL OUT =       95513.0308

            IN - OUT =          -1.5849              IN - OUT =       3.8142E-03

 PERCENT DISCREPANCY =          -0.00     PERCENT DISCREPANCY =           0.00






         TIME SUMMARY AT END OF TIME STEP    1 IN STRESS PERIOD   10
                    SECONDS     MINUTES      HOURS       DAYS        YEARS
                    -----------------------------------------------------------
   TIME STEP LENGTH 7.86240E+06 1.31040E+05  2184.0      91.000     0.24914    
 STRESS PERIOD TIME 7.86240E+06 1.31040E+05  2184.0      91.000     0.24914    
         TOTAL TIME 7.88832E+07 1.31472E+06  21912.      913.00      2.4997    
1
1
                            STRESS PERIOD NO.   11, LENGTH =   91.00000    
                            -----------------------------------------------

                              NUMBER OF TIME STEPS =     1

                               MULTIPLIER FOR DELT =     1.500

                            INITIAL TIME STEP SIZE =   91.00000    

 WELL NO.  LAYER   ROW   COL   STRESS RATE         
 --------------------------------------------------
      1      1      5     13      -7278.    
      2      1      9     16      -9144.    
      3      1     16     19      -5032.    
      4      1     18     19      -8028.    

      4 WELLS

                 RECHARGE =   0.00000    

 REUSING STREAM SEGMENT DATA FROM LAST STRESS PERIOD
 
 SOLVING FOR HEAD 


     7 CALLS TO PCG ROUTINE FOR TIME STEP   1 IN STRESS PERIOD   11
    26 TOTAL ITERATIONS

 OUTPUT CONTROL FOR STRESS PERIOD   11   TIME STEP    1
    SAVE BUDGET
    SAVE HEAD FOR ALL LAYERS
    PRINT HEAD FOR ALL LAYERS
 UBDSV2 SAVING "STREAMFLOW OUT  " ON UNIT  50 AT TIME STEP  1, STRESS PERIOD  11



 STREAM LISTING     PERIOD     11   STEP        1

 LAYER ROW COL. STREAM  RCH.  FLOW INTO     FLOW TO   FLOW OUT OF   OVRLND.     DIRECT     STREAM       STREAM     STREAM     STREAM   STREAMBED  STREAMBED
                SEG.NO.  NO.  STRM. RCH.    AQUIFER    STRM. RCH.    RUNOFF     PRECIP       ET          HEAD       DEPTH      WIDTH   CONDCTNC.   GRADIENT

   1   13    1     1     1    1.0000E+05 -1.1923E+03   1.0119E+05  0.000E+00  0.000E+00  0.000E+00  4.84065E+01  1.452E-01  2.000E+01  2.000E+04 -5.962E-02
   1   13    2     1     2    1.0119E+05 -2.0831E+03   1.0328E+05  0.000E+00  0.000E+00  0.000E+00  4.79307E+01  1.466E-01  2.000E+01  2.000E+04 -1.042E-01
   1   14    3     1     3    1.0328E+05 -3.2037E+02   1.0360E+05  0.000E+00  0.000E+00  0.000E+00  4.74544E+01  1.476E-01  2.000E+01  2.000E+04 -1.602E-02
   1   15    4     1     4    1.0360E+05 -3.0007E+02   1.0390E+05  0.000E+00  0.000E+00  0.000E+00  4.69774E+01  1.479E-01  2.000E+01  2.000E+04 -1.500E-02
   1   16    5     1     5    1.0390E+05 -1.3003E+03   1.0520E+05  0.000E+00  0.000E+00  0.000E+00  4.65008E+01  1.486E-01  2.000E+01  2.000E+04 -6.502E-02
   1   16    6     1     6    1.0520E+05 -8.0483E+02   1.0600E+05  0.000E+00  0.000E+00  0.000E+00  4.60245E+01  1.495E-01  2.000E+01  2.000E+04 -4.024E-02
   1   16    7     1     7    1.0600E+05 -7.7568E+02   1.0678E+05  0.000E+00  0.000E+00  0.000E+00  4.55479E+01  1.501E-01  2.000E+01  2.000E+04 -3.878E-02
   1   16    8     1     8    1.0678E+05 -7.5216E+02   1.0753E+05  0.000E+00  0.000E+00  0.000E+00  4.50712E+01  1.508E-01  2.000E+01  2.000E+04 -3.761E-02
   1   16    9     1     9    1.0753E+05 -7.1719E+02   1.0825E+05  0.000E+00  0.000E+00  0.000E+00  4.45946E+01  1.514E-01  2.000E+01  2.000E+04 -3.586E-02
   1   16   10     1    10    1.0825E+05 -6.6568E+02   1.0891E+05  0.000E+00  0.000E+00  0.000E+00  4.41179E+01  1.520E-01  2.000E+01  2.000E+04 -3.328E-02
   1   16   11     1    11    1.0891E+05 -5.9504E+02   1.0951E+05  0.000E+00  0.000E+00  0.000E+00  4.36411E+01  1.525E-01  2.000E+01  2.000E+04 -2.975E-02
   1   16   12     1    12    1.0951E+05 -6.7265E+02   1.1018E+05  0.000E+00  0.000E+00  0.000E+00  4.31644E+01  1.530E-01  2.000E+01  2.000E+04 -3.363E-02
   1   15   13     1    13    1.1018E+05 -2.3557E+02   1.1042E+05  0.000E+00  0.000E+00  0.000E+00  4.26875E+01  1.534E-01  2.000E+01  2.000E+04 -1.178E-02
   1   14   14     1    14    1.1042E+05 -1.2504E+02   1.1054E+05  0.000E+00  0.000E+00  0.000E+00  4.22104E+01  1.536E-01  2.000E+01  2.000E+04 -6.252E-03
   1   13   15     1    15    1.1054E+05 -2.0979E+01   1.1056E+05  0.000E+00  0.000E+00  0.000E+00  4.17332E+01  1.536E-01  2.000E+01  2.000E+04 -1.049E-03
   1   12   16     1    16    1.1056E+05  1.4934E+02   1.1041E+05  0.000E+00  0.000E+00  0.000E+00  4.12558E+01  1.536E-01  2.000E+01  2.000E+04  7.467E-03
   1   12   17     1    17    1.1041E+05  1.5123E+02   1.1026E+05  0.000E+00  0.000E+00  0.000E+00  4.07784E+01  1.534E-01  2.000E+01  2.000E+04  7.562E-03
   1   12   18     1    18    1.1026E+05 -3.9210E+01   1.1030E+05  0.000E+00  0.000E+00  0.000E+00  4.03011E+01  1.534E-01  2.000E+01  2.000E+04 -1.960E-03
   1   12   19     1    19    1.1030E+05 -6.2205E+02   1.1092E+05  0.000E+00  0.000E+00  0.000E+00  3.98241E+01  1.537E-01  2.000E+01  2.000E+04 -3.110E-02
   1   13   20     1    20    1.1092E+05  9.4035E+00   1.1091E+05  0.000E+00  0.000E+00  0.000E+00  3.93471E+01  1.539E-01  2.000E+01  2.000E+04  4.702E-04
   1   14   21     1    21    1.1091E+05  7.1402E+02   1.1020E+05  0.000E+00  0.000E+00  0.000E+00  3.88695E+01  1.536E-01  2.000E+01  2.000E+04  3.570E-02
   1   14   22     1    22    1.1020E+05  5.1979E+03   1.0500E+05  0.000E+00  0.000E+00  0.000E+00  3.83898E+01  1.512E-01  2.000E+01  2.000E+04  2.599E-01
   1    9   30     2     1    5.0000E+04 -3.8611E+02   5.0386E+04  0.000E+00  0.000E+00  0.000E+00  4.02411E+01  1.161E-01  2.000E+01  2.000E+04 -1.931E-02
   1    9   29     2     2    5.0386E+04 -6.7291E+02   5.1059E+04  0.000E+00  0.000E+00  0.000E+00  3.99919E+01  1.169E-01  2.000E+01  2.000E+04 -3.365E-02
   1    9   28     2     3    5.1059E+04 -8.9341E+02   5.1952E+04  0.000E+00  0.000E+00  0.000E+00  3.97429E+01  1.179E-01  2.000E+01  2.000E+04 -4.467E-02
   1    9   27     2     4    5.1952E+04 -1.8833E+03   5.3836E+04  0.000E+00  0.000E+00  0.000E+00  3.94948E+01  1.198E-01  2.000E+01  2.000E+04 -9.417E-02
   1   10   26     2     5    5.3836E+04 -1.0987E+03   5.4934E+04  0.000E+00  0.000E+00  0.000E+00  3.92469E+01  1.219E-01  2.000E+01  2.000E+04 -5.494E-02
   1   11   25     2     6    5.4934E+04 -8.9033E+02   5.5825E+04  0.000E+00  0.000E+00  0.000E+00  3.89982E+01  1.232E-01  2.000E+01  2.000E+04 -4.452E-02
   1   12   24     2     7    5.5825E+04 -9.4641E+02   5.6771E+04  0.000E+00  0.000E+00  0.000E+00  3.87494E+01  1.244E-01  2.000E+01  2.000E+04 -4.732E-02
   1   13   23     2     8    5.6771E+04 -1.2045E+02   5.6892E+04  0.000E+00  0.000E+00  0.000E+00  3.85001E+01  1.251E-01  2.000E+01  2.000E+04 -6.023E-03
   1   14   22     2     9    5.6892E+04  2.3747E+03   5.4517E+04  0.000E+00  0.000E+00  0.000E+00  3.82486E+01  1.236E-01  2.000E+01  2.000E+04  1.187E-01
   1   14   22     3     1    1.5952E+05 -8.2606E+03   1.6778E+05  0.000E+00  0.000E+00  0.000E+00  3.77169E+01  1.613E-01  2.000E+01  2.000E+04 -4.130E-01
   1   15   23     3     2    1.6778E+05 -1.4414E+02   1.6792E+05  0.000E+00  0.000E+00  0.000E+00  3.68304E+01  1.638E-01  2.000E+01  2.000E+04 -7.207E-03
   1   15   24     3     3    1.6792E+05 -1.3624E+02   1.6806E+05  0.000E+00  0.000E+00  0.000E+00  3.59416E+01  1.639E-01  2.000E+01  2.000E+04 -6.812E-03
   1   15   25     3     4    1.6806E+05 -1.5911E+02   1.6822E+05  0.000E+00  0.000E+00  0.000E+00  3.50528E+01  1.639E-01  2.000E+01  2.000E+04 -7.955E-03
   1   15   26     3     5    1.6822E+05 -2.2924E+02   1.6845E+05  0.000E+00  0.000E+00  0.000E+00  3.41641E+01  1.641E-01  2.000E+01  2.000E+04 -1.146E-02
   1   16   27     3     6    1.6845E+05 -2.3097E+02   1.6868E+05  0.000E+00  0.000E+00  0.000E+00  3.32753E+01  1.642E-01  2.000E+01  2.000E+04 -1.155E-02
   1   17   28     3     7    1.6868E+05 -1.1574E+03   1.6984E+05  0.000E+00  0.000E+00  0.000E+00  3.23868E+01  1.646E-01  2.000E+01  2.000E+04 -5.787E-02
   1   18   29     3     8    1.6984E+05 -2.3037E+03   1.7214E+05  0.000E+00  0.000E+00  0.000E+00  3.14989E+01  1.656E-01  2.000E+01  2.000E+04 -1.152E-01
   1   18   30     3     9    1.7214E+05 -2.7765E+03   1.7492E+05  0.000E+00  0.000E+00  0.000E+00  3.06115E+01  1.671E-01  2.000E+01  2.000E+04 -1.388E-01



1
              HEAD IN LAYER   1 AT END OF TIME STEP   1 IN STRESS PERIOD   11
  ---------------------------------------------------------------------------

          1      2      3      4      5      6      7      8      9     10
         11     12     13     14     15     16     17     18     19     20
         21     22     23     24     25     26     27     28     29     30
 .........................................................................
   1  ****** ****** ****** ****** ****** ****** ****** ****** ****** ******
      ****** ****** ****** ****** ****** ****** ****** ****** ****** ******
      ****** ****** ****** ****** ****** ****** ****** ****** ****** ******
   2  ****** ****** ****** ****** ****** ****** ****** ****** ****** ******
      ****** ****** ****** ****** ****** ****** ****** ****** ****** ******
      ****** ****** ****** ****** ****** ****** ****** ****** ****** ******
   3  ****** ****** ****** ****** ****** ****** ****** ****** ****** ******
      ****** ****** ****** ****** ****** ****** ****** ****** ****** ******
      ****** ****** ****** ****** ****** ****** ****** ****** ****** ******
   4  ****** ****** ****** ****** ****** ****** ****** ****** ****** ******
      ****** ****** ****** ****** ****** ****** ****** ****** ****** ******
      ****** ****** ****** ****** ****** ****** ****** ****** ****** ******
   5  ****** ****** ****** ****** ****** ****** ****** ****** ****** ******
      ****** ****** ****** ****** ****** ****** ****** ****** ****** ******
      ****** ****** ****** ****** ****** ****** ****** ****** ****** ******
   6  ****** ****** ****** ****** ****** ****** ****** ****** ****** ******
      ****** ****** ****** ****** ****** ****** ****** ****** ****** ******
      ****** ****** ****** ****** ****** ****** ****** ****** ****** ******
   7  ****** ****** ****** ****** ****** ****** ****** ****** ****** ******
      ****** ****** ****** ****** ****** ****** ****** ****** ****** ******
      ****** ****** ****** ****** ****** ****** ****** ****** ****** ******
   8  ****** ****** ****** ****** ****** ****** ****** ****** ****** ******
      ****** ****** ****** ****** ****** ****** ****** ****** ****** ******
      ****** ****** ****** ****** ****** ****** ****** ****** ****** ******
   9  ****** ****** ****** ****** ****** ****** ****** ****** ****** ******
      ****** ****** ****** ****** ****** ****** ****** ****** ****** ******
      ****** ****** ****** ****** ****** ****** ****** ****** ****** ******
  10  ****** ****** ****** ****** ****** ****** ****** ****** ****** ******
      ****** ****** ****** ****** ****** ****** ****** ****** ****** ******
      ****** ****** ****** ****** ****** ****** ****** ****** ****** ******
  11  ****** ****** ****** ****** ****** ****** ****** ****** ****** ******
      ****** ****** ****** ****** ****** ****** ****** ****** ****** ******
      ****** ****** ****** ****** ****** ****** ****** ****** ****** ******
  12  ****** ****** ****** ****** ****** ****** ****** ****** ****** ******
      ****** ****** ****** ****** ****** ****** ****** ****** ****** ******
      ****** ****** ****** ****** ****** ****** ****** ****** ****** ******
  13  ****** ****** ****** ****** ****** ****** ****** ****** ****** ******
      ****** ****** ****** ****** ****** ****** ****** ****** ****** ******
      ****** ****** ****** ****** ****** ****** ****** ****** ****** ******
  14  ****** ****** ****** ****** ****** ****** ****** ****** ****** ******
      ****** ****** ****** ****** ****** ****** ****** ****** ****** ******
      ****** ****** ****** ****** ****** ****** ****** ****** ****** ******
  15  ****** ****** ****** ****** ****** ****** ****** ****** ****** ******
      ****** ****** ****** ****** ****** ****** ****** ****** ****** ******
      ****** ****** ****** ****** ****** ****** ****** ****** ****** ******
  16  ****** ****** ****** ****** ****** ****** ****** ****** ****** ******
      ****** ****** ****** ****** ****** ****** ****** ****** ****** ******
      ****** ****** ****** ****** ****** ****** ****** ****** ****** ******
  17  ****** ****** ****** ****** ****** ****** ****** ****** ****** ******
      ****** ****** ****** ****** ****** ****** ****** ****** ****** ******
      ****** ****** ****** ****** ****** ****** ****** ****** ****** ******
  18  ****** ****** ****** ****** ****** ****** ****** ****** ****** ******
      ****** ****** ****** ****** ****** ****** ****** ****** ****** ******
      ****** ****** ****** ****** ****** ****** ****** ****** ****** ******
  19  ****** ****** ****** ****** ****** ****** ****** ****** ****** ******
      ****** ****** ****** ****** ****** ****** ****** ****** ****** ******
      ****** ****** ****** ****** ****** ****** ****** ****** ****** ******
  20  ****** ****** ****** ****** ****** ****** ****** ****** ****** ******
      ****** ****** ****** ****** ****** ****** ****** ****** ****** ******
      ****** ****** ****** ****** ****** ****** ****** ****** ****** ******
  21  ****** ****** ****** ****** ****** ****** ****** ****** ****** ******
      ****** ****** ****** ****** ****** ****** ****** ****** ****** ******
      ****** ****** ****** ****** ****** ****** ****** ****** ****** ******
  22  ****** ****** ****** ****** ****** ****** ****** ****** ****** ******
      ****** ****** ****** ****** ****** ****** ****** ****** ****** ******
      ****** ****** ****** ****** ****** ****** ****** ****** ****** ******
  23  ****** ****** ****** ****** ****** ****** ****** ****** ****** ******
      ****** ****** ****** ****** ****** ****** ****** ****** ****** ******
      ****** ****** ****** ****** ****** ****** ****** ****** ****** ******
  24  ****** ****** ****** ****** ****** ****** ****** ****** ****** ******
      ****** ****** ****** ****** ****** ****** ****** ****** ****** ******
      ****** ****** ****** ****** ****** ****** ****** ****** ****** ******
  25  ****** ****** ****** ****** ****** ****** ****** ****** ****** ******
      ****** ****** ****** ****** ****** ****** ****** ****** ****** ******
      ****** ****** ****** ****** ****** ****** ****** ****** ****** ******

 HEAD WILL BE SAVED ON UNIT   51 AT END OF TIME STEP    1, STRESS PERIOD   11
1
  VOLUMETRIC BUDGET FOR ENTIRE MODEL AT END OF TIME STEP    1, STRESS PERIOD  11
  ------------------------------------------------------------------------------

     CUMULATIVE VOLUMES      L**3       RATES FOR THIS TIME STEP      L**3/T
     ------------------                 ------------------------

           IN:                                      IN:
           ---                                      ---
             STORAGE =    36914516.4368               STORAGE =       18109.7105
       CONSTANT HEAD =    29701729.4371         CONSTANT HEAD =       36287.0803
               WELLS =           0.0000                 WELLS =           0.0000
            RECHARGE =    23901600.0000              RECHARGE =           0.0000
      STREAM LEAKAGE =     7258966.5774        STREAM LEAKAGE =        8596.6246

            TOTAL IN =    97776812.4513              TOTAL IN =       62993.4154

          OUT:                                     OUT:
          ----                                     ----
             STORAGE =     2253374.9989               STORAGE =           0.0000
       CONSTANT HEAD =           0.0000         CONSTANT HEAD =           0.0000
               WELLS =    29599425.3419                 WELLS =       29481.4993
            RECHARGE =           0.0000              RECHARGE =           0.0000
      STREAM LEAKAGE =    65924014.1435        STREAM LEAKAGE =       33511.9210

           TOTAL OUT =    97776814.4843             TOTAL OUT =       62993.4203

            IN - OUT =          -2.0330              IN - OUT =      -4.9242E-03

 PERCENT DISCREPANCY =          -0.00     PERCENT DISCREPANCY =          -0.00






         TIME SUMMARY AT END OF TIME STEP    1 IN STRESS PERIOD   11
                    SECONDS     MINUTES      HOURS       DAYS        YEARS
                    -----------------------------------------------------------
   TIME STEP LENGTH 7.86240E+06 1.31040E+05  2184.0      91.000     0.24914    
 STRESS PERIOD TIME 7.86240E+06 1.31040E+05  2184.0      91.000     0.24914    
         TOTAL TIME 8.67456E+07 1.44576E+06  24096.      1004.0      2.7488    
1
1
                            STRESS PERIOD NO.   12, LENGTH =   91.00000    
                            -----------------------------------------------

                              NUMBER OF TIME STEPS =     1

                               MULTIPLIER FOR DELT =     1.500

                            INITIAL TIME STEP SIZE =   91.00000    

 WELL NO.  LAYER   ROW   COL   STRESS RATE         
 --------------------------------------------------
      1      1      5     13      -7278.    
      2      1      9     16      -9144.    
      3      1     16     19      -5032.    
      4      1     18     19      -8028.    

      4 WELLS

                 RECHARGE =  1.000000E-03

 REUSING STREAM SEGMENT DATA FROM LAST STRESS PERIOD
 
 SOLVING FOR HEAD 


     7 CALLS TO PCG ROUTINE FOR TIME STEP   1 IN STRESS PERIOD   12
    24 TOTAL ITERATIONS

 OUTPUT CONTROL FOR STRESS PERIOD   12   TIME STEP    1
    SAVE BUDGET
    SAVE HEAD FOR ALL LAYERS
    PRINT HEAD FOR ALL LAYERS
 UBDSV2 SAVING "STREAMFLOW OUT  " ON UNIT  50 AT TIME STEP  1, STRESS PERIOD  12



 STREAM LISTING     PERIOD     12   STEP        1

 LAYER ROW COL. STREAM  RCH.  FLOW INTO     FLOW TO   FLOW OUT OF   OVRLND.     DIRECT     STREAM       STREAM     STREAM     STREAM   STREAMBED  STREAMBED
                SEG.NO.  NO.  STRM. RCH.    AQUIFER    STRM. RCH.    RUNOFF     PRECIP       ET          HEAD       DEPTH      WIDTH   CONDCTNC.   GRADIENT

   1   13    1     1     1    1.0000E+05 -1.3325E+03   1.0133E+05  0.000E+00  0.000E+00  0.000E+00  4.84066E+01  1.452E-01  2.000E+01  2.000E+04 -6.662E-02
   1   13    2     1     2    1.0133E+05 -2.2333E+03   1.0357E+05  0.000E+00  0.000E+00  0.000E+00  4.79309E+01  1.468E-01  2.000E+01  2.000E+04 -1.117E-01
   1   14    3     1     3    1.0357E+05 -3.9815E+02   1.0396E+05  0.000E+00  0.000E+00  0.000E+00  4.74547E+01  1.479E-01  2.000E+01  2.000E+04 -1.991E-02
   1   15    4     1     4    1.0396E+05 -3.8181E+02   1.0435E+05  0.000E+00  0.000E+00  0.000E+00  4.69778E+01  1.482E-01  2.000E+01  2.000E+04 -1.909E-02
   1   16    5     1     5    1.0435E+05 -1.5096E+03   1.0586E+05  0.000E+00  0.000E+00  0.000E+00  4.65013E+01  1.490E-01  2.000E+01  2.000E+04 -7.548E-02
   1   16    6     1     6    1.0586E+05 -9.3469E+02   1.0679E+05  0.000E+00  0.000E+00  0.000E+00  4.60251E+01  1.501E-01  2.000E+01  2.000E+04 -4.673E-02
   1   16    7     1     7    1.0679E+05 -9.0042E+02   1.0769E+05  0.000E+00  0.000E+00  0.000E+00  4.55486E+01  1.508E-01  2.000E+01  2.000E+04 -4.502E-02
   1   16    8     1     8    1.0769E+05 -8.7586E+02   1.0857E+05  0.000E+00  0.000E+00  0.000E+00  4.50721E+01  1.516E-01  2.000E+01  2.000E+04 -4.379E-02
   1   16    9     1     9    1.0857E+05 -8.4138E+02   1.0941E+05  0.000E+00  0.000E+00  0.000E+00  4.45955E+01  1.523E-01  2.000E+01  2.000E+04 -4.207E-02
   1   16   10     1    10    1.0941E+05 -7.9131E+02   1.1020E+05  0.000E+00  0.000E+00  0.000E+00  4.41189E+01  1.530E-01  2.000E+01  2.000E+04 -3.957E-02
   1   16   11     1    11    1.1020E+05 -7.2303E+02   1.1092E+05  0.000E+00  0.000E+00  0.000E+00  4.36423E+01  1.536E-01  2.000E+01  2.000E+04 -3.615E-02
   1   16   12     1    12    1.1092E+05 -8.7362E+02   1.1180E+05  0.000E+00  0.000E+00  0.000E+00  4.31657E+01  1.543E-01  2.000E+01  2.000E+04 -4.368E-02
   1   15   13     1    13    1.1180E+05 -4.5096E+02   1.1225E+05  0.000E+00  0.000E+00  0.000E+00  4.26889E+01  1.548E-01  2.000E+01  2.000E+04 -2.255E-02
   1   14   14     1    14    1.1225E+05 -3.4046E+02   1.1259E+05  0.000E+00  0.000E+00  0.000E+00  4.22120E+01  1.552E-01  2.000E+01  2.000E+04 -1.702E-02
   1   13   15     1    15    1.1259E+05 -2.2866E+02   1.1282E+05  0.000E+00  0.000E+00  0.000E+00  4.17350E+01  1.554E-01  2.000E+01  2.000E+04 -1.143E-02
   1   12   16     1    16    1.1282E+05 -3.1118E+01   1.1285E+05  0.000E+00  0.000E+00  0.000E+00  4.12578E+01  1.555E-01  2.000E+01  2.000E+04 -1.556E-03
   1   12   17     1    17    1.1285E+05 -7.3062E-01   1.1285E+05  0.000E+00  0.000E+00  0.000E+00  4.07805E+01  1.555E-01  2.000E+01  2.000E+04 -3.653E-05
   1   12   18     1    18    1.1285E+05 -1.9361E+02   1.1304E+05  0.000E+00  0.000E+00  0.000E+00  4.03033E+01  1.556E-01  2.000E+01  2.000E+04 -9.681E-03
   1   12   19     1    19    1.1304E+05 -8.1308E+02   1.1385E+05  0.000E+00  0.000E+00  0.000E+00  3.98265E+01  1.560E-01  2.000E+01  2.000E+04 -4.065E-02
   1   13   20     1    20    1.1385E+05 -2.0030E+02   1.1405E+05  0.000E+00  0.000E+00  0.000E+00  3.93496E+01  1.564E-01  2.000E+01  2.000E+04 -1.002E-02
   1   14   21     1    21    1.1405E+05  5.2034E+02   1.1353E+05  0.000E+00  0.000E+00  0.000E+00  3.88722E+01  1.563E-01  2.000E+01  2.000E+04  2.602E-02
   1   14   22     1    22    1.1353E+05  5.1459E+03   1.0839E+05  0.000E+00  0.000E+00  0.000E+00  3.83926E+01  1.540E-01  2.000E+01  2.000E+04  2.573E-01
   1    9   30     2     1    5.0000E+04 -5.6225E+02   5.0562E+04  0.000E+00  0.000E+00  0.000E+00  4.02413E+01  1.163E-01  2.000E+01  2.000E+04 -2.811E-02
   1    9   29     2     2    5.0562E+04 -8.4698E+02   5.1409E+04  0.000E+00  0.000E+00  0.000E+00  3.99922E+01  1.172E-01  2.000E+01  2.000E+04 -4.235E-02
   1    9   28     2     3    5.1409E+04 -1.0639E+03   5.2473E+04  0.000E+00  0.000E+00  0.000E+00  3.97435E+01  1.185E-01  2.000E+01  2.000E+04 -5.319E-02
   1    9   27     2     4    5.2473E+04 -2.0917E+03   5.4565E+04  0.000E+00  0.000E+00  0.000E+00  3.94957E+01  1.207E-01  2.000E+01  2.000E+04 -1.046E-01
   1   10   26     2     5    5.4565E+04 -1.3278E+03   5.5893E+04  0.000E+00  0.000E+00  0.000E+00  3.92480E+01  1.230E-01  2.000E+01  2.000E+04 -6.639E-02
   1   11   25     2     6    5.5893E+04 -1.1156E+03   5.7008E+04  0.000E+00  0.000E+00  0.000E+00  3.89996E+01  1.246E-01  2.000E+01  2.000E+04 -5.578E-02
   1   12   24     2     7    5.7008E+04 -1.1520E+03   5.8160E+04  0.000E+00  0.000E+00  0.000E+00  3.87511E+01  1.261E-01  2.000E+01  2.000E+04 -5.760E-02
   1   13   23     2     8    5.8160E+04 -1.9799E+02   5.8358E+04  0.000E+00  0.000E+00  0.000E+00  3.85020E+01  1.270E-01  2.000E+01  2.000E+04 -9.900E-03
   1   14   22     2     9    5.8358E+04  2.3061E+03   5.6052E+04  0.000E+00  0.000E+00  0.000E+00  3.82506E+01  1.256E-01  2.000E+01  2.000E+04  1.153E-01
   1   14   22     3     1    1.6444E+05 -8.3108E+03   1.7275E+05  0.000E+00  0.000E+00  0.000E+00  3.77198E+01  1.642E-01  2.000E+01  2.000E+04 -4.155E-01
   1   15   23     3     2    1.7275E+05 -2.1613E+02   1.7297E+05  0.000E+00  0.000E+00  0.000E+00  3.68334E+01  1.667E-01  2.000E+01  2.000E+04 -1.081E-02
   1   15   24     3     3    1.7297E+05 -2.0130E+02   1.7317E+05  0.000E+00  0.000E+00  0.000E+00  3.59446E+01  1.668E-01  2.000E+01  2.000E+04 -1.007E-02
   1   15   25     3     4    1.7317E+05 -2.2545E+02   1.7339E+05  0.000E+00  0.000E+00  0.000E+00  3.50558E+01  1.669E-01  2.000E+01  2.000E+04 -1.127E-02
   1   15   26     3     5    1.7339E+05 -3.0671E+02   1.7370E+05  0.000E+00  0.000E+00  0.000E+00  3.41671E+01  1.671E-01  2.000E+01  2.000E+04 -1.534E-02
   1   16   27     3     6    1.7370E+05 -3.1773E+02   1.7402E+05  0.000E+00  0.000E+00  0.000E+00  3.32784E+01  1.673E-01  2.000E+01  2.000E+04 -1.589E-02
   1   17   28     3     7    1.7402E+05 -1.3781E+03   1.7540E+05  0.000E+00  0.000E+00  0.000E+00  3.23900E+01  1.678E-01  2.000E+01  2.000E+04 -6.890E-02
   1   18   29     3     8    1.7540E+05 -2.5042E+03   1.7790E+05  0.000E+00  0.000E+00  0.000E+00  3.15022E+01  1.689E-01  2.000E+01  2.000E+04 -1.252E-01
   1   18   30     3     9    1.7790E+05 -2.9446E+03   1.8085E+05  0.000E+00  0.000E+00  0.000E+00  3.06149E+01  1.704E-01  2.000E+01  2.000E+04 -1.472E-01



1
              HEAD IN LAYER   1 AT END OF TIME STEP   1 IN STRESS PERIOD   12
  ---------------------------------------------------------------------------

          1      2      3      4      5      6      7      8      9     10
         11     12     13     14     15     16     17     18     19     20
         21     22     23     24     25     26     27     28     29     30
 .........................................................................
   1  ****** ****** ****** ****** ****** ****** ****** ****** ****** ******
      ****** ****** ****** ****** ****** ****** ****** ****** ****** ******
      ****** ****** ****** ****** ****** ****** ****** ****** ****** ******
   2  ****** ****** ****** ****** ****** ****** ****** ****** ****** ******
      ****** ****** ****** ****** ****** ****** ****** ****** ****** ******
      ****** ****** ****** ****** ****** ****** ****** ****** ****** ******
   3  ****** ****** ****** ****** ****** ****** ****** ****** ****** ******
      ****** ****** ****** ****** ****** ****** ****** ****** ****** ******
      ****** ****** ****** ****** ****** ****** ****** ****** ****** ******
   4  ****** ****** ****** ****** ****** ****** ****** ****** ****** ******
      ****** ****** ****** ****** ****** ****** ****** ****** ****** ******
      ****** ****** ****** ****** ****** ****** ****** ****** ****** ******
   5  ****** ****** ****** ****** ****** ****** ****** ****** ****** ******
      ****** ****** ****** ****** ****** ****** ****** ****** ****** ******
      ****** ****** ****** ****** ****** ****** ****** ****** ****** ******
   6  ****** ****** ****** ****** ****** ****** ****** ****** ****** ******
      ****** ****** ****** ****** ****** ****** ****** ****** ****** ******
      ****** ****** ****** ****** ****** ****** ****** ****** ****** ******
   7  ****** ****** ****** ****** ****** ****** ****** ****** ****** ******
      ****** ****** ****** ****** ****** ****** ****** ****** ****** ******
      ****** ****** ****** ****** ****** ****** ****** ****** ****** ******
   8  ****** ****** ****** ****** ****** ****** ****** ****** ****** ******
      ****** ****** ****** ****** ****** ****** ****** ****** ****** ******
      ****** ****** ****** ****** ****** ****** ****** ****** ****** ******
   9  ****** ****** ****** ****** ****** ****** ****** ****** ****** ******
      ****** ****** ****** ****** ****** ****** ****** ****** ****** ******
      ****** ****** ****** ****** ****** ****** ****** ****** ****** ******
  10  ****** ****** ****** ****** ****** ****** ****** ****** ****** ******
      ****** ****** ****** ****** ****** ****** ****** ****** ****** ******
      ****** ****** ****** ****** ****** ****** ****** ****** ****** ******
  11  ****** ****** ****** ****** ****** ****** ****** ****** ****** ******
      ****** ****** ****** ****** ****** ****** ****** ****** ****** ******
      ****** ****** ****** ****** ****** ****** ****** ****** ****** ******
  12  ****** ****** ****** ****** ****** ****** ****** ****** ****** ******
      ****** ****** ****** ****** ****** ****** ****** ****** ****** ******
      ****** ****** ****** ****** ****** ****** ****** ****** ****** ******
  13  ****** ****** ****** ****** ****** ****** ****** ****** ****** ******
      ****** ****** ****** ****** ****** ****** ****** ****** ****** ******
      ****** ****** ****** ****** ****** ****** ****** ****** ****** ******
  14  ****** ****** ****** ****** ****** ****** ****** ****** ****** ******
      ****** ****** ****** ****** ****** ****** ****** ****** ****** ******
      ****** ****** ****** ****** ****** ****** ****** ****** ****** ******
  15  ****** ****** ****** ****** ****** ****** ****** ****** ****** ******
      ****** ****** ****** ****** ****** ****** ****** ****** ****** ******
      ****** ****** ****** ****** ****** ****** ****** ****** ****** ******
  16  ****** ****** ****** ****** ****** ****** ****** ****** ****** ******
      ****** ****** ****** ****** ****** ****** ****** ****** ****** ******
      ****** ****** ****** ****** ****** ****** ****** ****** ****** ******
  17  ****** ****** ****** ****** ****** ****** ****** ****** ****** ******
      ****** ****** ****** ****** ****** ****** ****** ****** ****** ******
      ****** ****** ****** ****** ****** ****** ****** ****** ****** ******
  18  ****** ****** ****** ****** ****** ****** ****** ****** ****** ******
      ****** ****** ****** ****** ****** ****** ****** ****** ****** ******
      ****** ****** ****** ****** ****** ****** ****** ****** ****** ******
  19  ****** ****** ****** ****** ****** ****** ****** ****** ****** ******
      ****** ****** ****** ****** ****** ****** ****** ****** ****** ******
      ****** ****** ****** ****** ****** ****** ****** ****** ****** ******
  20  ****** ****** ****** ****** ****** ****** ****** ****** ****** ******
      ****** ****** ****** ****** ****** ****** ****** ****** ****** ******
      ****** ****** ****** ****** ****** ****** ****** ****** ****** ******
  21  ****** ****** ****** ****** ****** ****** ****** ****** ****** ******
      ****** ****** ****** ****** ****** ****** ****** ****** ****** ******
      ****** ****** ****** ****** ****** ****** ****** ****** ****** ******
  22  ****** ****** ****** ****** ****** ****** ****** ****** ****** ******
      ****** ****** ****** ****** ****** ****** ****** ****** ****** ******
      ****** ****** ****** ****** ****** ****** ****** ****** ****** ******
  23  ****** ****** ****** ****** ****** ****** ****** ****** ****** ******
      ****** ****** ****** ****** ****** ****** ****** ****** ****** ******
      ****** ****** ****** ****** ****** ****** ****** ****** ****** ******
  24  ****** ****** ****** ****** ****** ****** ****** ****** ****** ******
      ****** ****** ****** ****** ****** ****** ****** ****** ****** ******
      ****** ****** ****** ****** ****** ****** ****** ****** ****** ******
  25  ****** ****** ****** ****** ****** ****** ****** ****** ****** ******
      ****** ****** ****** ****** ****** ****** ****** ****** ****** ******
      ****** ****** ****** ****** ****** ****** ****** ****** ****** ******

 HEAD WILL BE SAVED ON UNIT   51 AT END OF TIME STEP    1, STRESS PERIOD   12
1
  VOLUMETRIC BUDGET FOR ENTIRE MODEL AT END OF TIME STEP    1, STRESS PERIOD  12
  ------------------------------------------------------------------------------

     CUMULATIVE VOLUMES      L**3       RATES FOR THIS TIME STEP      L**3/T
     ------------------                 ------------------------

           IN:                                      IN:
           ---                                      ---
             STORAGE =    36918231.2478               STORAGE =          40.8221
       CONSTANT HEAD =    32941750.8486         CONSTANT HEAD =       35604.6309
               WELLS =           0.0000                 WELLS =           0.0000
            RECHARGE =    26413200.0000              RECHARGE =       27600.0000
      STREAM LEAKAGE =     7984449.0012        STREAM LEAKAGE =        7972.3343

            TOTAL IN =   104257631.0976              TOTAL IN =       71217.7873

          OUT:                                     OUT:
          ----                                     ----
             STORAGE =     2518961.8630               STORAGE =        2918.5370
       CONSTANT HEAD =           0.0000         CONSTANT HEAD =           0.0000
               WELLS =    32282241.7822                 WELLS =       29481.4993
            RECHARGE =           0.0000              RECHARGE =           0.0000
      STREAM LEAKAGE =    69456429.4001        STREAM LEAKAGE =       38817.7501

           TOTAL OUT =   104257633.0454             TOTAL OUT =       71217.7864

            IN - OUT =          -1.9477              IN - OUT =       9.3697E-04

 PERCENT DISCREPANCY =          -0.00     PERCENT DISCREPANCY =           0.00






         TIME SUMMARY AT END OF TIME STEP    1 IN STRESS PERIOD   12
                    SECONDS     MINUTES      HOURS       DAYS        YEARS
                    -----------------------------------------------------------
   TIME STEP LENGTH 7.86240E+06 1.31040E+05  2184.0      91.000     0.24914    
 STRESS PERIOD TIME 7.86240E+06 1.31040E+05  2184.0      91.000     0.24914    
         TOTAL TIME 9.46080E+07 1.57680E+06  26280.      1095.0      2.9979    
1

 Run end date and time (yyyy/mm/dd hh:mm:ss): 2019/06/07 22:25:26
 Elapsed run time:  0.074 Seconds

