                                  MODFLOW-2005     
      U.S. GEOLOGICAL SURVEY MODULAR FINITE-DIFFERENCE GROUND-WATER FLOW MODEL
                            VERSION 1.11.00 8/8/2013

 LIST FILE: supply2.lst
                         UNIT   10

 OPENING ..\data\supply.dis
 FILE TYPE:DIS   UNIT   11   STATUS:OLD    
 FORMAT:FORMATTED              ACCESS:SEQUENTIAL          

 OPENING ..\data\supply.ba6
 FILE TYPE:BAS6   UNIT   12   STATUS:OLD    
 FORMAT:FORMATTED              ACCESS:SEQUENTIAL          

 OPENING ..\data\supply_het.bc6
 FILE TYPE:BCF6   UNIT   13   STATUS:OLD    
 FORMAT:FORMATTED              ACCESS:SEQUENTIAL          

 OPENING ..\data\supply.rch
 FILE TYPE:RCH   UNIT   15   STATUS:OLD    
 FORMAT:FORMATTED              ACCESS:SEQUENTIAL          

 OPENING ..\data\supply2.sfr
 FILE TYPE:SFR   UNIT   16   STATUS:OLD    
 FORMAT:FORMATTED              ACCESS:SEQUENTIAL          

 OPENING ..\data\supply.oc
 FILE TYPE:OC   UNIT   17   STATUS:OLD    
 FORMAT:FORMATTED              ACCESS:SEQUENTIAL          

 OPENING ..\data\supply.pcg
 FILE TYPE:PCG   UNIT   18   STATUS:OLD    
 FORMAT:FORMATTED              ACCESS:SEQUENTIAL          

 OPENING supply2.wel
 FILE TYPE:WEL   UNIT   19   STATUS:OLD    
 FORMAT:FORMATTED              ACCESS:SEQUENTIAL          

 OPENING supply2sf.cbc
 FILE TYPE:DATA(BINARY)   UNIT   50   STATUS:UNKNOWN
 FORMAT:BINARY                 ACCESS:SEQUENTIAL          

 OPENING supply2hd.bhd
 FILE TYPE:DATA(BINARY)   UNIT   51   STATUS:UNKNOWN
 FORMAT:BINARY                 ACCESS:SEQUENTIAL          

 BAS -- BASIC PACKAGE, VERSION 7, 5/2/2005 INPUT READ FROM UNIT   12
 
 MODFLOW was compiled using uniform precision
 Precision of REAL and DOUBLE PRECISION variables:          15

 DISCRETIZATION INPUT DATA READ FROM UNIT   11
    1 LAYERS        25 ROWS        30 COLUMNS
   12 STRESS PERIOD(S) IN SIMULATION
 MODEL TIME UNIT IS DAYS
 MODEL LENGTH UNIT IS UNDEFINED
  Confining bed flag for each layer:
   0

                     DELR =   200.000    

                     DELC =   200.000    

 TOP ELEVATION OF LAYER 1 =  100.0000    

   MODEL LAYER BOTTOM EL. =   0.00000     FOR LAYER   1


 STRESS PERIOD     LENGTH       TIME STEPS     MULTIPLIER FOR DELT    SS FLAG
 ----------------------------------------------------------------------------
        1         92.00000          1                    1.500         TR
        2         91.00000          1                    1.500         TR
        3         91.00000          1                    1.500         TR
        4         91.00000          1                    1.500         TR
        5         92.00000          1                    1.500         TR
        6         91.00000          1                    1.500         TR
        7         91.00000          1                    1.500         TR
        8         91.00000          1                    1.500         TR
        9         92.00000          1                    1.500         TR
       10         91.00000          1                    1.500         TR
       11         91.00000          1                    1.500         TR
       12         91.00000          1                    1.500         TR

 TRANSIENT SIMULATION



 
 #MODOFC transient water supply sample problem                                   
 #                                                                               
 THE FREE FORMAT OPTION HAS BEEN SELECTED



                     BOUNDARY ARRAY FOR LAYER   1
 READING ON UNIT   12 WITH FORMAT: (20I4)              

 AQUIFER HEAD WILL BE SET TO   0.0000     AT ALL NO-FLOW NODES (IBOUND=0).



                       INITIAL HEAD FOR LAYER   1
 READING ON UNIT   12 WITH FORMAT: (10F13.0)           

 OUTPUT CONTROL IS SPECIFIED ONLY AT TIME STEPS FOR WHICH OUTPUT IS DESIRED
 COMPACT CELL-BY-CELL BUDGET FILES WILL BE WRITTEN
 HEAD PRINT FORMAT CODE IS  18    DRAWDOWN PRINT FORMAT CODE IS   0
 HEADS WILL BE SAVED ON UNIT   51    DRAWDOWNS WILL BE SAVED ON UNIT    0

 BCF -- BLOCK-CENTERED FLOW PACKAGE, VERSION 7, 5/2/2005
         INPUT READ FROM UNIT 13
 TRANSIENT SIMULATION
 HEAD AT CELLS THAT CONVERT TO DRY=   0.0000    
 WETTING CAPABILITY IS NOT ACTIVE
      LAYER  LAYER-TYPE CODE     INTERBLOCK T
      --------------------------------------------
         1            0          0 -- HARMONIC    

 COLUMN TO ROW ANISOTROPY =  1.000000    

     PRIMARY STORAGE COEF =  5.000000E-02 FOR LAYER   1



               TRANSMIS. ALONG ROWS FOR LAYER   1
 READING ON UNIT   13 WITH FORMAT: (FREE)              

 WEL -- WELL PACKAGE, VERSION 7, 5/2/2005 INPUT READ FROM UNIT   19
 # Well package input file written by MMProc
 No named parameters
 MAXIMUM OF      8 ACTIVE WELLS AT ONE TIME


     0 Well parameters

 RCH -- RECHARGE PACKAGE, VERSION 7, 5/2/2005 INPUT READ FROM UNIT   15
 No named parameters
 OPTION 1 -- RECHARGE TO TOP LAYER


     0 Recharge parameters

 SFR7 -- STREAMFLOW ROUTING PACKAGE, VERSION 1.0.7, 2013-01-15
         INPUT READ FROM UNIT  16
 #  Supply2 test problem for GWM-VI
 #  The eighth entry in the first data line is ISTCB2 -
 #    Setting this to a negative number indicates that
 #    streamflows out of the reach will be saved to a
 #    binary file.  The absolute value of ISTCB2 is the
 #    unit to which unformatted flows will be written.
 #
 No named parameters
 Segment information will not be 
 read by reach
 No named parameters
 No specifed inflow files


 NUMBER OF STREAM REACHES IS   40

 NUMBER OF STREAM SEGMENTS IS    3

 NUMBER OF STREAM PARAMETERS IS    0

 NUMBER OF STREAM SEGMENTS DEFINED USING PARAMETERS IS              0

 MAXIMUM ERROR FOR STREAM LEAKAGE RATES IS  1.00E-04

 CONSTANT FOR MANNINGS EQUATION IS  1.2839E+05





   STREAM NETWORK DESCRIPTION: 

   LAYER    ROW    COL   SEGMENT   REACH     LENGTH
                          NUMBER   NUMBER    IN CELL        
   --------------------------------------------------
      1     13      1       1        1    2.0000E+02
      1     13      2       1        2    2.0000E+02
      1     14      3       1        3    2.0000E+02
      1     15      4       1        4    2.0000E+02
      1     16      5       1        5    2.0000E+02
      1     16      6       1        6    2.0000E+02
      1     16      7       1        7    2.0000E+02
      1     16      8       1        8    2.0000E+02
      1     16      9       1        9    2.0000E+02
      1     16     10       1       10    2.0000E+02
      1     16     11       1       11    2.0000E+02
      1     16     12       1       12    2.0000E+02
      1     15     13       1       13    2.0000E+02
      1     14     14       1       14    2.0000E+02
      1     13     15       1       15    2.0000E+02
      1     12     16       1       16    2.0000E+02
      1     12     17       1       17    2.0000E+02
      1     12     18       1       18    2.0000E+02
      1     12     19       1       19    2.0000E+02
      1     13     20       1       20    2.0000E+02
      1     14     21       1       21    2.0000E+02
      1     14     22       1       22    2.0000E+02
      1      9     30       2        1    2.0000E+02
      1      9     29       2        2    2.0000E+02
      1      9     28       2        3    2.0000E+02
      1      9     27       2        4    2.0000E+02
      1     10     26       2        5    2.0000E+02
      1     11     25       2        6    2.0000E+02
      1     12     24       2        7    2.0000E+02
      1     13     23       2        8    2.0000E+02
      1     14     22       2        9    2.0000E+02
      1     14     22       3        1    2.0000E+02
      1     15     23       3        2    2.0000E+02
      1     15     24       3        3    2.0000E+02
      1     15     25       3        4    2.0000E+02
      1     15     26       3        5    2.0000E+02
      1     16     27       3        6    2.0000E+02
      1     17     28       3        7    2.0000E+02
      1     18     29       3        8    2.0000E+02
      1     18     30       3        9    2.0000E+02




 PCG -- CONJUGATE-GRADIENT SOLUTION PACKAGE, VERSION 7, 5/2/2005
 MAXIMUM OF    500 CALLS OF SOLUTION ROUTINE
 MAXIMUM OF      5 INTERNAL ITERATIONS PER CALL TO SOLUTION ROUTINE
 MATRIX PRECONDITIONING TYPE :    1



                                    SOLUTION BY THE CONJUGATE-GRADIENT METHOD
                                   -------------------------------------------
                    MAXIMUM NUMBER OF CALLS TO PCG ROUTINE =      500
                        MAXIMUM ITERATIONS PER CALL TO PCG =        5
                               MATRIX PRECONDITIONING TYPE =        1
        RELAXATION FACTOR (ONLY USED WITH PRECOND. TYPE 1) =    0.10000E+01
 PARAMETER OF POLYNOMIAL PRECOND. = 2 (2) OR IS CALCULATED :        0
                         HEAD CHANGE CRITERION FOR CLOSURE =    0.10000E-05
                     RESIDUAL CHANGE CRITERION FOR CLOSURE =    0.10000E+01
            PCG HEAD AND RESIDUAL CHANGE PRINTOUT INTERVAL =        1
     PRINTING FROM SOLVER IS LIMITED(1) OR SUPPRESSED (>1) =        1
                            STEADY-STATE DAMPING PARAMETER =    0.10000E+01
                               TRANSIENT DAMPING PARAMETER =    0.10000E+01
1
                            STRESS PERIOD NO.    1, LENGTH =   92.00000    
                            -----------------------------------------------

                              NUMBER OF TIME STEPS =     1

                               MULTIPLIER FOR DELT =     1.500

                            INITIAL TIME STEP SIZE =   92.00000    

 WELL NO.  LAYER   ROW   COL   STRESS RATE         
 --------------------------------------------------
      1      1     14      6       0.000    
      2      1      3      9       0.000    
      3      1     20     10       0.000    
      4      1     14     20       0.000    
      5      1      8     21      -8123.    
      6      1      4     14      -6617.    
      7      1     10     23      -7449.    
      8      1     14     17     -0.1185E+05

      8 WELLS

                 RECHARGE =  5.000000E-04



 CLASSIFICATION & COUNT OF STREAM SEGMENTS BASED ON SOURCE OF INFLOW:

                HEADWATER     DIVERSION     RECEIVES TRIBUTARY FLOW
                ---------     ---------     -----------------------
                     2              0               1



                    INPUT DATA FOR EACH STREAM SEGMENT
 ---------------------------------------------------------------------------------------------

 SEGMENT    SEG.     INFLOW   OVERLAND   STREAM    STREAM   ICALC  OUTFLOW  DIVERSION PRIORITY
    NO.    LENGTH     RATE     RUNOFF      ET       PPT.    METH.  TO SEG.  FROM SEG.    NO.

      1  4.400E+03 1.000E+05 0.000E+00 0.000E+00 0.000E+00    1        3        0        0
      2  1.800E+03 5.000E+04 0.000E+00 0.000E+00 0.000E+00    1        3        0        0
      3  1.800E+03 0.000E+00 0.000E+00 0.000E+00 0.000E+00    1        0        0        0


         STREAMBED PROPERTIES AND STREAM DIMENSIONS

 SEGMENT     BED HYD. COND.      BED THICKNESS     ELEV.-TOP OF BED     WIDTH OF STREAM     DEPTH OF STREAM    STREAM ROUGHNESS
    No.     UPPER     LOWER     UPPER     LOWER     UPPER     LOWER     UPPER     LOWER     UPPER     LOWER   CHANNEL      BANK

     1  5.000E+00 5.000E+00 1.000E+00 1.000E+00 4.850E+01 3.800E+01 2.000E+01 2.000E+01                     5.000E-02
     2  5.000E+00 5.000E+00 1.000E+00 1.000E+00 4.025E+01 3.800E+01 2.000E+01 2.000E+01                     5.000E-02
     3  5.000E+00 5.000E+00 1.000E+00 1.000E+00 3.800E+01 3.000E+01 2.000E+01 2.000E+01                     5.000E-02



 
 SOLVING FOR HEAD 


     9 CALLS TO PCG ROUTINE FOR TIME STEP   1 IN STRESS PERIOD    1
    36 TOTAL ITERATIONS

 OUTPUT CONTROL FOR STRESS PERIOD    1   TIME STEP    1
    SAVE BUDGET
    SAVE HEAD FOR ALL LAYERS
    PRINT HEAD FOR ALL LAYERS
 UBDSV2 SAVING "STREAMFLOW OUT  " ON UNIT  50 AT TIME STEP  1, STRESS PERIOD   1



 STREAM LISTING     PERIOD      1   STEP        1

 LAYER ROW COL. STREAM  RCH.  FLOW INTO     FLOW TO   FLOW OUT OF   OVRLND.     DIRECT     STREAM       STREAM     STREAM     STREAM   STREAMBED  STREAMBED
                SEG.NO.  NO.  STRM. RCH.    AQUIFER    STRM. RCH.    RUNOFF     PRECIP       ET          HEAD       DEPTH      WIDTH   CONDCTNC.   GRADIENT

   1   13    1     1     1    1.0000E+05 -6.1050E+03   1.0611E+05  0.000E+00  0.000E+00  0.000E+00  4.84086E+01  1.473E-01  2.000E+01  2.000E+04 -3.053E-01
   1   13    2     1     2    1.0611E+05 -7.5739E+03   1.1368E+05  0.000E+00  0.000E+00  0.000E+00  4.79372E+01  1.531E-01  2.000E+01  2.000E+04 -3.787E-01
   1   14    3     1     3    1.1368E+05 -2.1980E+03   1.1588E+05  0.000E+00  0.000E+00  0.000E+00  4.74639E+01  1.571E-01  2.000E+01  2.000E+04 -1.099E-01
   1   15    4     1     4    1.1588E+05 -2.2695E+03   1.1815E+05  0.000E+00  0.000E+00  0.000E+00  4.69885E+01  1.590E-01  2.000E+01  2.000E+04 -1.135E-01
   1   16    5     1     5    1.1815E+05 -7.1805E+03   1.2533E+05  0.000E+00  0.000E+00  0.000E+00  4.65150E+01  1.628E-01  2.000E+01  2.000E+04 -3.590E-01
   1   16    6     1     6    1.2533E+05 -4.2992E+03   1.2963E+05  0.000E+00  0.000E+00  0.000E+00  4.60423E+01  1.673E-01  2.000E+01  2.000E+04 -2.150E-01
   1   16    7     1     7    1.2963E+05 -4.1322E+03   1.3376E+05  0.000E+00  0.000E+00  0.000E+00  4.55684E+01  1.706E-01  2.000E+01  2.000E+04 -2.066E-01
   1   16    8     1     8    1.3376E+05 -4.0882E+03   1.3785E+05  0.000E+00  0.000E+00  0.000E+00  4.50943E+01  1.738E-01  2.000E+01  2.000E+04 -2.044E-01
   1   16    9     1     9    1.3785E+05 -4.0722E+03   1.4192E+05  0.000E+00  0.000E+00  0.000E+00  4.46201E+01  1.769E-01  2.000E+01  2.000E+04 -2.036E-01
   1   16   10     1    10    1.4192E+05 -4.0598E+03   1.4598E+05  0.000E+00  0.000E+00  0.000E+00  4.41459E+01  1.800E-01  2.000E+01  2.000E+04 -2.030E-01
   1   16   11     1    11    1.4598E+05 -4.0734E+03   1.5005E+05  0.000E+00  0.000E+00  0.000E+00  4.36717E+01  1.830E-01  2.000E+01  2.000E+04 -2.037E-01
   1   16   12     1    12    1.5005E+05 -6.7821E+03   1.5683E+05  0.000E+00  0.000E+00  0.000E+00  4.31984E+01  1.870E-01  2.000E+01  2.000E+04 -3.391E-01
   1   15   13     1    13    1.5683E+05 -6.8609E+03   1.6370E+05  0.000E+00  0.000E+00  0.000E+00  4.27261E+01  1.920E-01  2.000E+01  2.000E+04 -3.430E-01
   1   14   14     1    14    1.6370E+05 -6.7724E+03   1.7047E+05  0.000E+00  0.000E+00  0.000E+00  4.22536E+01  1.968E-01  2.000E+01  2.000E+04 -3.386E-01
   1   13   15     1    15    1.7047E+05 -6.4336E+03   1.7690E+05  0.000E+00  0.000E+00  0.000E+00  4.17810E+01  2.015E-01  2.000E+01  2.000E+04 -3.217E-01
   1   12   16     1    16    1.7690E+05 -7.4744E+03   1.8438E+05  0.000E+00  0.000E+00  0.000E+00  4.13085E+01  2.063E-01  2.000E+01  2.000E+04 -3.737E-01
   1   12   17     1    17    1.8438E+05 -4.2794E+03   1.8865E+05  0.000E+00  0.000E+00  0.000E+00  4.08353E+01  2.103E-01  2.000E+01  2.000E+04 -2.140E-01
   1   12   18     1    18    1.8865E+05 -4.6061E+03   1.9326E+05  0.000E+00  0.000E+00  0.000E+00  4.03610E+01  2.132E-01  2.000E+01  2.000E+04 -2.303E-01
   1   12   19     1    19    1.9326E+05 -6.1757E+03   1.9944E+05  0.000E+00  0.000E+00  0.000E+00  3.98873E+01  2.168E-01  2.000E+01  2.000E+04 -3.088E-01
   1   13   20     1    20    1.9944E+05 -5.3197E+03   2.0476E+05  0.000E+00  0.000E+00  0.000E+00  3.94138E+01  2.206E-01  2.000E+01  2.000E+04 -2.660E-01
   1   14   21     1    21    2.0476E+05 -5.5747E+03   2.1033E+05  0.000E+00  0.000E+00  0.000E+00  3.89401E+01  2.242E-01  2.000E+01  2.000E+04 -2.787E-01
   1   14   22     1    22    2.1033E+05  3.8100E+03   2.0652E+05  0.000E+00  0.000E+00  0.000E+00  3.84634E+01  2.247E-01  2.000E+01  2.000E+04  1.905E-01
   1    9   30     2     1    5.0000E+04 -4.7553E+03   5.4755E+04  0.000E+00  0.000E+00  0.000E+00  4.02441E+01  1.191E-01  2.000E+01  2.000E+04 -2.378E-01
   1    9   29     2     2    5.4755E+04 -5.0283E+03   5.9784E+04  0.000E+00  0.000E+00  0.000E+00  4.00007E+01  1.257E-01  2.000E+01  2.000E+04 -2.514E-01
   1    9   28     2     3    5.9784E+04 -5.2493E+03   6.5033E+04  0.000E+00  0.000E+00  0.000E+00  3.97573E+01  1.323E-01  2.000E+01  2.000E+04 -2.625E-01
   1    9   27     2     4    6.5033E+04 -7.6412E+03   7.2674E+04  0.000E+00  0.000E+00  0.000E+00  3.95154E+01  1.404E-01  2.000E+01  2.000E+04 -3.821E-01
   1   10   26     2     5    7.2674E+04 -6.2825E+03   7.8957E+04  0.000E+00  0.000E+00  0.000E+00  3.92737E+01  1.487E-01  2.000E+01  2.000E+04 -3.141E-01
   1   11   25     2     6    7.8957E+04 -5.2237E+03   8.4180E+04  0.000E+00  0.000E+00  0.000E+00  3.90304E+01  1.554E-01  2.000E+01  2.000E+04 -2.612E-01
   1   12   24     2     7    8.4180E+04 -4.5771E+03   8.8757E+04  0.000E+00  0.000E+00  0.000E+00  3.87859E+01  1.609E-01  2.000E+01  2.000E+04 -2.289E-01
   1   13   23     2     8    8.8757E+04 -1.4260E+03   9.0183E+04  0.000E+00  0.000E+00  0.000E+00  3.85393E+01  1.643E-01  2.000E+01  2.000E+04 -7.130E-02
   1   14   22     2     9    9.0183E+04  3.3984E+02   8.9843E+04  0.000E+00  0.000E+00  0.000E+00  3.82899E+01  1.649E-01  2.000E+01  2.000E+04  1.699E-02
   1   14   22     3     1    2.9636E+05 -9.6944E+03   3.0606E+05  0.000E+00  0.000E+00  0.000E+00  3.77882E+01  2.326E-01  2.000E+01  2.000E+04 -4.847E-01
   1   15   23     3     2    3.0606E+05 -1.9474E+03   3.0801E+05  0.000E+00  0.000E+00  0.000E+00  3.69020E+01  2.353E-01  2.000E+01  2.000E+04 -9.737E-02
   1   15   24     3     3    3.0801E+05 -1.5244E+03   3.0953E+05  0.000E+00  0.000E+00  0.000E+00  3.60139E+01  2.361E-01  2.000E+01  2.000E+04 -7.622E-02
   1   15   25     3     4    3.0953E+05 -1.5770E+03   3.1111E+05  0.000E+00  0.000E+00  0.000E+00  3.51257E+01  2.368E-01  2.000E+01  2.000E+04 -7.885E-02
   1   15   26     3     5    3.1111E+05 -1.8816E+03   3.1299E+05  0.000E+00  0.000E+00  0.000E+00  3.42376E+01  2.376E-01  2.000E+01  2.000E+04 -9.408E-02
   1   16   27     3     6    3.1299E+05 -2.1631E+03   3.1515E+05  0.000E+00  0.000E+00  0.000E+00  3.33496E+01  2.385E-01  2.000E+01  2.000E+04 -1.082E-01
   1   17   28     3     7    3.1515E+05 -6.5741E+03   3.2173E+05  0.000E+00  0.000E+00  0.000E+00  3.24627E+01  2.405E-01  2.000E+01  2.000E+04 -3.287E-01
   1   18   29     3     8    3.2173E+05 -7.9825E+03   3.2971E+05  0.000E+00  0.000E+00  0.000E+00  3.15771E+01  2.438E-01  2.000E+01  2.000E+04 -3.991E-01
   1   18   30     3     9    3.2971E+05 -7.1678E+03   3.3688E+05  0.000E+00  0.000E+00  0.000E+00  3.06916E+01  2.472E-01  2.000E+01  2.000E+04 -3.584E-01



1
              HEAD IN LAYER   1 AT END OF TIME STEP   1 IN STRESS PERIOD    1
  ---------------------------------------------------------------------------

          1      2      3      4      5      6      7      8      9     10
         11     12     13     14     15     16     17     18     19     20
         21     22     23     24     25     26     27     28     29     30
 .........................................................................
   1  ****** ****** ****** ****** ****** ****** ****** ****** ****** ******
      ****** ****** ****** ****** ****** ****** ****** ****** ****** ******
      ****** ****** ****** ****** ****** ****** ****** ****** ****** ******
   2  ****** ****** ****** ****** ****** ****** ****** ****** ****** ******
      ****** ****** ****** ****** ****** ****** ****** ****** ****** ******
      ****** ****** ****** ****** ****** ****** ****** ****** ****** ******
   3  ****** ****** ****** ****** ****** ****** ****** ****** ****** ******
      ****** ****** ****** ****** ****** ****** ****** ****** ****** ******
      ****** ****** ****** ****** ****** ****** ****** ****** ****** ******
   4  ****** ****** ****** ****** ****** ****** ****** ****** ****** ******
      ****** ****** ****** ****** ****** ****** ****** ****** ****** ******
      ****** ****** ****** ****** ****** ****** ****** ****** ****** ******
   5  ****** ****** ****** ****** ****** ****** ****** ****** ****** ******
      ****** ****** ****** ****** ****** ****** ****** ****** ****** ******
      ****** ****** ****** ****** ****** ****** ****** ****** ****** ******
   6  ****** ****** ****** ****** ****** ****** ****** ****** ****** ******
      ****** ****** ****** ****** ****** ****** ****** ****** ****** ******
      ****** ****** ****** ****** ****** ****** ****** ****** ****** ******
   7  ****** ****** ****** ****** ****** ****** ****** ****** ****** ******
      ****** ****** ****** ****** ****** ****** ****** ****** ****** ******
      ****** ****** ****** ****** ****** ****** ****** ****** ****** ******
   8  ****** ****** ****** ****** ****** ****** ****** ****** ****** ******
      ****** ****** ****** ****** ****** ****** ****** ****** ****** ******
      ****** ****** ****** ****** ****** ****** ****** ****** ****** ******
   9  ****** ****** ****** ****** ****** ****** ****** ****** ****** ******
      ****** ****** ****** ****** ****** ****** ****** ****** ****** ******
      ****** ****** ****** ****** ****** ****** ****** ****** ****** ******
  10  ****** ****** ****** ****** ****** ****** ****** ****** ****** ******
      ****** ****** ****** ****** ****** ****** ****** ****** ****** ******
      ****** ****** ****** ****** ****** ****** ****** ****** ****** ******
  11  ****** ****** ****** ****** ****** ****** ****** ****** ****** ******
      ****** ****** ****** ****** ****** ****** ****** ****** ****** ******
      ****** ****** ****** ****** ****** ****** ****** ****** ****** ******
  12  ****** ****** ****** ****** ****** ****** ****** ****** ****** ******
      ****** ****** ****** ****** ****** ****** ****** ****** ****** ******
      ****** ****** ****** ****** ****** ****** ****** ****** ****** ******
  13  ****** ****** ****** ****** ****** ****** ****** ****** ****** ******
      ****** ****** ****** ****** ****** ****** ****** ****** ****** ******
      ****** ****** ****** ****** ****** ****** ****** ****** ****** ******
  14  ****** ****** ****** ****** ****** ****** ****** ****** ****** ******
      ****** ****** ****** ****** ****** ****** ****** ****** ****** ******
      ****** ****** ****** ****** ****** ****** ****** ****** ****** ******
  15  ****** ****** ****** ****** ****** ****** ****** ****** ****** ******
      ****** ****** ****** ****** ****** ****** ****** ****** ****** ******
      ****** ****** ****** ****** ****** ****** ****** ****** ****** ******
  16  ****** ****** ****** ****** ****** ****** ****** ****** ****** ******
      ****** ****** ****** ****** ****** ****** ****** ****** ****** ******
      ****** ****** ****** ****** ****** ****** ****** ****** ****** ******
  17  ****** ****** ****** ****** ****** ****** ****** ****** ****** ******
      ****** ****** ****** ****** ****** ****** ****** ****** ****** ******
      ****** ****** ****** ****** ****** ****** ****** ****** ****** ******
  18  ****** ****** ****** ****** ****** ****** ****** ****** ****** ******
      ****** ****** ****** ****** ****** ****** ****** ****** ****** ******
      ****** ****** ****** ****** ****** ****** ****** ****** ****** ******
  19  ****** ****** ****** ****** ****** ****** ****** ****** ****** ******
      ****** ****** ****** ****** ****** ****** ****** ****** ****** ******
      ****** ****** ****** ****** ****** ****** ****** ****** ****** ******
  20  ****** ****** ****** ****** ****** ****** ****** ****** ****** ******
      ****** ****** ****** ****** ****** ****** ****** ****** ****** ******
      ****** ****** ****** ****** ****** ****** ****** ****** ****** ******
  21  ****** ****** ****** ****** ****** ****** ****** ****** ****** ******
      ****** ****** ****** ****** ****** ****** ****** ****** ****** ******
      ****** ****** ****** ****** ****** ****** ****** ****** ****** ******
  22  ****** ****** ****** ****** ****** ****** ****** ****** ****** ******
      ****** ****** ****** ****** ****** ****** ****** ****** ****** ******
      ****** ****** ****** ****** ****** ****** ****** ****** ****** ******
  23  ****** ****** ****** ****** ****** ****** ****** ****** ****** ******
      ****** ****** ****** ****** ****** ****** ****** ****** ****** ******
      ****** ****** ****** ****** ****** ****** ****** ****** ****** ******
  24  ****** ****** ****** ****** ****** ****** ****** ****** ****** ******
      ****** ****** ****** ****** ****** ****** ****** ****** ****** ******
      ****** ****** ****** ****** ****** ****** ****** ****** ****** ******
  25  ****** ****** ****** ****** ****** ****** ****** ****** ****** ******
      ****** ****** ****** ****** ****** ****** ****** ****** ****** ******
      ****** ****** ****** ****** ****** ****** ****** ****** ****** ******

 HEAD WILL BE SAVED ON UNIT   51 AT END OF TIME STEP    1, STRESS PERIOD    1
1
  VOLUMETRIC BUDGET FOR ENTIRE MODEL AT END OF TIME STEP    1, STRESS PERIOD   1
  ------------------------------------------------------------------------------

     CUMULATIVE VOLUMES      L**3       RATES FOR THIS TIME STEP      L**3/T
     ------------------                 ------------------------

           IN:                                      IN:
           ---                                      ---
             STORAGE =    17877300.0125               STORAGE =      194318.4784
       CONSTANT HEAD =     1177587.3252         CONSTANT HEAD =       12799.8622
               WELLS =           0.0000                 WELLS =           0.0000
            RECHARGE =     1269600.0000              RECHARGE =       13800.0000
      STREAM LEAKAGE =      381787.2183        STREAM LEAKAGE =        4149.8611

            TOTAL IN =    20706274.5560              TOTAL IN =      225068.2017

          OUT:                                     OUT:
          ----                                     ----
             STORAGE =           0.0000               STORAGE =           0.0000
       CONSTANT HEAD =           0.0000         CONSTANT HEAD =           0.0000
               WELLS =     3131819.0198                 WELLS =       34041.5111
            RECHARGE =           0.0000              RECHARGE =           0.0000
      STREAM LEAKAGE =    17574455.8254        STREAM LEAKAGE =      191026.6938

           TOTAL OUT =    20706274.8452             TOTAL OUT =      225068.2048

            IN - OUT =          -0.2892              IN - OUT =      -3.1437E-03

 PERCENT DISCREPANCY =          -0.00     PERCENT DISCREPANCY =          -0.00






         TIME SUMMARY AT END OF TIME STEP    1 IN STRESS PERIOD    1
                    SECONDS     MINUTES      HOURS       DAYS        YEARS
                    -----------------------------------------------------------
   TIME STEP LENGTH 7.94880E+06 1.32480E+05  2208.0      92.000     0.25188    
 STRESS PERIOD TIME 7.94880E+06 1.32480E+05  2208.0      92.000     0.25188    
         TOTAL TIME 7.94880E+06 1.32480E+05  2208.0      92.000     0.25188    
1
1
                            STRESS PERIOD NO.    2, LENGTH =   91.00000    
                            -----------------------------------------------

                              NUMBER OF TIME STEPS =     1

                               MULTIPLIER FOR DELT =     1.500

                            INITIAL TIME STEP SIZE =   91.00000    

 WELL NO.  LAYER   ROW   COL   STRESS RATE         
 --------------------------------------------------
      1      1     14      6       0.000    
      2      1      3      9       0.000    
      3      1     20     10       0.000    
      4      1     14     20       0.000    
      5      1      8     21      -8123.    
      6      1      4     14      -6617.    
      7      1     10     23      -7449.    
      8      1     14     17     -0.1185E+05

      8 WELLS

                 RECHARGE =  2.000000E-03

 REUSING STREAM SEGMENT DATA FROM LAST STRESS PERIOD
 
 SOLVING FOR HEAD 


     7 CALLS TO PCG ROUTINE FOR TIME STEP   1 IN STRESS PERIOD    2
    27 TOTAL ITERATIONS

 OUTPUT CONTROL FOR STRESS PERIOD    2   TIME STEP    1
    SAVE BUDGET
    SAVE HEAD FOR ALL LAYERS
    PRINT HEAD FOR ALL LAYERS
 UBDSV2 SAVING "STREAMFLOW OUT  " ON UNIT  50 AT TIME STEP  1, STRESS PERIOD   2



 STREAM LISTING     PERIOD      2   STEP        1

 LAYER ROW COL. STREAM  RCH.  FLOW INTO     FLOW TO   FLOW OUT OF   OVRLND.     DIRECT     STREAM       STREAM     STREAM     STREAM   STREAMBED  STREAMBED
                SEG.NO.  NO.  STRM. RCH.    AQUIFER    STRM. RCH.    RUNOFF     PRECIP       ET          HEAD       DEPTH      WIDTH   CONDCTNC.   GRADIENT

   1   13    1     1     1    1.0000E+05 -3.9610E+03   1.0396E+05  0.000E+00  0.000E+00  0.000E+00  4.84077E+01  1.464E-01  2.000E+01  2.000E+04 -1.980E-01
   1   13    2     1     2    1.0396E+05 -5.2205E+03   1.0918E+05  0.000E+00  0.000E+00  0.000E+00  4.79344E+01  1.503E-01  2.000E+01  2.000E+04 -2.610E-01
   1   14    3     1     3    1.0918E+05 -1.1131E+03   1.1029E+05  0.000E+00  0.000E+00  0.000E+00  4.74598E+01  1.529E-01  2.000E+01  2.000E+04 -5.566E-02
   1   15    4     1     4    1.1029E+05 -1.1418E+03   1.1144E+05  0.000E+00  0.000E+00  0.000E+00  4.69834E+01  1.539E-01  2.000E+01  2.000E+04 -5.709E-02
   1   16    5     1     5    1.1144E+05 -4.2447E+03   1.1568E+05  0.000E+00  0.000E+00  0.000E+00  4.65084E+01  1.561E-01  2.000E+01  2.000E+04 -2.122E-01
   1   16    6     1     6    1.1568E+05 -2.4992E+03   1.1818E+05  0.000E+00  0.000E+00  0.000E+00  4.60339E+01  1.589E-01  2.000E+01  2.000E+04 -1.250E-01
   1   16    7     1     7    1.1818E+05 -2.4017E+03   1.2058E+05  0.000E+00  0.000E+00  0.000E+00  4.55586E+01  1.609E-01  2.000E+01  2.000E+04 -1.201E-01
   1   16    8     1     8    1.2058E+05 -2.3674E+03   1.2295E+05  0.000E+00  0.000E+00  0.000E+00  4.50832E+01  1.628E-01  2.000E+01  2.000E+04 -1.184E-01
   1   16    9     1     9    1.2295E+05 -2.3382E+03   1.2529E+05  0.000E+00  0.000E+00  0.000E+00  4.46079E+01  1.647E-01  2.000E+01  2.000E+04 -1.169E-01
   1   16   10     1    10    1.2529E+05 -2.2995E+03   1.2759E+05  0.000E+00  0.000E+00  0.000E+00  4.41324E+01  1.665E-01  2.000E+01  2.000E+04 -1.150E-01
   1   16   11     1    11    1.2759E+05 -2.2748E+03   1.2986E+05  0.000E+00  0.000E+00  0.000E+00  4.36570E+01  1.683E-01  2.000E+01  2.000E+04 -1.137E-01
   1   16   12     1    12    1.2986E+05 -3.8200E+03   1.3368E+05  0.000E+00  0.000E+00  0.000E+00  4.31821E+01  1.707E-01  2.000E+01  2.000E+04 -1.910E-01
   1   15   13     1    13    1.3368E+05 -3.4997E+03   1.3718E+05  0.000E+00  0.000E+00  0.000E+00  4.27076E+01  1.735E-01  2.000E+01  2.000E+04 -1.750E-01
   1   14   14     1    14    1.3718E+05 -3.2183E+03   1.4040E+05  0.000E+00  0.000E+00  0.000E+00  4.22329E+01  1.761E-01  2.000E+01  2.000E+04 -1.609E-01
   1   13   15     1    15    1.4040E+05 -2.8104E+03   1.4321E+05  0.000E+00  0.000E+00  0.000E+00  4.17579E+01  1.784E-01  2.000E+01  2.000E+04 -1.405E-01
   1   12   16     1    16    1.4321E+05 -3.9955E+03   1.4721E+05  0.000E+00  0.000E+00  0.000E+00  4.12832E+01  1.809E-01  2.000E+01  2.000E+04 -1.998E-01
   1   12   17     1    17    1.4721E+05 -1.4901E+03   1.4870E+05  0.000E+00  0.000E+00  0.000E+00  4.08080E+01  1.830E-01  2.000E+01  2.000E+04 -7.450E-02
   1   12   18     1    18    1.4870E+05 -1.8123E+03   1.5051E+05  0.000E+00  0.000E+00  0.000E+00  4.03319E+01  1.842E-01  2.000E+01  2.000E+04 -9.061E-02
   1   12   19     1    19    1.5051E+05 -2.6598E+03   1.5317E+05  0.000E+00  0.000E+00  0.000E+00  3.98563E+01  1.858E-01  2.000E+01  2.000E+04 -1.330E-01
   1   13   20     1    20    1.5317E+05 -1.9106E+03   1.5508E+05  0.000E+00  0.000E+00  0.000E+00  3.93807E+01  1.875E-01  2.000E+01  2.000E+04 -9.553E-02
   1   14   21     1    21    1.5508E+05 -2.6716E+03   1.5775E+05  0.000E+00  0.000E+00  0.000E+00  3.89051E+01  1.892E-01  2.000E+01  2.000E+04 -1.336E-01
   1   14   22     1    22    1.5775E+05  4.6105E+03   1.5314E+05  0.000E+00  0.000E+00  0.000E+00  3.84271E+01  1.885E-01  2.000E+01  2.000E+04  2.305E-01
   1    9   30     2     1    5.0000E+04 -1.9676E+03   5.1968E+04  0.000E+00  0.000E+00  0.000E+00  4.02422E+01  1.172E-01  2.000E+01  2.000E+04 -9.838E-02
   1    9   29     2     2    5.1968E+04 -2.2448E+03   5.4212E+04  0.000E+00  0.000E+00  0.000E+00  3.99951E+01  1.201E-01  2.000E+01  2.000E+04 -1.122E-01
   1    9   28     2     3    5.4212E+04 -2.4583E+03   5.6671E+04  0.000E+00  0.000E+00  0.000E+00  3.97483E+01  1.233E-01  2.000E+01  2.000E+04 -1.229E-01
   1    9   27     2     4    5.6671E+04 -3.9180E+03   6.0589E+04  0.000E+00  0.000E+00  0.000E+00  3.95025E+01  1.275E-01  2.000E+01  2.000E+04 -1.959E-01
   1   10   26     2     5    6.0589E+04 -2.4105E+03   6.2999E+04  0.000E+00  0.000E+00  0.000E+00  3.92566E+01  1.316E-01  2.000E+01  2.000E+04 -1.205E-01
   1   11   25     2     6    6.2999E+04 -1.4783E+03   6.4478E+04  0.000E+00  0.000E+00  0.000E+00  3.90090E+01  1.340E-01  2.000E+01  2.000E+04 -7.392E-02
   1   12   24     2     7    6.4478E+04 -1.1710E+03   6.5649E+04  0.000E+00  0.000E+00  0.000E+00  3.87607E+01  1.357E-01  2.000E+01  2.000E+04 -5.855E-02
   1   13   23     2     8    6.5649E+04 -3.3574E+02   6.5984E+04  0.000E+00  0.000E+00  0.000E+00  3.85116E+01  1.366E-01  2.000E+01  2.000E+04 -1.679E-02
   1   14   22     2     9    6.5984E+04  1.2890E+03   6.4695E+04  0.000E+00  0.000E+00  0.000E+00  3.82610E+01  1.360E-01  2.000E+01  2.000E+04  6.445E-02
   1   14   22     3     1    2.1784E+05 -8.9437E+03   2.2678E+05  0.000E+00  0.000E+00  0.000E+00  3.77494E+01  1.939E-01  2.000E+01  2.000E+04 -4.472E-01
   1   15   23     3     2    2.2678E+05 -9.9337E+02   2.2777E+05  0.000E+00  0.000E+00  0.000E+00  3.68631E+01  1.964E-01  2.000E+01  2.000E+04 -4.967E-02
   1   15   24     3     3    2.2777E+05 -6.5496E+02   2.2843E+05  0.000E+00  0.000E+00  0.000E+00  3.59746E+01  1.969E-01  2.000E+01  2.000E+04 -3.275E-02
   1   15   25     3     4    2.2843E+05 -6.6602E+02   2.2909E+05  0.000E+00  0.000E+00  0.000E+00  3.50861E+01  1.972E-01  2.000E+01  2.000E+04 -3.330E-02
   1   15   26     3     5    2.2909E+05 -7.7014E+02   2.2986E+05  0.000E+00  0.000E+00  0.000E+00  3.41976E+01  1.976E-01  2.000E+01  2.000E+04 -3.851E-02
   1   16   27     3     6    2.2986E+05 -8.9498E+02   2.3076E+05  0.000E+00  0.000E+00  0.000E+00  3.33091E+01  1.980E-01  2.000E+01  2.000E+04 -4.475E-02
   1   17   28     3     7    2.3076E+05 -3.2444E+03   2.3400E+05  0.000E+00  0.000E+00  0.000E+00  3.24213E+01  1.991E-01  2.000E+01  2.000E+04 -1.622E-01
   1   18   29     3     8    2.3400E+05 -5.0277E+03   2.3903E+05  0.000E+00  0.000E+00  0.000E+00  3.15345E+01  2.012E-01  2.000E+01  2.000E+04 -2.514E-01
   1   18   30     3     9    2.3903E+05 -4.6681E+03   2.4370E+05  0.000E+00  0.000E+00  0.000E+00  3.06481E+01  2.037E-01  2.000E+01  2.000E+04 -2.334E-01



1
              HEAD IN LAYER   1 AT END OF TIME STEP   1 IN STRESS PERIOD    2
  ---------------------------------------------------------------------------

          1      2      3      4      5      6      7      8      9     10
         11     12     13     14     15     16     17     18     19     20
         21     22     23     24     25     26     27     28     29     30
 .........................................................................
   1  ****** ****** ****** ****** ****** ****** ****** ****** ****** ******
      ****** ****** ****** ****** ****** ****** ****** ****** ****** ******
      ****** ****** ****** ****** ****** ****** ****** ****** ****** ******
   2  ****** ****** ****** ****** ****** ****** ****** ****** ****** ******
      ****** ****** ****** ****** ****** ****** ****** ****** ****** ******
      ****** ****** ****** ****** ****** ****** ****** ****** ****** ******
   3  ****** ****** ****** ****** ****** ****** ****** ****** ****** ******
      ****** ****** ****** ****** ****** ****** ****** ****** ****** ******
      ****** ****** ****** ****** ****** ****** ****** ****** ****** ******
   4  ****** ****** ****** ****** ****** ****** ****** ****** ****** ******
      ****** ****** ****** ****** ****** ****** ****** ****** ****** ******
      ****** ****** ****** ****** ****** ****** ****** ****** ****** ******
   5  ****** ****** ****** ****** ****** ****** ****** ****** ****** ******
      ****** ****** ****** ****** ****** ****** ****** ****** ****** ******
      ****** ****** ****** ****** ****** ****** ****** ****** ****** ******
   6  ****** ****** ****** ****** ****** ****** ****** ****** ****** ******
      ****** ****** ****** ****** ****** ****** ****** ****** ****** ******
      ****** ****** ****** ****** ****** ****** ****** ****** ****** ******
   7  ****** ****** ****** ****** ****** ****** ****** ****** ****** ******
      ****** ****** ****** ****** ****** ****** ****** ****** ****** ******
      ****** ****** ****** ****** ****** ****** ****** ****** ****** ******
   8  ****** ****** ****** ****** ****** ****** ****** ****** ****** ******
      ****** ****** ****** ****** ****** ****** ****** ****** ****** ******
      ****** ****** ****** ****** ****** ****** ****** ****** ****** ******
   9  ****** ****** ****** ****** ****** ****** ****** ****** ****** ******
      ****** ****** ****** ****** ****** ****** ****** ****** ****** ******
      ****** ****** ****** ****** ****** ****** ****** ****** ****** ******
  10  ****** ****** ****** ****** ****** ****** ****** ****** ****** ******
      ****** ****** ****** ****** ****** ****** ****** ****** ****** ******
      ****** ****** ****** ****** ****** ****** ****** ****** ****** ******
  11  ****** ****** ****** ****** ****** ****** ****** ****** ****** ******
      ****** ****** ****** ****** ****** ****** ****** ****** ****** ******
      ****** ****** ****** ****** ****** ****** ****** ****** ****** ******
  12  ****** ****** ****** ****** ****** ****** ****** ****** ****** ******
      ****** ****** ****** ****** ****** ****** ****** ****** ****** ******
      ****** ****** ****** ****** ****** ****** ****** ****** ****** ******
  13  ****** ****** ****** ****** ****** ****** ****** ****** ****** ******
      ****** ****** ****** ****** ****** ****** ****** ****** ****** ******
      ****** ****** ****** ****** ****** ****** ****** ****** ****** ******
  14  ****** ****** ****** ****** ****** ****** ****** ****** ****** ******
      ****** ****** ****** ****** ****** ****** ****** ****** ****** ******
      ****** ****** ****** ****** ****** ****** ****** ****** ****** ******
  15  ****** ****** ****** ****** ****** ****** ****** ****** ****** ******
      ****** ****** ****** ****** ****** ****** ****** ****** ****** ******
      ****** ****** ****** ****** ****** ****** ****** ****** ****** ******
  16  ****** ****** ****** ****** ****** ****** ****** ****** ****** ******
      ****** ****** ****** ****** ****** ****** ****** ****** ****** ******
      ****** ****** ****** ****** ****** ****** ****** ****** ****** ******
  17  ****** ****** ****** ****** ****** ****** ****** ****** ****** ******
      ****** ****** ****** ****** ****** ****** ****** ****** ****** ******
      ****** ****** ****** ****** ****** ****** ****** ****** ****** ******
  18  ****** ****** ****** ****** ****** ****** ****** ****** ****** ******
      ****** ****** ****** ****** ****** ****** ****** ****** ****** ******
      ****** ****** ****** ****** ****** ****** ****** ****** ****** ******
  19  ****** ****** ****** ****** ****** ****** ****** ****** ****** ******
      ****** ****** ****** ****** ****** ****** ****** ****** ****** ******
      ****** ****** ****** ****** ****** ****** ****** ****** ****** ******
  20  ****** ****** ****** ****** ****** ****** ****** ****** ****** ******
      ****** ****** ****** ****** ****** ****** ****** ****** ****** ******
      ****** ****** ****** ****** ****** ****** ****** ****** ****** ******
  21  ****** ****** ****** ****** ****** ****** ****** ****** ****** ******
      ****** ****** ****** ****** ****** ****** ****** ****** ****** ******
      ****** ****** ****** ****** ****** ****** ****** ****** ****** ******
  22  ****** ****** ****** ****** ****** ****** ****** ****** ****** ******
      ****** ****** ****** ****** ****** ****** ****** ****** ****** ******
      ****** ****** ****** ****** ****** ****** ****** ****** ****** ******
  23  ****** ****** ****** ****** ****** ****** ****** ****** ****** ******
      ****** ****** ****** ****** ****** ****** ****** ****** ****** ******
      ****** ****** ****** ****** ****** ****** ****** ****** ****** ******
  24  ****** ****** ****** ****** ****** ****** ****** ****** ****** ******
      ****** ****** ****** ****** ****** ****** ****** ****** ****** ******
      ****** ****** ****** ****** ****** ****** ****** ****** ****** ******
  25  ****** ****** ****** ****** ****** ****** ****** ****** ****** ******
      ****** ****** ****** ****** ****** ****** ****** ****** ****** ******
      ****** ****** ****** ****** ****** ****** ****** ****** ****** ******

 HEAD WILL BE SAVED ON UNIT   51 AT END OF TIME STEP    1, STRESS PERIOD    2
1
  VOLUMETRIC BUDGET FOR ENTIRE MODEL AT END OF TIME STEP    1, STRESS PERIOD   2
  ------------------------------------------------------------------------------

     CUMULATIVE VOLUMES      L**3       RATES FOR THIS TIME STEP      L**3/T
     ------------------                 ------------------------

           IN:                                      IN:
           ---                                      ---
             STORAGE =    22884003.8103               STORAGE =       55018.7231
       CONSTANT HEAD =     2772019.7549         CONSTANT HEAD =       17521.2355
               WELLS =           0.0000                 WELLS =           0.0000
            RECHARGE =     6292800.0000              RECHARGE =       55200.0000
      STREAM LEAKAGE =      918645.7381        STREAM LEAKAGE =        5899.5442

            TOTAL IN =    32867469.3033              TOTAL IN =      133639.5027

          OUT:                                     OUT:
          ----                                     ----
             STORAGE =           0.0000               STORAGE =           0.0000
       CONSTANT HEAD =           0.0000         CONSTANT HEAD =           0.0000
               WELLS =     6229596.5285                 WELLS =       34041.5111
            RECHARGE =           0.0000              RECHARGE =           0.0000
      STREAM LEAKAGE =    26637873.9912        STREAM LEAKAGE =       99598.0018

           TOTAL OUT =    32867470.5197             TOTAL OUT =      133639.5129

            IN - OUT =          -1.2163              IN - OUT =      -1.0188E-02

 PERCENT DISCREPANCY =          -0.00     PERCENT DISCREPANCY =          -0.00






         TIME SUMMARY AT END OF TIME STEP    1 IN STRESS PERIOD    2
                    SECONDS     MINUTES      HOURS       DAYS        YEARS
                    -----------------------------------------------------------
   TIME STEP LENGTH 7.86240E+06 1.31040E+05  2184.0      91.000     0.24914    
 STRESS PERIOD TIME 7.86240E+06 1.31040E+05  2184.0      91.000     0.24914    
         TOTAL TIME 1.58112E+07 2.63520E+05  4392.0      183.00     0.50103    
1
1
                            STRESS PERIOD NO.    3, LENGTH =   91.00000    
                            -----------------------------------------------

                              NUMBER OF TIME STEPS =     1

                               MULTIPLIER FOR DELT =     1.500

                            INITIAL TIME STEP SIZE =   91.00000    

 WELL NO.  LAYER   ROW   COL   STRESS RATE         
 --------------------------------------------------
      1      1     14      6       0.000    
      2      1      3      9       0.000    
      3      1     20     10       0.000    
      4      1     14     20       0.000    
      5      1      8     21      -8123.    
      6      1      4     14      -6617.    
      7      1     10     23      -7449.    
      8      1     14     17     -0.1185E+05

      8 WELLS

                 RECHARGE =   0.00000    

 REUSING STREAM SEGMENT DATA FROM LAST STRESS PERIOD
 
 SOLVING FOR HEAD 


     7 CALLS TO PCG ROUTINE FOR TIME STEP   1 IN STRESS PERIOD    3
    27 TOTAL ITERATIONS

 OUTPUT CONTROL FOR STRESS PERIOD    3   TIME STEP    1
    SAVE BUDGET
    SAVE HEAD FOR ALL LAYERS
    PRINT HEAD FOR ALL LAYERS
 UBDSV2 SAVING "STREAMFLOW OUT  " ON UNIT  50 AT TIME STEP  1, STRESS PERIOD   3



 STREAM LISTING     PERIOD      3   STEP        1

 LAYER ROW COL. STREAM  RCH.  FLOW INTO     FLOW TO   FLOW OUT OF   OVRLND.     DIRECT     STREAM       STREAM     STREAM     STREAM   STREAMBED  STREAMBED
                SEG.NO.  NO.  STRM. RCH.    AQUIFER    STRM. RCH.    RUNOFF     PRECIP       ET          HEAD       DEPTH      WIDTH   CONDCTNC.   GRADIENT

   1   13    1     1     1    1.0000E+05 -2.6826E+03   1.0268E+05  0.000E+00  0.000E+00  0.000E+00  4.84072E+01  1.458E-01  2.000E+01  2.000E+04 -1.341E-01
   1   13    2     1     2    1.0268E+05 -3.7862E+03   1.0647E+05  0.000E+00  0.000E+00  0.000E+00  4.79327E+01  1.486E-01  2.000E+01  2.000E+04 -1.893E-01
   1   14    3     1     3    1.0647E+05 -6.4996E+02   1.0712E+05  0.000E+00  0.000E+00  0.000E+00  4.74573E+01  1.505E-01  2.000E+01  2.000E+04 -3.250E-02
   1   15    4     1     4    1.0712E+05 -6.3520E+02   1.0775E+05  0.000E+00  0.000E+00  0.000E+00  4.69806E+01  1.510E-01  2.000E+01  2.000E+04 -3.176E-02
   1   16    5     1     5    1.0775E+05 -2.4484E+03   1.1020E+05  0.000E+00  0.000E+00  0.000E+00  4.65046E+01  1.523E-01  2.000E+01  2.000E+04 -1.224E-01
   1   16    6     1     6    1.1020E+05 -1.4941E+03   1.1170E+05  0.000E+00  0.000E+00  0.000E+00  4.60290E+01  1.540E-01  2.000E+01  2.000E+04 -7.471E-02
   1   16    7     1     7    1.1170E+05 -1.4540E+03   1.1315E+05  0.000E+00  0.000E+00  0.000E+00  4.55529E+01  1.552E-01  2.000E+01  2.000E+04 -7.270E-02
   1   16    8     1     8    1.1315E+05 -1.4367E+03   1.1459E+05  0.000E+00  0.000E+00  0.000E+00  4.50768E+01  1.564E-01  2.000E+01  2.000E+04 -7.183E-02
   1   16    9     1     9    1.1459E+05 -1.4108E+03   1.1600E+05  0.000E+00  0.000E+00  0.000E+00  4.46007E+01  1.575E-01  2.000E+01  2.000E+04 -7.054E-02
   1   16   10     1    10    1.1600E+05 -1.3709E+03   1.1737E+05  0.000E+00  0.000E+00  0.000E+00  4.41246E+01  1.587E-01  2.000E+01  2.000E+04 -6.854E-02
   1   16   11     1    11    1.1737E+05 -1.3380E+03   1.1871E+05  0.000E+00  0.000E+00  0.000E+00  4.36484E+01  1.598E-01  2.000E+01  2.000E+04 -6.690E-02
   1   16   12     1    12    1.1871E+05 -2.1796E+03   1.2089E+05  0.000E+00  0.000E+00  0.000E+00  4.31726E+01  1.612E-01  2.000E+01  2.000E+04 -1.090E-01
   1   15   13     1    13    1.2089E+05 -1.7976E+03   1.2268E+05  0.000E+00  0.000E+00  0.000E+00  4.26969E+01  1.628E-01  2.000E+01  2.000E+04 -8.988E-02
   1   14   14     1    14    1.2268E+05 -1.4453E+03   1.2413E+05  0.000E+00  0.000E+00  0.000E+00  4.22209E+01  1.641E-01  2.000E+01  2.000E+04 -7.226E-02
   1   13   15     1    15    1.2413E+05 -1.0067E+03   1.2514E+05  0.000E+00  0.000E+00  0.000E+00  4.17446E+01  1.651E-01  2.000E+01  2.000E+04 -5.033E-02
   1   12   16     1    16    1.2514E+05 -2.0811E+03   1.2722E+05  0.000E+00  0.000E+00  0.000E+00  4.12686E+01  1.663E-01  2.000E+01  2.000E+04 -1.041E-01
   1   12   17     1    17    1.2722E+05 -1.1379E+02   1.2733E+05  0.000E+00  0.000E+00  0.000E+00  4.07922E+01  1.672E-01  2.000E+01  2.000E+04 -5.689E-03
   1   12   18     1    18    1.2733E+05 -4.5658E+02   1.2779E+05  0.000E+00  0.000E+00  0.000E+00  4.03151E+01  1.674E-01  2.000E+01  2.000E+04 -2.283E-02
   1   12   19     1    19    1.2779E+05 -9.4264E+02   1.2873E+05  0.000E+00  0.000E+00  0.000E+00  3.98384E+01  1.679E-01  2.000E+01  2.000E+04 -4.713E-02
   1   13   20     1    20    1.2873E+05 -3.8320E+02   1.2911E+05  0.000E+00  0.000E+00  0.000E+00  3.93617E+01  1.685E-01  2.000E+01  2.000E+04 -1.916E-02
   1   14   21     1    21    1.2911E+05 -1.1601E+03   1.3027E+05  0.000E+00  0.000E+00  0.000E+00  3.88850E+01  1.691E-01  2.000E+01  2.000E+04 -5.800E-02
   1   14   22     1    22    1.3027E+05  4.9764E+03   1.2530E+05  0.000E+00  0.000E+00  0.000E+00  3.84062E+01  1.676E-01  2.000E+01  2.000E+04  2.488E-01
   1    9   30     2     1    5.0000E+04 -7.2896E+02   5.0729E+04  0.000E+00  0.000E+00  0.000E+00  4.02414E+01  1.164E-01  2.000E+01  2.000E+04 -3.645E-02
   1    9   29     2     2    5.0729E+04 -1.0042E+03   5.1733E+04  0.000E+00  0.000E+00  0.000E+00  3.99926E+01  1.176E-01  2.000E+01  2.000E+04 -5.021E-02
   1    9   28     2     3    5.1733E+04 -1.1948E+03   5.2928E+04  0.000E+00  0.000E+00  0.000E+00  3.97441E+01  1.191E-01  2.000E+01  2.000E+04 -5.974E-02
   1    9   27     2     4    5.2928E+04 -2.0607E+03   5.4989E+04  0.000E+00  0.000E+00  0.000E+00  3.94963E+01  1.213E-01  2.000E+01  2.000E+04 -1.030E-01
   1   10   26     2     5    5.4989E+04 -6.8568E+02   5.5674E+04  0.000E+00  0.000E+00  0.000E+00  3.92481E+01  1.231E-01  2.000E+01  2.000E+04 -3.428E-02
   1   11   25     2     6    5.5674E+04  1.3044E+02   5.5544E+04  0.000E+00  0.000E+00  0.000E+00  3.89985E+01  1.235E-01  2.000E+01  2.000E+04  6.522E-03
   1   12   24     2     7    5.5544E+04  2.7618E+02   5.5268E+04  0.000E+00  0.000E+00  0.000E+00  3.87482E+01  1.232E-01  2.000E+01  2.000E+04  1.381E-02
   1   13   23     2     8    5.5268E+04  1.4238E+01   5.5253E+04  0.000E+00  0.000E+00  0.000E+00  3.84980E+01  1.230E-01  2.000E+01  2.000E+04  7.119E-04
   1   14   22     2     9    5.5253E+04  1.7886E+03   5.3465E+04  0.000E+00  0.000E+00  0.000E+00  3.82468E+01  1.218E-01  2.000E+01  2.000E+04  8.943E-02
   1   14   22     3     1    1.7876E+05 -8.5863E+03   1.8735E+05  0.000E+00  0.000E+00  0.000E+00  3.77281E+01  1.725E-01  2.000E+01  2.000E+04 -4.293E-01
   1   15   23     3     2    1.8735E+05 -5.9895E+02   1.8795E+05  0.000E+00  0.000E+00  0.000E+00  3.68418E+01  1.751E-01  2.000E+01  2.000E+04 -2.995E-02
   1   15   24     3     3    1.8795E+05 -3.3191E+02   1.8828E+05  0.000E+00  0.000E+00  0.000E+00  3.59531E+01  1.754E-01  2.000E+01  2.000E+04 -1.660E-02
   1   15   25     3     4    1.8828E+05 -3.2682E+02   1.8861E+05  0.000E+00  0.000E+00  0.000E+00  3.50644E+01  1.756E-01  2.000E+01  2.000E+04 -1.634E-02
   1   15   26     3     5    1.8861E+05 -3.6631E+02   1.8897E+05  0.000E+00  0.000E+00  0.000E+00  3.41757E+01  1.757E-01  2.000E+01  2.000E+04 -1.832E-02
   1   16   27     3     6    1.8897E+05 -4.2946E+02   1.8940E+05  0.000E+00  0.000E+00  0.000E+00  3.32871E+01  1.760E-01  2.000E+01  2.000E+04 -2.147E-02
   1   17   28     3     7    1.8940E+05 -1.8323E+03   1.9123E+05  0.000E+00  0.000E+00  0.000E+00  3.23988E+01  1.766E-01  2.000E+01  2.000E+04 -9.161E-02
   1   18   29     3     8    1.9123E+05 -3.5096E+03   1.9474E+05  0.000E+00  0.000E+00  0.000E+00  3.15114E+01  1.781E-01  2.000E+01  2.000E+04 -1.755E-01
   1   18   30     3     9    1.9474E+05 -3.5311E+03   1.9827E+05  0.000E+00  0.000E+00  0.000E+00  3.06245E+01  1.800E-01  2.000E+01  2.000E+04 -1.766E-01



1
              HEAD IN LAYER   1 AT END OF TIME STEP   1 IN STRESS PERIOD    3
  ---------------------------------------------------------------------------

          1      2      3      4      5      6      7      8      9     10
         11     12     13     14     15     16     17     18     19     20
         21     22     23     24     25     26     27     28     29     30
 .........................................................................
   1  ****** ****** ****** ****** ****** ****** ****** ****** ****** ******
      ****** ****** ****** ****** ****** ****** ****** ****** ****** ******
      ****** ****** ****** ****** ****** ****** ****** ****** ****** ******
   2  ****** ****** ****** ****** ****** ****** ****** ****** ****** ******
      ****** ****** ****** ****** ****** ****** ****** ****** ****** ******
      ****** ****** ****** ****** ****** ****** ****** ****** ****** ******
   3  ****** ****** ****** ****** ****** ****** ****** ****** ****** ******
      ****** ****** ****** ****** ****** ****** ****** ****** ****** ******
      ****** ****** ****** ****** ****** ****** ****** ****** ****** ******
   4  ****** ****** ****** ****** ****** ****** ****** ****** ****** ******
      ****** ****** ****** ****** ****** ****** ****** ****** ****** ******
      ****** ****** ****** ****** ****** ****** ****** ****** ****** ******
   5  ****** ****** ****** ****** ****** ****** ****** ****** ****** ******
      ****** ****** ****** ****** ****** ****** ****** ****** ****** ******
      ****** ****** ****** ****** ****** ****** ****** ****** ****** ******
   6  ****** ****** ****** ****** ****** ****** ****** ****** ****** ******
      ****** ****** ****** ****** ****** ****** ****** ****** ****** ******
      ****** ****** ****** ****** ****** ****** ****** ****** ****** ******
   7  ****** ****** ****** ****** ****** ****** ****** ****** ****** ******
      ****** ****** ****** ****** ****** ****** ****** ****** ****** ******
      ****** ****** ****** ****** ****** ****** ****** ****** ****** ******
   8  ****** ****** ****** ****** ****** ****** ****** ****** ****** ******
      ****** ****** ****** ****** ****** ****** ****** ****** ****** ******
      ****** ****** ****** ****** ****** ****** ****** ****** ****** ******
   9  ****** ****** ****** ****** ****** ****** ****** ****** ****** ******
      ****** ****** ****** ****** ****** ****** ****** ****** ****** ******
      ****** ****** ****** ****** ****** ****** ****** ****** ****** ******
  10  ****** ****** ****** ****** ****** ****** ****** ****** ****** ******
      ****** ****** ****** ****** ****** ****** ****** ****** ****** ******
      ****** ****** ****** ****** ****** ****** ****** ****** ****** ******
  11  ****** ****** ****** ****** ****** ****** ****** ****** ****** ******
      ****** ****** ****** ****** ****** ****** ****** ****** ****** ******
      ****** ****** ****** ****** ****** ****** ****** ****** ****** ******
  12  ****** ****** ****** ****** ****** ****** ****** ****** ****** ******
      ****** ****** ****** ****** ****** ****** ****** ****** ****** ******
      ****** ****** ****** ****** ****** ****** ****** ****** ****** ******
  13  ****** ****** ****** ****** ****** ****** ****** ****** ****** ******
      ****** ****** ****** ****** ****** ****** ****** ****** ****** ******
      ****** ****** ****** ****** ****** ****** ****** ****** ****** ******
  14  ****** ****** ****** ****** ****** ****** ****** ****** ****** ******
      ****** ****** ****** ****** ****** ****** ****** ****** ****** ******
      ****** ****** ****** ****** ****** ****** ****** ****** ****** ******
  15  ****** ****** ****** ****** ****** ****** ****** ****** ****** ******
      ****** ****** ****** ****** ****** ****** ****** ****** ****** ******
      ****** ****** ****** ****** ****** ****** ****** ****** ****** ******
  16  ****** ****** ****** ****** ****** ****** ****** ****** ****** ******
      ****** ****** ****** ****** ****** ****** ****** ****** ****** ******
      ****** ****** ****** ****** ****** ****** ****** ****** ****** ******
  17  ****** ****** ****** ****** ****** ****** ****** ****** ****** ******
      ****** ****** ****** ****** ****** ****** ****** ****** ****** ******
      ****** ****** ****** ****** ****** ****** ****** ****** ****** ******
  18  ****** ****** ****** ****** ****** ****** ****** ****** ****** ******
      ****** ****** ****** ****** ****** ****** ****** ****** ****** ******
      ****** ****** ****** ****** ****** ****** ****** ****** ****** ******
  19  ****** ****** ****** ****** ****** ****** ****** ****** ****** ******
      ****** ****** ****** ****** ****** ****** ****** ****** ****** ******
      ****** ****** ****** ****** ****** ****** ****** ****** ****** ******
  20  ****** ****** ****** ****** ****** ****** ****** ****** ****** ******
      ****** ****** ****** ****** ****** ****** ****** ****** ****** ******
      ****** ****** ****** ****** ****** ****** ****** ****** ****** ******
  21  ****** ****** ****** ****** ****** ****** ****** ****** ****** ******
      ****** ****** ****** ****** ****** ****** ****** ****** ****** ******
      ****** ****** ****** ****** ****** ****** ****** ****** ****** ******
  22  ****** ****** ****** ****** ****** ****** ****** ****** ****** ******
      ****** ****** ****** ****** ****** ****** ****** ****** ****** ******
      ****** ****** ****** ****** ****** ****** ****** ****** ****** ******
  23  ****** ****** ****** ****** ****** ****** ****** ****** ****** ******
      ****** ****** ****** ****** ****** ****** ****** ****** ****** ******
      ****** ****** ****** ****** ****** ****** ****** ****** ****** ******
  24  ****** ****** ****** ****** ****** ****** ****** ****** ****** ******
      ****** ****** ****** ****** ****** ****** ****** ****** ****** ******
      ****** ****** ****** ****** ****** ****** ****** ****** ****** ******
  25  ****** ****** ****** ****** ****** ****** ****** ****** ****** ******
      ****** ****** ****** ****** ****** ****** ****** ****** ****** ******
      ****** ****** ****** ****** ****** ****** ****** ****** ****** ******

 HEAD WILL BE SAVED ON UNIT   51 AT END OF TIME STEP    1, STRESS PERIOD    3
1
  VOLUMETRIC BUDGET FOR ENTIRE MODEL AT END OF TIME STEP    1, STRESS PERIOD   3
  ------------------------------------------------------------------------------

     CUMULATIVE VOLUMES      L**3       RATES FOR THIS TIME STEP      L**3/T
     ------------------                 ------------------------

           IN:                                      IN:
           ---                                      ---
             STORAGE =    27988083.4018               STORAGE =       56088.7867
       CONSTANT HEAD =     5158696.5888         CONSTANT HEAD =       26227.2180
               WELLS =           0.0000                 WELLS =           0.0000
            RECHARGE =     6292800.0000              RECHARGE =           0.0000
      STREAM LEAKAGE =     1572561.4405        STREAM LEAKAGE =        7185.8868

            TOTAL IN =    41012141.4311              TOTAL IN =       89501.8915

          OUT:                                     OUT:
          ----                                     ----
             STORAGE =           0.0000               STORAGE =           0.0000
       CONSTANT HEAD =           0.0000         CONSTANT HEAD =           0.0000
               WELLS =     9327374.0372                 WELLS =       34041.5111
            RECHARGE =           0.0000              RECHARGE =           0.0000
      STREAM LEAKAGE =    31684769.2993        STREAM LEAKAGE =       55460.3880

           TOTAL OUT =    41012143.3365             TOTAL OUT =       89501.8991

            IN - OUT =          -1.9054              IN - OUT =      -7.5721E-03

 PERCENT DISCREPANCY =          -0.00     PERCENT DISCREPANCY =          -0.00






         TIME SUMMARY AT END OF TIME STEP    1 IN STRESS PERIOD    3
                    SECONDS     MINUTES      HOURS       DAYS        YEARS
                    -----------------------------------------------------------
   TIME STEP LENGTH 7.86240E+06 1.31040E+05  2184.0      91.000     0.24914    
 STRESS PERIOD TIME 7.86240E+06 1.31040E+05  2184.0      91.000     0.24914    
         TOTAL TIME 2.36736E+07 3.94560E+05  6576.0      274.00     0.75017    
1
1
                            STRESS PERIOD NO.    4, LENGTH =   91.00000    
                            -----------------------------------------------

                              NUMBER OF TIME STEPS =     1

                               MULTIPLIER FOR DELT =     1.500

                            INITIAL TIME STEP SIZE =   91.00000    

 WELL NO.  LAYER   ROW   COL   STRESS RATE         
 --------------------------------------------------
      1      1     14      6       0.000    
      2      1      3      9       0.000    
      3      1     20     10       0.000    
      4      1     14     20       0.000    
      5      1      8     21      -8123.    
      6      1      4     14      -6617.    
      7      1     10     23      -7449.    
      8      1     14     17     -0.1185E+05

      8 WELLS

                 RECHARGE =  1.000000E-03

 REUSING STREAM SEGMENT DATA FROM LAST STRESS PERIOD
 
 SOLVING FOR HEAD 


     6 CALLS TO PCG ROUTINE FOR TIME STEP   1 IN STRESS PERIOD    4
    23 TOTAL ITERATIONS

 OUTPUT CONTROL FOR STRESS PERIOD    4   TIME STEP    1
    SAVE BUDGET
    SAVE HEAD FOR ALL LAYERS
    PRINT HEAD FOR ALL LAYERS
 UBDSV2 SAVING "STREAMFLOW OUT  " ON UNIT  50 AT TIME STEP  1, STRESS PERIOD   4



 STREAM LISTING     PERIOD      4   STEP        1

 LAYER ROW COL. STREAM  RCH.  FLOW INTO     FLOW TO   FLOW OUT OF   OVRLND.     DIRECT     STREAM       STREAM     STREAM     STREAM   STREAMBED  STREAMBED
                SEG.NO.  NO.  STRM. RCH.    AQUIFER    STRM. RCH.    RUNOFF     PRECIP       ET          HEAD       DEPTH      WIDTH   CONDCTNC.   GRADIENT

   1   13    1     1     1    1.0000E+05 -2.4226E+03   1.0242E+05  0.000E+00  0.000E+00  0.000E+00  4.84071E+01  1.457E-01  2.000E+01  2.000E+04 -1.211E-01
   1   13    2     1     2    1.0242E+05 -3.4855E+03   1.0591E+05  0.000E+00  0.000E+00  0.000E+00  4.79323E+01  1.482E-01  2.000E+01  2.000E+04 -1.743E-01
   1   14    3     1     3    1.0591E+05 -6.1915E+02   1.0653E+05  0.000E+00  0.000E+00  0.000E+00  4.74568E+01  1.500E-01  2.000E+01  2.000E+04 -3.096E-02
   1   15    4     1     4    1.0653E+05 -5.9545E+02   1.0712E+05  0.000E+00  0.000E+00  0.000E+00  4.69800E+01  1.505E-01  2.000E+01  2.000E+04 -2.977E-02
   1   16    5     1     5    1.0712E+05 -2.1474E+03   1.0927E+05  0.000E+00  0.000E+00  0.000E+00  4.65039E+01  1.517E-01  2.000E+01  2.000E+04 -1.074E-01
   1   16    6     1     6    1.0927E+05 -1.3453E+03   1.1062E+05  0.000E+00  0.000E+00  0.000E+00  4.60281E+01  1.531E-01  2.000E+01  2.000E+04 -6.727E-02
   1   16    7     1     7    1.1062E+05 -1.3162E+03   1.1193E+05  0.000E+00  0.000E+00  0.000E+00  4.55520E+01  1.542E-01  2.000E+01  2.000E+04 -6.581E-02
   1   16    8     1     8    1.1193E+05 -1.3029E+03   1.1323E+05  0.000E+00  0.000E+00  0.000E+00  4.50758E+01  1.553E-01  2.000E+01  2.000E+04 -6.515E-02
   1   16    9     1     9    1.1323E+05 -1.2798E+03   1.1451E+05  0.000E+00  0.000E+00  0.000E+00  4.45996E+01  1.564E-01  2.000E+01  2.000E+04 -6.399E-02
   1   16   10     1    10    1.1451E+05 -1.2435E+03   1.1576E+05  0.000E+00  0.000E+00  0.000E+00  4.41233E+01  1.574E-01  2.000E+01  2.000E+04 -6.217E-02
   1   16   11     1    11    1.1576E+05 -1.2111E+03   1.1697E+05  0.000E+00  0.000E+00  0.000E+00  4.36471E+01  1.584E-01  2.000E+01  2.000E+04 -6.055E-02
   1   16   12     1    12    1.1697E+05 -1.9091E+03   1.1888E+05  0.000E+00  0.000E+00  0.000E+00  4.31711E+01  1.597E-01  2.000E+01  2.000E+04 -9.545E-02
   1   15   13     1    13    1.1888E+05 -1.5325E+03   1.2041E+05  0.000E+00  0.000E+00  0.000E+00  4.26952E+01  1.611E-01  2.000E+01  2.000E+04 -7.663E-02
   1   14   14     1    14    1.2041E+05 -1.1457E+03   1.2156E+05  0.000E+00  0.000E+00  0.000E+00  4.22190E+01  1.622E-01  2.000E+01  2.000E+04 -5.728E-02
   1   13   15     1    15    1.2156E+05 -6.6854E+02   1.2222E+05  0.000E+00  0.000E+00  0.000E+00  4.17424E+01  1.629E-01  2.000E+01  2.000E+04 -3.343E-02
   1   12   16     1    16    1.2222E+05 -1.6195E+03   1.2384E+05  0.000E+00  0.000E+00  0.000E+00  4.12661E+01  1.638E-01  2.000E+01  2.000E+04 -8.098E-02
   1   12   17     1    17    1.2384E+05  1.6120E+02   1.2368E+05  0.000E+00  0.000E+00  0.000E+00  4.07894E+01  1.644E-01  2.000E+01  2.000E+04  8.060E-03
   1   12   18     1    18    1.2368E+05 -2.0103E+02   1.2388E+05  0.000E+00  0.000E+00  0.000E+00  4.03121E+01  1.644E-01  2.000E+01  2.000E+04 -1.005E-02
   1   12   19     1    19    1.2388E+05 -6.1934E+02   1.2450E+05  0.000E+00  0.000E+00  0.000E+00  3.98352E+01  1.647E-01  2.000E+01  2.000E+04 -3.097E-02
   1   13   20     1    20    1.2450E+05 -1.8825E+02   1.2469E+05  0.000E+00  0.000E+00  0.000E+00  3.93582E+01  1.651E-01  2.000E+01  2.000E+04 -9.412E-03
   1   14   21     1    21    1.2469E+05 -9.2534E+02   1.2562E+05  0.000E+00  0.000E+00  0.000E+00  3.88814E+01  1.655E-01  2.000E+01  2.000E+04 -4.627E-02
   1   14   22     1    22    1.2562E+05  5.0136E+03   1.2060E+05  0.000E+00  0.000E+00  0.000E+00  3.84025E+01  1.639E-01  2.000E+01  2.000E+04  2.507E-01
   1    9   30     2     1    5.0000E+04 -6.2053E+02   5.0621E+04  0.000E+00  0.000E+00  0.000E+00  4.02413E+01  1.163E-01  2.000E+01  2.000E+04 -3.103E-02
   1    9   29     2     2    5.0621E+04 -8.8713E+02   5.1508E+04  0.000E+00  0.000E+00  0.000E+00  3.99923E+01  1.173E-01  2.000E+01  2.000E+04 -4.436E-02
   1    9   28     2     3    5.1508E+04 -1.0533E+03   5.2561E+04  0.000E+00  0.000E+00  0.000E+00  3.97437E+01  1.187E-01  2.000E+01  2.000E+04 -5.267E-02
   1    9   27     2     4    5.2561E+04 -1.7408E+03   5.4302E+04  0.000E+00  0.000E+00  0.000E+00  3.94956E+01  1.206E-01  2.000E+01  2.000E+04 -8.704E-02
   1   10   26     2     5    5.4302E+04 -4.8727E+02   5.4789E+04  0.000E+00  0.000E+00  0.000E+00  3.92471E+01  1.221E-01  2.000E+01  2.000E+04 -2.436E-02
   1   11   25     2     6    5.4789E+04  2.8488E+02   5.4504E+04  0.000E+00  0.000E+00  0.000E+00  3.89972E+01  1.222E-01  2.000E+01  2.000E+04  1.424E-02
   1   12   24     2     7    5.4504E+04  4.1218E+02   5.4092E+04  0.000E+00  0.000E+00  0.000E+00  3.87467E+01  1.217E-01  2.000E+01  2.000E+04  2.061E-02
   1   13   23     2     8    5.4092E+04 -5.5849E+00   5.4098E+04  0.000E+00  0.000E+00  0.000E+00  3.84965E+01  1.215E-01  2.000E+01  2.000E+04 -2.792E-04
   1   14   22     2     9    5.4098E+04  1.8677E+03   5.2230E+04  0.000E+00  0.000E+00  0.000E+00  3.82452E+01  1.202E-01  2.000E+01  2.000E+04  9.338E-02
   1   14   22     3     1    1.7283E+05 -8.5427E+03   1.8138E+05  0.000E+00  0.000E+00  0.000E+00  3.77247E+01  1.691E-01  2.000E+01  2.000E+04 -4.271E-01
   1   15   23     3     2    1.8138E+05 -5.7633E+02   1.8195E+05  0.000E+00  0.000E+00  0.000E+00  3.68384E+01  1.717E-01  2.000E+01  2.000E+04 -2.882E-02
   1   15   24     3     3    1.8195E+05 -3.3177E+02   1.8228E+05  0.000E+00  0.000E+00  0.000E+00  3.59498E+01  1.720E-01  2.000E+01  2.000E+04 -1.659E-02
   1   15   25     3     4    1.8228E+05 -3.2655E+02   1.8261E+05  0.000E+00  0.000E+00  0.000E+00  3.50611E+01  1.722E-01  2.000E+01  2.000E+04 -1.633E-02
   1   15   26     3     5    1.8261E+05 -3.7574E+02   1.8299E+05  0.000E+00  0.000E+00  0.000E+00  3.41724E+01  1.724E-01  2.000E+01  2.000E+04 -1.879E-02
   1   16   27     3     6    1.8299E+05 -4.3044E+02   1.8342E+05  0.000E+00  0.000E+00  0.000E+00  3.32837E+01  1.726E-01  2.000E+01  2.000E+04 -2.152E-02
   1   17   28     3     7    1.8342E+05 -1.7712E+03   1.8519E+05  0.000E+00  0.000E+00  0.000E+00  3.23955E+01  1.732E-01  2.000E+01  2.000E+04 -8.856E-02
   1   18   29     3     8    1.8519E+05 -3.2975E+03   1.8849E+05  0.000E+00  0.000E+00  0.000E+00  3.15080E+01  1.747E-01  2.000E+01  2.000E+04 -1.649E-01
   1   18   30     3     9    1.8849E+05 -3.4265E+03   1.9191E+05  0.000E+00  0.000E+00  0.000E+00  3.06210E+01  1.765E-01  2.000E+01  2.000E+04 -1.713E-01



1
              HEAD IN LAYER   1 AT END OF TIME STEP   1 IN STRESS PERIOD    4
  ---------------------------------------------------------------------------

          1      2      3      4      5      6      7      8      9     10
         11     12     13     14     15     16     17     18     19     20
         21     22     23     24     25     26     27     28     29     30
 .........................................................................
   1  ****** ****** ****** ****** ****** ****** ****** ****** ****** ******
      ****** ****** ****** ****** ****** ****** ****** ****** ****** ******
      ****** ****** ****** ****** ****** ****** ****** ****** ****** ******
   2  ****** ****** ****** ****** ****** ****** ****** ****** ****** ******
      ****** ****** ****** ****** ****** ****** ****** ****** ****** ******
      ****** ****** ****** ****** ****** ****** ****** ****** ****** ******
   3  ****** ****** ****** ****** ****** ****** ****** ****** ****** ******
      ****** ****** ****** ****** ****** ****** ****** ****** ****** ******
      ****** ****** ****** ****** ****** ****** ****** ****** ****** ******
   4  ****** ****** ****** ****** ****** ****** ****** ****** ****** ******
      ****** ****** ****** ****** ****** ****** ****** ****** ****** ******
      ****** ****** ****** ****** ****** ****** ****** ****** ****** ******
   5  ****** ****** ****** ****** ****** ****** ****** ****** ****** ******
      ****** ****** ****** ****** ****** ****** ****** ****** ****** ******
      ****** ****** ****** ****** ****** ****** ****** ****** ****** ******
   6  ****** ****** ****** ****** ****** ****** ****** ****** ****** ******
      ****** ****** ****** ****** ****** ****** ****** ****** ****** ******
      ****** ****** ****** ****** ****** ****** ****** ****** ****** ******
   7  ****** ****** ****** ****** ****** ****** ****** ****** ****** ******
      ****** ****** ****** ****** ****** ****** ****** ****** ****** ******
      ****** ****** ****** ****** ****** ****** ****** ****** ****** ******
   8  ****** ****** ****** ****** ****** ****** ****** ****** ****** ******
      ****** ****** ****** ****** ****** ****** ****** ****** ****** ******
      ****** ****** ****** ****** ****** ****** ****** ****** ****** ******
   9  ****** ****** ****** ****** ****** ****** ****** ****** ****** ******
      ****** ****** ****** ****** ****** ****** ****** ****** ****** ******
      ****** ****** ****** ****** ****** ****** ****** ****** ****** ******
  10  ****** ****** ****** ****** ****** ****** ****** ****** ****** ******
      ****** ****** ****** ****** ****** ****** ****** ****** ****** ******
      ****** ****** ****** ****** ****** ****** ****** ****** ****** ******
  11  ****** ****** ****** ****** ****** ****** ****** ****** ****** ******
      ****** ****** ****** ****** ****** ****** ****** ****** ****** ******
      ****** ****** ****** ****** ****** ****** ****** ****** ****** ******
  12  ****** ****** ****** ****** ****** ****** ****** ****** ****** ******
      ****** ****** ****** ****** ****** ****** ****** ****** ****** ******
      ****** ****** ****** ****** ****** ****** ****** ****** ****** ******
  13  ****** ****** ****** ****** ****** ****** ****** ****** ****** ******
      ****** ****** ****** ****** ****** ****** ****** ****** ****** ******
      ****** ****** ****** ****** ****** ****** ****** ****** ****** ******
  14  ****** ****** ****** ****** ****** ****** ****** ****** ****** ******
      ****** ****** ****** ****** ****** ****** ****** ****** ****** ******
      ****** ****** ****** ****** ****** ****** ****** ****** ****** ******
  15  ****** ****** ****** ****** ****** ****** ****** ****** ****** ******
      ****** ****** ****** ****** ****** ****** ****** ****** ****** ******
      ****** ****** ****** ****** ****** ****** ****** ****** ****** ******
  16  ****** ****** ****** ****** ****** ****** ****** ****** ****** ******
      ****** ****** ****** ****** ****** ****** ****** ****** ****** ******
      ****** ****** ****** ****** ****** ****** ****** ****** ****** ******
  17  ****** ****** ****** ****** ****** ****** ****** ****** ****** ******
      ****** ****** ****** ****** ****** ****** ****** ****** ****** ******
      ****** ****** ****** ****** ****** ****** ****** ****** ****** ******
  18  ****** ****** ****** ****** ****** ****** ****** ****** ****** ******
      ****** ****** ****** ****** ****** ****** ****** ****** ****** ******
      ****** ****** ****** ****** ****** ****** ****** ****** ****** ******
  19  ****** ****** ****** ****** ****** ****** ****** ****** ****** ******
      ****** ****** ****** ****** ****** ****** ****** ****** ****** ******
      ****** ****** ****** ****** ****** ****** ****** ****** ****** ******
  20  ****** ****** ****** ****** ****** ****** ****** ****** ****** ******
      ****** ****** ****** ****** ****** ****** ****** ****** ****** ******
      ****** ****** ****** ****** ****** ****** ****** ****** ****** ******
  21  ****** ****** ****** ****** ****** ****** ****** ****** ****** ******
      ****** ****** ****** ****** ****** ****** ****** ****** ****** ******
      ****** ****** ****** ****** ****** ****** ****** ****** ****** ******
  22  ****** ****** ****** ****** ****** ****** ****** ****** ****** ******
      ****** ****** ****** ****** ****** ****** ****** ****** ****** ******
      ****** ****** ****** ****** ****** ****** ****** ****** ****** ******
  23  ****** ****** ****** ****** ****** ****** ****** ****** ****** ******
      ****** ****** ****** ****** ****** ****** ****** ****** ****** ******
      ****** ****** ****** ****** ****** ****** ****** ****** ****** ******
  24  ****** ****** ****** ****** ****** ****** ****** ****** ****** ******
      ****** ****** ****** ****** ****** ****** ****** ****** ****** ******
      ****** ****** ****** ****** ****** ****** ****** ****** ****** ******
  25  ****** ****** ****** ****** ****** ****** ****** ****** ****** ******
      ****** ****** ****** ****** ****** ****** ****** ****** ****** ******
      ****** ****** ****** ****** ****** ****** ****** ****** ****** ******

 HEAD WILL BE SAVED ON UNIT   51 AT END OF TIME STEP    1, STRESS PERIOD    4
1
  VOLUMETRIC BUDGET FOR ENTIRE MODEL AT END OF TIME STEP    1, STRESS PERIOD   4
  ------------------------------------------------------------------------------

     CUMULATIVE VOLUMES      L**3       RATES FOR THIS TIME STEP      L**3/T
     ------------------                 ------------------------

           IN:                                      IN:
           ---                                      ---
             STORAGE =    29755233.9225               STORAGE =       19419.2365
       CONSTANT HEAD =     7792891.7364         CONSTANT HEAD =       28947.1994
               WELLS =           0.0000                 WELLS =           0.0000
            RECHARGE =     8804400.0000              RECHARGE =       27600.0000
      STREAM LEAKAGE =     2276857.2709        STREAM LEAKAGE =        7739.5146

            TOTAL IN =    48629382.9298              TOTAL IN =       83705.9505

          OUT:                                     OUT:
          ----                                     ----
             STORAGE =        1160.3309               STORAGE =          12.7509
       CONSTANT HEAD =           0.0000         CONSTANT HEAD =           0.0000
               WELLS =    12425151.5459                 WELLS =       34041.5111
            RECHARGE =           0.0000              RECHARGE =           0.0000
      STREAM LEAKAGE =    36203073.0359        STREAM LEAKAGE =       49651.6894

           TOTAL OUT =    48629384.9128             TOTAL OUT =       83705.9514

            IN - OUT =          -1.9830              IN - OUT =      -8.5273E-04

 PERCENT DISCREPANCY =          -0.00     PERCENT DISCREPANCY =          -0.00






         TIME SUMMARY AT END OF TIME STEP    1 IN STRESS PERIOD    4
                    SECONDS     MINUTES      HOURS       DAYS        YEARS
                    -----------------------------------------------------------
   TIME STEP LENGTH 7.86240E+06 1.31040E+05  2184.0      91.000     0.24914    
 STRESS PERIOD TIME 7.86240E+06 1.31040E+05  2184.0      91.000     0.24914    
         TOTAL TIME 3.15360E+07 5.25600E+05  8760.0      365.00     0.99932    
1
1
                            STRESS PERIOD NO.    5, LENGTH =   92.00000    
                            -----------------------------------------------

                              NUMBER OF TIME STEPS =     1

                               MULTIPLIER FOR DELT =     1.500

                            INITIAL TIME STEP SIZE =   92.00000    

 WELL NO.  LAYER   ROW   COL   STRESS RATE         
 --------------------------------------------------
      1      1     14      6       0.000    
      2      1      3      9       0.000    
      3      1     20     10       0.000    
      4      1     14     20       0.000    
      5      1      8     21      -8123.    
      6      1      4     14      -6617.    
      7      1     10     23      -7449.    
      8      1     14     17     -0.1185E+05

      8 WELLS

                 RECHARGE =  5.000000E-04

 REUSING STREAM SEGMENT DATA FROM LAST STRESS PERIOD
 
 SOLVING FOR HEAD 


     7 CALLS TO PCG ROUTINE FOR TIME STEP   1 IN STRESS PERIOD    5
    26 TOTAL ITERATIONS

 OUTPUT CONTROL FOR STRESS PERIOD    5   TIME STEP    1
    SAVE BUDGET
    SAVE HEAD FOR ALL LAYERS
    PRINT HEAD FOR ALL LAYERS
 UBDSV2 SAVING "STREAMFLOW OUT  " ON UNIT  50 AT TIME STEP  1, STRESS PERIOD   5



 STREAM LISTING     PERIOD      5   STEP        1

 LAYER ROW COL. STREAM  RCH.  FLOW INTO     FLOW TO   FLOW OUT OF   OVRLND.     DIRECT     STREAM       STREAM     STREAM     STREAM   STREAMBED  STREAMBED
                SEG.NO.  NO.  STRM. RCH.    AQUIFER    STRM. RCH.    RUNOFF     PRECIP       ET          HEAD       DEPTH      WIDTH   CONDCTNC.   GRADIENT

   1   13    1     1     1    1.0000E+05 -1.9871E+03   1.0199E+05  0.000E+00  0.000E+00  0.000E+00  4.84069E+01  1.455E-01  2.000E+01  2.000E+04 -9.936E-02
   1   13    2     1     2    1.0199E+05 -2.9934E+03   1.0498E+05  0.000E+00  0.000E+00  0.000E+00  4.79317E+01  1.477E-01  2.000E+01  2.000E+04 -1.497E-01
   1   14    3     1     3    1.0498E+05 -4.9467E+02   1.0548E+05  0.000E+00  0.000E+00  0.000E+00  4.74560E+01  1.491E-01  2.000E+01  2.000E+04 -2.473E-02
   1   15    4     1     4    1.0548E+05 -4.6522E+02   1.0594E+05  0.000E+00  0.000E+00  0.000E+00  4.69791E+01  1.496E-01  2.000E+01  2.000E+04 -2.326E-02
   1   16    5     1     5    1.0594E+05 -1.7176E+03   1.0766E+05  0.000E+00  0.000E+00  0.000E+00  4.65027E+01  1.505E-01  2.000E+01  2.000E+04 -8.588E-02
   1   16    6     1     6    1.0766E+05 -1.0929E+03   1.0875E+05  0.000E+00  0.000E+00  0.000E+00  4.60267E+01  1.517E-01  2.000E+01  2.000E+04 -5.464E-02
   1   16    7     1     7    1.0875E+05 -1.0739E+03   1.0982E+05  0.000E+00  0.000E+00  0.000E+00  4.55503E+01  1.526E-01  2.000E+01  2.000E+04 -5.369E-02
   1   16    8     1     8    1.0982E+05 -1.0642E+03   1.1089E+05  0.000E+00  0.000E+00  0.000E+00  4.50739E+01  1.535E-01  2.000E+01  2.000E+04 -5.321E-02
   1   16    9     1     9    1.1089E+05 -1.0443E+03   1.1193E+05  0.000E+00  0.000E+00  0.000E+00  4.45975E+01  1.543E-01  2.000E+01  2.000E+04 -5.221E-02
   1   16   10     1    10    1.1193E+05 -1.0118E+03   1.1294E+05  0.000E+00  0.000E+00  0.000E+00  4.41211E+01  1.552E-01  2.000E+01  2.000E+04 -5.059E-02
   1   16   11     1    11    1.1294E+05 -9.7958E+02   1.1392E+05  0.000E+00  0.000E+00  0.000E+00  4.36447E+01  1.560E-01  2.000E+01  2.000E+04 -4.898E-02
   1   16   12     1    12    1.1392E+05 -1.4929E+03   1.1542E+05  0.000E+00  0.000E+00  0.000E+00  4.31684E+01  1.570E-01  2.000E+01  2.000E+04 -7.464E-02
   1   15   13     1    13    1.1542E+05 -1.0853E+03   1.1650E+05  0.000E+00  0.000E+00  0.000E+00  4.26922E+01  1.581E-01  2.000E+01  2.000E+04 -5.427E-02
   1   14   14     1    14    1.1650E+05 -6.6321E+02   1.1717E+05  0.000E+00  0.000E+00  0.000E+00  4.22156E+01  1.588E-01  2.000E+01  2.000E+04 -3.316E-02
   1   13   15     1    15    1.1717E+05 -1.6075E+02   1.1733E+05  0.000E+00  0.000E+00  0.000E+00  4.17387E+01  1.591E-01  2.000E+01  2.000E+04 -8.037E-03
   1   12   16     1    16    1.1733E+05 -1.0503E+03   1.1838E+05  0.000E+00  0.000E+00  0.000E+00  4.12619E+01  1.596E-01  2.000E+01  2.000E+04 -5.251E-02
   1   12   17     1    17    1.1838E+05  5.3823E+02   1.1784E+05  0.000E+00  0.000E+00  0.000E+00  4.07848E+01  1.598E-01  2.000E+01  2.000E+04  2.691E-02
   1   12   18     1    18    1.1784E+05  1.5666E+02   1.1768E+05  0.000E+00  0.000E+00  0.000E+00  4.03073E+01  1.596E-01  2.000E+01  2.000E+04  7.833E-03
   1   12   19     1    19    1.1768E+05 -1.8286E+02   1.1786E+05  0.000E+00  0.000E+00  0.000E+00  3.98300E+01  1.596E-01  2.000E+01  2.000E+04 -9.143E-03
   1   13   20     1    20    1.1786E+05  1.7791E+02   1.1769E+05  0.000E+00  0.000E+00  0.000E+00  3.93528E+01  1.596E-01  2.000E+01  2.000E+04  8.895E-03
   1   14   21     1    21    1.1769E+05 -5.4631E+02   1.1823E+05  0.000E+00  0.000E+00  0.000E+00  3.88756E+01  1.597E-01  2.000E+01  2.000E+04 -2.732E-02
   1   14   22     1    22    1.1823E+05  5.0930E+03   1.1314E+05  0.000E+00  0.000E+00  0.000E+00  3.83965E+01  1.579E-01  2.000E+01  2.000E+04  2.547E-01
   1    9   30     2     1    5.0000E+04 -3.7880E+02   5.0379E+04  0.000E+00  0.000E+00  0.000E+00  4.02411E+01  1.161E-01  2.000E+01  2.000E+04 -1.894E-02
   1    9   29     2     2    5.0379E+04 -6.4112E+02   5.1020E+04  0.000E+00  0.000E+00  0.000E+00  3.99918E+01  1.168E-01  2.000E+01  2.000E+04 -3.206E-02
   1    9   28     2     3    5.1020E+04 -7.9351E+02   5.1813E+04  0.000E+00  0.000E+00  0.000E+00  3.97428E+01  1.178E-01  2.000E+01  2.000E+04 -3.968E-02
   1    9   27     2     4    5.1813E+04 -1.3256E+03   5.3139E+04  0.000E+00  0.000E+00  0.000E+00  3.94943E+01  1.193E-01  2.000E+01  2.000E+04 -6.628E-02
   1   10   26     2     5    5.3139E+04 -1.2698E+02   5.3266E+04  0.000E+00  0.000E+00  0.000E+00  3.92453E+01  1.203E-01  2.000E+01  2.000E+04 -6.349E-03
   1   11   25     2     6    5.3266E+04  6.1521E+02   5.2651E+04  0.000E+00  0.000E+00  0.000E+00  3.89949E+01  1.199E-01  2.000E+01  2.000E+04  3.076E-02
   1   12   24     2     7    5.2651E+04  7.1481E+02   5.1936E+04  0.000E+00  0.000E+00  0.000E+00  3.87440E+01  1.190E-01  2.000E+01  2.000E+04  3.574E-02
   1   13   23     2     8    5.1936E+04  6.5659E+01   5.1870E+04  0.000E+00  0.000E+00  0.000E+00  3.84935E+01  1.185E-01  2.000E+01  2.000E+04  3.283E-03
   1   14   22     2     9    5.1870E+04  2.0043E+03   4.9866E+04  0.000E+00  0.000E+00  0.000E+00  3.82421E+01  1.171E-01  2.000E+01  2.000E+04  1.002E-01
   1   14   22     3     1    1.6301E+05 -8.4576E+03   1.7146E+05  0.000E+00  0.000E+00  0.000E+00  3.77190E+01  1.634E-01  2.000E+01  2.000E+04 -4.229E-01
   1   15   23     3     2    1.7146E+05 -4.7830E+02   1.7194E+05  0.000E+00  0.000E+00  0.000E+00  3.68327E+01  1.660E-01  2.000E+01  2.000E+04 -2.392E-02
   1   15   24     3     3    1.7194E+05 -2.5985E+02   1.7220E+05  0.000E+00  0.000E+00  0.000E+00  3.59440E+01  1.662E-01  2.000E+01  2.000E+04 -1.299E-02
   1   15   25     3     4    1.7220E+05 -2.5524E+02   1.7246E+05  0.000E+00  0.000E+00  0.000E+00  3.50553E+01  1.664E-01  2.000E+01  2.000E+04 -1.276E-02
   1   15   26     3     5    1.7246E+05 -3.0362E+02   1.7276E+05  0.000E+00  0.000E+00  0.000E+00  3.41665E+01  1.665E-01  2.000E+01  2.000E+04 -1.518E-02
   1   16   27     3     6    1.7276E+05 -3.3992E+02   1.7310E+05  0.000E+00  0.000E+00  0.000E+00  3.32778E+01  1.667E-01  2.000E+01  2.000E+04 -1.700E-02
   1   17   28     3     7    1.7310E+05 -1.5034E+03   1.7460E+05  0.000E+00  0.000E+00  0.000E+00  3.23895E+01  1.673E-01  2.000E+01  2.000E+04 -7.517E-02
   1   18   29     3     8    1.7460E+05 -2.9237E+03   1.7753E+05  0.000E+00  0.000E+00  0.000E+00  3.15019E+01  1.685E-01  2.000E+01  2.000E+04 -1.462E-01
   1   18   30     3     9    1.7753E+05 -3.1691E+03   1.8070E+05  0.000E+00  0.000E+00  0.000E+00  3.06147E+01  1.703E-01  2.000E+01  2.000E+04 -1.585E-01



1
              HEAD IN LAYER   1 AT END OF TIME STEP   1 IN STRESS PERIOD    5
  ---------------------------------------------------------------------------

          1      2      3      4      5      6      7      8      9     10
         11     12     13     14     15     16     17     18     19     20
         21     22     23     24     25     26     27     28     29     30
 .........................................................................
   1  ****** ****** ****** ****** ****** ****** ****** ****** ****** ******
      ****** ****** ****** ****** ****** ****** ****** ****** ****** ******
      ****** ****** ****** ****** ****** ****** ****** ****** ****** ******
   2  ****** ****** ****** ****** ****** ****** ****** ****** ****** ******
      ****** ****** ****** ****** ****** ****** ****** ****** ****** ******
      ****** ****** ****** ****** ****** ****** ****** ****** ****** ******
   3  ****** ****** ****** ****** ****** ****** ****** ****** ****** ******
      ****** ****** ****** ****** ****** ****** ****** ****** ****** ******
      ****** ****** ****** ****** ****** ****** ****** ****** ****** ******
   4  ****** ****** ****** ****** ****** ****** ****** ****** ****** ******
      ****** ****** ****** ****** ****** ****** ****** ****** ****** ******
      ****** ****** ****** ****** ****** ****** ****** ****** ****** ******
   5  ****** ****** ****** ****** ****** ****** ****** ****** ****** ******
      ****** ****** ****** ****** ****** ****** ****** ****** ****** ******
      ****** ****** ****** ****** ****** ****** ****** ****** ****** ******
   6  ****** ****** ****** ****** ****** ****** ****** ****** ****** ******
      ****** ****** ****** ****** ****** ****** ****** ****** ****** ******
      ****** ****** ****** ****** ****** ****** ****** ****** ****** ******
   7  ****** ****** ****** ****** ****** ****** ****** ****** ****** ******
      ****** ****** ****** ****** ****** ****** ****** ****** ****** ******
      ****** ****** ****** ****** ****** ****** ****** ****** ****** ******
   8  ****** ****** ****** ****** ****** ****** ****** ****** ****** ******
      ****** ****** ****** ****** ****** ****** ****** ****** ****** ******
      ****** ****** ****** ****** ****** ****** ****** ****** ****** ******
   9  ****** ****** ****** ****** ****** ****** ****** ****** ****** ******
      ****** ****** ****** ****** ****** ****** ****** ****** ****** ******
      ****** ****** ****** ****** ****** ****** ****** ****** ****** ******
  10  ****** ****** ****** ****** ****** ****** ****** ****** ****** ******
      ****** ****** ****** ****** ****** ****** ****** ****** ****** ******
      ****** ****** ****** ****** ****** ****** ****** ****** ****** ******
  11  ****** ****** ****** ****** ****** ****** ****** ****** ****** ******
      ****** ****** ****** ****** ****** ****** ****** ****** ****** ******
      ****** ****** ****** ****** ****** ****** ****** ****** ****** ******
  12  ****** ****** ****** ****** ****** ****** ****** ****** ****** ******
      ****** ****** ****** ****** ****** ****** ****** ****** ****** ******
      ****** ****** ****** ****** ****** ****** ****** ****** ****** ******
  13  ****** ****** ****** ****** ****** ****** ****** ****** ****** ******
      ****** ****** ****** ****** ****** ****** ****** ****** ****** ******
      ****** ****** ****** ****** ****** ****** ****** ****** ****** ******
  14  ****** ****** ****** ****** ****** ****** ****** ****** ****** ******
      ****** ****** ****** ****** ****** ****** ****** ****** ****** ******
      ****** ****** ****** ****** ****** ****** ****** ****** ****** ******
  15  ****** ****** ****** ****** ****** ****** ****** ****** ****** ******
      ****** ****** ****** ****** ****** ****** ****** ****** ****** ******
      ****** ****** ****** ****** ****** ****** ****** ****** ****** ******
  16  ****** ****** ****** ****** ****** ****** ****** ****** ****** ******
      ****** ****** ****** ****** ****** ****** ****** ****** ****** ******
      ****** ****** ****** ****** ****** ****** ****** ****** ****** ******
  17  ****** ****** ****** ****** ****** ****** ****** ****** ****** ******
      ****** ****** ****** ****** ****** ****** ****** ****** ****** ******
      ****** ****** ****** ****** ****** ****** ****** ****** ****** ******
  18  ****** ****** ****** ****** ****** ****** ****** ****** ****** ******
      ****** ****** ****** ****** ****** ****** ****** ****** ****** ******
      ****** ****** ****** ****** ****** ****** ****** ****** ****** ******
  19  ****** ****** ****** ****** ****** ****** ****** ****** ****** ******
      ****** ****** ****** ****** ****** ****** ****** ****** ****** ******
      ****** ****** ****** ****** ****** ****** ****** ****** ****** ******
  20  ****** ****** ****** ****** ****** ****** ****** ****** ****** ******
      ****** ****** ****** ****** ****** ****** ****** ****** ****** ******
      ****** ****** ****** ****** ****** ****** ****** ****** ****** ******
  21  ****** ****** ****** ****** ****** ****** ****** ****** ****** ******
      ****** ****** ****** ****** ****** ****** ****** ****** ****** ******
      ****** ****** ****** ****** ****** ****** ****** ****** ****** ******
  22  ****** ****** ****** ****** ****** ****** ****** ****** ****** ******
      ****** ****** ****** ****** ****** ****** ****** ****** ****** ******
      ****** ****** ****** ****** ****** ****** ****** ****** ****** ******
  23  ****** ****** ****** ****** ****** ****** ****** ****** ****** ******
      ****** ****** ****** ****** ****** ****** ****** ****** ****** ******
      ****** ****** ****** ****** ****** ****** ****** ****** ****** ******
  24  ****** ****** ****** ****** ****** ****** ****** ****** ****** ******
      ****** ****** ****** ****** ****** ****** ****** ****** ****** ******
      ****** ****** ****** ****** ****** ****** ****** ****** ****** ******
  25  ****** ****** ****** ****** ****** ****** ****** ****** ****** ******
      ****** ****** ****** ****** ****** ****** ****** ****** ****** ******
      ****** ****** ****** ****** ****** ****** ****** ****** ****** ******

 HEAD WILL BE SAVED ON UNIT   51 AT END OF TIME STEP    1, STRESS PERIOD    5
1
  VOLUMETRIC BUDGET FOR ENTIRE MODEL AT END OF TIME STEP    1, STRESS PERIOD   5
  ------------------------------------------------------------------------------

     CUMULATIVE VOLUMES      L**3       RATES FOR THIS TIME STEP      L**3/T
     ------------------                 ------------------------

           IN:                                      IN:
           ---                                      ---
             STORAGE =    31501621.1482               STORAGE =       18982.4698
       CONSTANT HEAD =    10732857.5475         CONSTANT HEAD =       31956.1501
               WELLS =           0.0000                 WELLS =           0.0000
            RECHARGE =    10074000.0000              RECHARGE =       13800.0000
      STREAM LEAKAGE =     3138510.5729        STREAM LEAKAGE =        9365.7968

            TOTAL IN =    55446989.2686              TOTAL IN =       74104.4167

          OUT:                                     OUT:
          ----                                     ----
             STORAGE =        1160.3309               STORAGE =           0.0000
       CONSTANT HEAD =           0.0000         CONSTANT HEAD =           0.0000
               WELLS =    15556970.5657                 WELLS =       34041.5111
            RECHARGE =           0.0000              RECHARGE =           0.0000
      STREAM LEAKAGE =    39888860.6535        STREAM LEAKAGE =       40062.9089

           TOTAL OUT =    55446991.5501             TOTAL OUT =       74104.4200

            IN - OUT =          -2.2815              IN - OUT =      -3.2449E-03

 PERCENT DISCREPANCY =          -0.00     PERCENT DISCREPANCY =          -0.00






         TIME SUMMARY AT END OF TIME STEP    1 IN STRESS PERIOD    5
                    SECONDS     MINUTES      HOURS       DAYS        YEARS
                    -----------------------------------------------------------
   TIME STEP LENGTH 7.94880E+06 1.32480E+05  2208.0      92.000     0.25188    
 STRESS PERIOD TIME 7.94880E+06 1.32480E+05  2208.0      92.000     0.25188    
         TOTAL TIME 3.94848E+07 6.58080E+05  10968.      457.00      1.2512    
1
1
                            STRESS PERIOD NO.    6, LENGTH =   91.00000    
                            -----------------------------------------------

                              NUMBER OF TIME STEPS =     1

                               MULTIPLIER FOR DELT =     1.500

                            INITIAL TIME STEP SIZE =   91.00000    

 WELL NO.  LAYER   ROW   COL   STRESS RATE         
 --------------------------------------------------
      1      1     14      6       0.000    
      2      1      3      9       0.000    
      3      1     20     10       0.000    
      4      1     14     20       0.000    
      5      1      8     21      -8123.    
      6      1      4     14      -6617.    
      7      1     10     23      -7449.    
      8      1     14     17     -0.1185E+05

      8 WELLS

                 RECHARGE =  2.000000E-03

 REUSING STREAM SEGMENT DATA FROM LAST STRESS PERIOD
 
 SOLVING FOR HEAD 


     7 CALLS TO PCG ROUTINE FOR TIME STEP   1 IN STRESS PERIOD    6
    26 TOTAL ITERATIONS

 OUTPUT CONTROL FOR STRESS PERIOD    6   TIME STEP    1
    SAVE BUDGET
    SAVE HEAD FOR ALL LAYERS
    PRINT HEAD FOR ALL LAYERS
 UBDSV2 SAVING "STREAMFLOW OUT  " ON UNIT  50 AT TIME STEP  1, STRESS PERIOD   6



 STREAM LISTING     PERIOD      6   STEP        1

 LAYER ROW COL. STREAM  RCH.  FLOW INTO     FLOW TO   FLOW OUT OF   OVRLND.     DIRECT     STREAM       STREAM     STREAM     STREAM   STREAMBED  STREAMBED
                SEG.NO.  NO.  STRM. RCH.    AQUIFER    STRM. RCH.    RUNOFF     PRECIP       ET          HEAD       DEPTH      WIDTH   CONDCTNC.   GRADIENT

   1   13    1     1     1    1.0000E+05 -2.2863E+03   1.0229E+05  0.000E+00  0.000E+00  0.000E+00  4.84070E+01  1.456E-01  2.000E+01  2.000E+04 -1.143E-01
   1   13    2     1     2    1.0229E+05 -3.3203E+03   1.0561E+05  0.000E+00  0.000E+00  0.000E+00  4.79321E+01  1.481E-01  2.000E+01  2.000E+04 -1.660E-01
   1   14    3     1     3    1.0561E+05 -6.4761E+02   1.0625E+05  0.000E+00  0.000E+00  0.000E+00  4.74566E+01  1.497E-01  2.000E+01  2.000E+04 -3.238E-02
   1   15    4     1     4    1.0625E+05 -6.3024E+02   1.0688E+05  0.000E+00  0.000E+00  0.000E+00  4.69798E+01  1.503E-01  2.000E+01  2.000E+04 -3.151E-02
   1   16    5     1     5    1.0688E+05 -2.2146E+03   1.0910E+05  0.000E+00  0.000E+00  0.000E+00  4.65038E+01  1.515E-01  2.000E+01  2.000E+04 -1.107E-01
   1   16    6     1     6    1.0910E+05 -1.3836E+03   1.1048E+05  0.000E+00  0.000E+00  0.000E+00  4.60280E+01  1.530E-01  2.000E+01  2.000E+04 -6.918E-02
   1   16    7     1     7    1.1048E+05 -1.3492E+03   1.1183E+05  0.000E+00  0.000E+00  0.000E+00  4.55519E+01  1.541E-01  2.000E+01  2.000E+04 -6.746E-02
   1   16    8     1     8    1.1183E+05 -1.3350E+03   1.1317E+05  0.000E+00  0.000E+00  0.000E+00  4.50757E+01  1.552E-01  2.000E+01  2.000E+04 -6.675E-02
   1   16    9     1     9    1.1317E+05 -1.3148E+03   1.1448E+05  0.000E+00  0.000E+00  0.000E+00  4.45995E+01  1.563E-01  2.000E+01  2.000E+04 -6.574E-02
   1   16   10     1    10    1.1448E+05 -1.2843E+03   1.1577E+05  0.000E+00  0.000E+00  0.000E+00  4.41233E+01  1.574E-01  2.000E+01  2.000E+04 -6.421E-02
   1   16   11     1    11    1.1577E+05 -1.2559E+03   1.1702E+05  0.000E+00  0.000E+00  0.000E+00  4.36471E+01  1.584E-01  2.000E+01  2.000E+04 -6.280E-02
   1   16   12     1    12    1.1702E+05 -1.9383E+03   1.1896E+05  0.000E+00  0.000E+00  0.000E+00  4.31711E+01  1.597E-01  2.000E+01  2.000E+04 -9.691E-02
   1   15   13     1    13    1.1896E+05 -1.5347E+03   1.2049E+05  0.000E+00  0.000E+00  0.000E+00  4.26952E+01  1.612E-01  2.000E+01  2.000E+04 -7.673E-02
   1   14   14     1    14    1.2049E+05 -1.1030E+03   1.2160E+05  0.000E+00  0.000E+00  0.000E+00  4.22190E+01  1.622E-01  2.000E+01  2.000E+04 -5.515E-02
   1   13   15     1    15    1.2160E+05 -5.7644E+02   1.2217E+05  0.000E+00  0.000E+00  0.000E+00  4.17424E+01  1.629E-01  2.000E+01  2.000E+04 -2.882E-02
   1   12   16     1    16    1.2217E+05 -1.4110E+03   1.2359E+05  0.000E+00  0.000E+00  0.000E+00  4.12660E+01  1.637E-01  2.000E+01  2.000E+04 -7.055E-02
   1   12   17     1    17    1.2359E+05  2.3712E+02   1.2335E+05  0.000E+00  0.000E+00  0.000E+00  4.07892E+01  1.642E-01  2.000E+01  2.000E+04  1.186E-02
   1   12   18     1    18    1.2335E+05 -1.4977E+02   1.2350E+05  0.000E+00  0.000E+00  0.000E+00  4.03118E+01  1.641E-01  2.000E+01  2.000E+04 -7.489E-03
   1   12   19     1    19    1.2350E+05 -5.6264E+02   1.2406E+05  0.000E+00  0.000E+00  0.000E+00  3.98349E+01  1.644E-01  2.000E+01  2.000E+04 -2.813E-02
   1   13   20     1    20    1.2406E+05 -2.3909E+02   1.2430E+05  0.000E+00  0.000E+00  0.000E+00  3.93579E+01  1.647E-01  2.000E+01  2.000E+04 -1.195E-02
   1   14   21     1    21    1.2430E+05 -9.5915E+02   1.2526E+05  0.000E+00  0.000E+00  0.000E+00  3.88811E+01  1.652E-01  2.000E+01  2.000E+04 -4.796E-02
   1   14   22     1    22    1.2526E+05  4.9859E+03   1.2027E+05  0.000E+00  0.000E+00  0.000E+00  3.84022E+01  1.636E-01  2.000E+01  2.000E+04  2.493E-01
   1    9   30     2     1    5.0000E+04 -7.3731E+02   5.0737E+04  0.000E+00  0.000E+00  0.000E+00  4.02414E+01  1.164E-01  2.000E+01  2.000E+04 -3.687E-02
   1    9   29     2     2    5.0737E+04 -9.9492E+02   5.1732E+04  0.000E+00  0.000E+00  0.000E+00  3.99926E+01  1.176E-01  2.000E+01  2.000E+04 -4.975E-02
   1    9   28     2     3    5.1732E+04 -1.1396E+03   5.2872E+04  0.000E+00  0.000E+00  0.000E+00  3.97440E+01  1.190E-01  2.000E+01  2.000E+04 -5.698E-02
   1    9   27     2     4    5.2872E+04 -1.7583E+03   5.4630E+04  0.000E+00  0.000E+00  0.000E+00  3.94960E+01  1.210E-01  2.000E+01  2.000E+04 -8.791E-02
   1   10   26     2     5    5.4630E+04 -5.8661E+02   5.5217E+04  0.000E+00  0.000E+00  0.000E+00  3.92476E+01  1.226E-01  2.000E+01  2.000E+04 -2.933E-02
   1   11   25     2     6    5.5217E+04  1.6921E+02   5.5048E+04  0.000E+00  0.000E+00  0.000E+00  3.89979E+01  1.229E-01  2.000E+01  2.000E+04  8.461E-03
   1   12   24     2     7    5.5048E+04  3.1332E+02   5.4734E+04  0.000E+00  0.000E+00  0.000E+00  3.87475E+01  1.225E-01  2.000E+01  2.000E+04  1.567E-02
   1   13   23     2     8    5.4734E+04 -7.0911E+01   5.4805E+04  0.000E+00  0.000E+00  0.000E+00  3.84974E+01  1.224E-01  2.000E+01  2.000E+04 -3.546E-03
   1   14   22     2     9    5.4805E+04  1.8646E+03   5.2940E+04  0.000E+00  0.000E+00  0.000E+00  3.82462E+01  1.212E-01  2.000E+01  2.000E+04  9.323E-02
   1   14   22     3     1    1.7321E+05 -8.5605E+03   1.8177E+05  0.000E+00  0.000E+00  0.000E+00  3.77249E+01  1.694E-01  2.000E+01  2.000E+04 -4.280E-01
   1   15   23     3     2    1.8177E+05 -6.1641E+02   1.8239E+05  0.000E+00  0.000E+00  0.000E+00  3.68386E+01  1.720E-01  2.000E+01  2.000E+04 -3.082E-02
   1   15   24     3     3    1.8239E+05 -3.8225E+02   1.8277E+05  0.000E+00  0.000E+00  0.000E+00  3.59500E+01  1.723E-01  2.000E+01  2.000E+04 -1.911E-02
   1   15   25     3     4    1.8277E+05 -3.8207E+02   1.8315E+05  0.000E+00  0.000E+00  0.000E+00  3.50614E+01  1.725E-01  2.000E+01  2.000E+04 -1.910E-02
   1   15   26     3     5    1.8315E+05 -4.5529E+02   1.8361E+05  0.000E+00  0.000E+00  0.000E+00  3.41727E+01  1.727E-01  2.000E+01  2.000E+04 -2.276E-02
   1   16   27     3     6    1.8361E+05 -5.0916E+02   1.8412E+05  0.000E+00  0.000E+00  0.000E+00  3.32841E+01  1.730E-01  2.000E+01  2.000E+04 -2.546E-02
   1   17   28     3     7    1.8412E+05 -1.9682E+03   1.8609E+05  0.000E+00  0.000E+00  0.000E+00  3.23959E+01  1.737E-01  2.000E+01  2.000E+04 -9.841E-02
   1   18   29     3     8    1.8609E+05 -3.3679E+03   1.8945E+05  0.000E+00  0.000E+00  0.000E+00  3.15085E+01  1.752E-01  2.000E+01  2.000E+04 -1.684E-01
   1   18   30     3     9    1.8945E+05 -3.5282E+03   1.9298E+05  0.000E+00  0.000E+00  0.000E+00  3.06215E+01  1.771E-01  2.000E+01  2.000E+04 -1.764E-01



1
              HEAD IN LAYER   1 AT END OF TIME STEP   1 IN STRESS PERIOD    6
  ---------------------------------------------------------------------------

          1      2      3      4      5      6      7      8      9     10
         11     12     13     14     15     16     17     18     19     20
         21     22     23     24     25     26     27     28     29     30
 .........................................................................
   1  ****** ****** ****** ****** ****** ****** ****** ****** ****** ******
      ****** ****** ****** ****** ****** ****** ****** ****** ****** ******
      ****** ****** ****** ****** ****** ****** ****** ****** ****** ******
   2  ****** ****** ****** ****** ****** ****** ****** ****** ****** ******
      ****** ****** ****** ****** ****** ****** ****** ****** ****** ******
      ****** ****** ****** ****** ****** ****** ****** ****** ****** ******
   3  ****** ****** ****** ****** ****** ****** ****** ****** ****** ******
      ****** ****** ****** ****** ****** ****** ****** ****** ****** ******
      ****** ****** ****** ****** ****** ****** ****** ****** ****** ******
   4  ****** ****** ****** ****** ****** ****** ****** ****** ****** ******
      ****** ****** ****** ****** ****** ****** ****** ****** ****** ******
      ****** ****** ****** ****** ****** ****** ****** ****** ****** ******
   5  ****** ****** ****** ****** ****** ****** ****** ****** ****** ******
      ****** ****** ****** ****** ****** ****** ****** ****** ****** ******
      ****** ****** ****** ****** ****** ****** ****** ****** ****** ******
   6  ****** ****** ****** ****** ****** ****** ****** ****** ****** ******
      ****** ****** ****** ****** ****** ****** ****** ****** ****** ******
      ****** ****** ****** ****** ****** ****** ****** ****** ****** ******
   7  ****** ****** ****** ****** ****** ****** ****** ****** ****** ******
      ****** ****** ****** ****** ****** ****** ****** ****** ****** ******
      ****** ****** ****** ****** ****** ****** ****** ****** ****** ******
   8  ****** ****** ****** ****** ****** ****** ****** ****** ****** ******
      ****** ****** ****** ****** ****** ****** ****** ****** ****** ******
      ****** ****** ****** ****** ****** ****** ****** ****** ****** ******
   9  ****** ****** ****** ****** ****** ****** ****** ****** ****** ******
      ****** ****** ****** ****** ****** ****** ****** ****** ****** ******
      ****** ****** ****** ****** ****** ****** ****** ****** ****** ******
  10  ****** ****** ****** ****** ****** ****** ****** ****** ****** ******
      ****** ****** ****** ****** ****** ****** ****** ****** ****** ******
      ****** ****** ****** ****** ****** ****** ****** ****** ****** ******
  11  ****** ****** ****** ****** ****** ****** ****** ****** ****** ******
      ****** ****** ****** ****** ****** ****** ****** ****** ****** ******
      ****** ****** ****** ****** ****** ****** ****** ****** ****** ******
  12  ****** ****** ****** ****** ****** ****** ****** ****** ****** ******
      ****** ****** ****** ****** ****** ****** ****** ****** ****** ******
      ****** ****** ****** ****** ****** ****** ****** ****** ****** ******
  13  ****** ****** ****** ****** ****** ****** ****** ****** ****** ******
      ****** ****** ****** ****** ****** ****** ****** ****** ****** ******
      ****** ****** ****** ****** ****** ****** ****** ****** ****** ******
  14  ****** ****** ****** ****** ****** ****** ****** ****** ****** ******
      ****** ****** ****** ****** ****** ****** ****** ****** ****** ******
      ****** ****** ****** ****** ****** ****** ****** ****** ****** ******
  15  ****** ****** ****** ****** ****** ****** ****** ****** ****** ******
      ****** ****** ****** ****** ****** ****** ****** ****** ****** ******
      ****** ****** ****** ****** ****** ****** ****** ****** ****** ******
  16  ****** ****** ****** ****** ****** ****** ****** ****** ****** ******
      ****** ****** ****** ****** ****** ****** ****** ****** ****** ******
      ****** ****** ****** ****** ****** ****** ****** ****** ****** ******
  17  ****** ****** ****** ****** ****** ****** ****** ****** ****** ******
      ****** ****** ****** ****** ****** ****** ****** ****** ****** ******
      ****** ****** ****** ****** ****** ****** ****** ****** ****** ******
  18  ****** ****** ****** ****** ****** ****** ****** ****** ****** ******
      ****** ****** ****** ****** ****** ****** ****** ****** ****** ******
      ****** ****** ****** ****** ****** ****** ****** ****** ****** ******
  19  ****** ****** ****** ****** ****** ****** ****** ****** ****** ******
      ****** ****** ****** ****** ****** ****** ****** ****** ****** ******
      ****** ****** ****** ****** ****** ****** ****** ****** ****** ******
  20  ****** ****** ****** ****** ****** ****** ****** ****** ****** ******
      ****** ****** ****** ****** ****** ****** ****** ****** ****** ******
      ****** ****** ****** ****** ****** ****** ****** ****** ****** ******
  21  ****** ****** ****** ****** ****** ****** ****** ****** ****** ******
      ****** ****** ****** ****** ****** ****** ****** ****** ****** ******
      ****** ****** ****** ****** ****** ****** ****** ****** ****** ******
  22  ****** ****** ****** ****** ****** ****** ****** ****** ****** ******
      ****** ****** ****** ****** ****** ****** ****** ****** ****** ******
      ****** ****** ****** ****** ****** ****** ****** ****** ****** ******
  23  ****** ****** ****** ****** ****** ****** ****** ****** ****** ******
      ****** ****** ****** ****** ****** ****** ****** ****** ****** ******
      ****** ****** ****** ****** ****** ****** ****** ****** ****** ******
  24  ****** ****** ****** ****** ****** ****** ****** ****** ****** ******
      ****** ****** ****** ****** ****** ****** ****** ****** ****** ******
      ****** ****** ****** ****** ****** ****** ****** ****** ****** ******
  25  ****** ****** ****** ****** ****** ****** ****** ****** ****** ******
      ****** ****** ****** ****** ****** ****** ****** ****** ****** ******
      ****** ****** ****** ****** ****** ****** ****** ****** ****** ******

 HEAD WILL BE SAVED ON UNIT   51 AT END OF TIME STEP    1, STRESS PERIOD    6
1
  VOLUMETRIC BUDGET FOR ENTIRE MODEL AT END OF TIME STEP    1, STRESS PERIOD   6
  ------------------------------------------------------------------------------

     CUMULATIVE VOLUMES      L**3       RATES FOR THIS TIME STEP      L**3/T
     ------------------                 ------------------------

           IN:                                      IN:
           ---                                      ---
             STORAGE =    31502078.7638               STORAGE =           5.0287
       CONSTANT HEAD =    13472829.4109         CONSTANT HEAD =       30109.5809
               WELLS =           0.0000                 WELLS =           0.0000
            RECHARGE =    15097200.0000              RECHARGE =       55200.0000
      STREAM LEAKAGE =     3827391.8518        STREAM LEAKAGE =        7570.1239

            TOTAL IN =    63899500.0265              TOTAL IN =       92884.7336

          OUT:                                     OUT:
          ----                                     ----
             STORAGE =      755542.1239               STORAGE =        8289.9098
       CONSTANT HEAD =           0.0000         CONSTANT HEAD =           0.0000
               WELLS =    18654748.0744                 WELLS =       34041.5111
            RECHARGE =           0.0000              RECHARGE =           0.0000
      STREAM LEAKAGE =    44489211.8487        STREAM LEAKAGE =       50553.3098

           TOTAL OUT =    63899502.0470             TOTAL OUT =       92884.7307

            IN - OUT =          -2.0205              IN - OUT =       2.8682E-03

 PERCENT DISCREPANCY =          -0.00     PERCENT DISCREPANCY =           0.00






         TIME SUMMARY AT END OF TIME STEP    1 IN STRESS PERIOD    6
                    SECONDS     MINUTES      HOURS       DAYS        YEARS
                    -----------------------------------------------------------
   TIME STEP LENGTH 7.86240E+06 1.31040E+05  2184.0      91.000     0.24914    
 STRESS PERIOD TIME 7.86240E+06 1.31040E+05  2184.0      91.000     0.24914    
         TOTAL TIME 4.73472E+07 7.89120E+05  13152.      548.00      1.5003    
1
1
                            STRESS PERIOD NO.    7, LENGTH =   91.00000    
                            -----------------------------------------------

                              NUMBER OF TIME STEPS =     1

                               MULTIPLIER FOR DELT =     1.500

                            INITIAL TIME STEP SIZE =   91.00000    

 WELL NO.  LAYER   ROW   COL   STRESS RATE         
 --------------------------------------------------
      1      1     14      6       0.000    
      2      1      3      9       0.000    
      3      1     20     10       0.000    
      4      1     14     20       0.000    
      5      1      8     21      -8123.    
      6      1      4     14      -6617.    
      7      1     10     23      -7449.    
      8      1     14     17     -0.1185E+05

      8 WELLS

                 RECHARGE =   0.00000    

 REUSING STREAM SEGMENT DATA FROM LAST STRESS PERIOD
 
 SOLVING FOR HEAD 


     7 CALLS TO PCG ROUTINE FOR TIME STEP   1 IN STRESS PERIOD    7
    26 TOTAL ITERATIONS

 OUTPUT CONTROL FOR STRESS PERIOD    7   TIME STEP    1
    SAVE BUDGET
    SAVE HEAD FOR ALL LAYERS
    PRINT HEAD FOR ALL LAYERS
 UBDSV2 SAVING "STREAMFLOW OUT  " ON UNIT  50 AT TIME STEP  1, STRESS PERIOD   7



 STREAM LISTING     PERIOD      7   STEP        1

 LAYER ROW COL. STREAM  RCH.  FLOW INTO     FLOW TO   FLOW OUT OF   OVRLND.     DIRECT     STREAM       STREAM     STREAM     STREAM   STREAMBED  STREAMBED
                SEG.NO.  NO.  STRM. RCH.    AQUIFER    STRM. RCH.    RUNOFF     PRECIP       ET          HEAD       DEPTH      WIDTH   CONDCTNC.   GRADIENT

   1   13    1     1     1    1.0000E+05 -1.6087E+03   1.0161E+05  0.000E+00  0.000E+00  0.000E+00  4.84067E+01  1.453E-01  2.000E+01  2.000E+04 -8.043E-02
   1   13    2     1     2    1.0161E+05 -2.5618E+03   1.0417E+05  0.000E+00  0.000E+00  0.000E+00  4.79312E+01  1.471E-01  2.000E+01  2.000E+04 -1.281E-01
   1   14    3     1     3    1.0417E+05 -3.9407E+02   1.0456E+05  0.000E+00  0.000E+00  0.000E+00  4.74552E+01  1.484E-01  2.000E+01  2.000E+04 -1.970E-02
   1   15    4     1     4    1.0456E+05 -3.6638E+02   1.0493E+05  0.000E+00  0.000E+00  0.000E+00  4.69783E+01  1.487E-01  2.000E+01  2.000E+04 -1.832E-02
   1   16    5     1     5    1.0493E+05 -1.4614E+03   1.0639E+05  0.000E+00  0.000E+00  0.000E+00  4.65018E+01  1.495E-01  2.000E+01  2.000E+04 -7.307E-02
   1   16    6     1     6    1.0639E+05 -9.2863E+02   1.0732E+05  0.000E+00  0.000E+00  0.000E+00  4.60255E+01  1.505E-01  2.000E+01  2.000E+04 -4.643E-02
   1   16    7     1     7    1.0732E+05 -9.1241E+02   1.0823E+05  0.000E+00  0.000E+00  0.000E+00  4.55490E+01  1.513E-01  2.000E+01  2.000E+04 -4.562E-02
   1   16    8     1     8    1.0823E+05 -9.0418E+02   1.0914E+05  0.000E+00  0.000E+00  0.000E+00  4.50725E+01  1.521E-01  2.000E+01  2.000E+04 -4.521E-02
   1   16    9     1     9    1.0914E+05 -8.8720E+02   1.1002E+05  0.000E+00  0.000E+00  0.000E+00  4.45960E+01  1.528E-01  2.000E+01  2.000E+04 -4.436E-02
   1   16   10     1    10    1.1002E+05 -8.5946E+02   1.1088E+05  0.000E+00  0.000E+00  0.000E+00  4.41195E+01  1.535E-01  2.000E+01  2.000E+04 -4.297E-02
   1   16   11     1    11    1.1088E+05 -8.3036E+02   1.1171E+05  0.000E+00  0.000E+00  0.000E+00  4.36429E+01  1.542E-01  2.000E+01  2.000E+04 -4.152E-02
   1   16   12     1    12    1.1171E+05 -1.2223E+03   1.1294E+05  0.000E+00  0.000E+00  0.000E+00  4.31665E+01  1.551E-01  2.000E+01  2.000E+04 -6.112E-02
   1   15   13     1    13    1.1294E+05 -7.6305E+02   1.1370E+05  0.000E+00  0.000E+00  0.000E+00  4.26900E+01  1.559E-01  2.000E+01  2.000E+04 -3.815E-02
   1   14   14     1    14    1.1370E+05 -3.0071E+02   1.1400E+05  0.000E+00  0.000E+00  0.000E+00  4.22132E+01  1.564E-01  2.000E+01  2.000E+04 -1.504E-02
   1   13   15     1    15    1.1400E+05  2.3054E+02   1.1377E+05  0.000E+00  0.000E+00  0.000E+00  4.17359E+01  1.564E-01  2.000E+01  2.000E+04  1.153E-02
   1   12   16     1    16    1.1377E+05 -6.0535E+02   1.1438E+05  0.000E+00  0.000E+00  0.000E+00  4.12588E+01  1.565E-01  2.000E+01  2.000E+04 -3.027E-02
   1   12   17     1    17    1.1438E+05  8.2010E+02   1.1356E+05  0.000E+00  0.000E+00  0.000E+00  4.07815E+01  1.565E-01  2.000E+01  2.000E+04  4.101E-02
   1   12   18     1    18    1.1356E+05  4.1820E+02   1.1314E+05  0.000E+00  0.000E+00  0.000E+00  4.03037E+01  1.559E-01  2.000E+01  2.000E+04  2.091E-02
   1   12   19     1    19    1.1314E+05  1.3180E+02   1.1301E+05  0.000E+00  0.000E+00  0.000E+00  3.98262E+01  1.557E-01  2.000E+01  2.000E+04  6.590E-03
   1   13   20     1    20    1.1301E+05  4.3231E+02   1.1257E+05  0.000E+00  0.000E+00  0.000E+00  3.93487E+01  1.555E-01  2.000E+01  2.000E+04  2.162E-02
   1   14   21     1    21    1.1257E+05 -2.9990E+02   1.1287E+05  0.000E+00  0.000E+00  0.000E+00  3.88713E+01  1.554E-01  2.000E+01  2.000E+04 -1.499E-02
   1   14   22     1    22    1.1287E+05  5.1430E+03   1.0773E+05  0.000E+00  0.000E+00  0.000E+00  3.83921E+01  1.534E-01  2.000E+01  2.000E+04  2.571E-01
   1    9   30     2     1    5.0000E+04 -2.2095E+02   5.0221E+04  0.000E+00  0.000E+00  0.000E+00  4.02410E+01  1.160E-01  2.000E+01  2.000E+04 -1.105E-02
   1    9   29     2     2    5.0221E+04 -4.8016E+02   5.0701E+04  0.000E+00  0.000E+00  0.000E+00  3.99915E+01  1.165E-01  2.000E+01  2.000E+04 -2.401E-02
   1    9   28     2     3    5.0701E+04 -6.2299E+02   5.1324E+04  0.000E+00  0.000E+00  0.000E+00  3.97423E+01  1.173E-01  2.000E+01  2.000E+04 -3.115E-02
   1    9   27     2     4    5.1324E+04 -1.0541E+03   5.2378E+04  0.000E+00  0.000E+00  0.000E+00  3.94934E+01  1.184E-01  2.000E+01  2.000E+04 -5.271E-02
   1   10   26     2     5    5.2378E+04  1.1800E+02   5.2260E+04  0.000E+00  0.000E+00  0.000E+00  3.92441E+01  1.191E-01  2.000E+01  2.000E+04  5.900E-03
   1   11   25     2     6    5.2260E+04  8.4461E+02   5.1416E+04  0.000E+00  0.000E+00  0.000E+00  3.89934E+01  1.184E-01  2.000E+01  2.000E+04  4.223E-02
   1   12   24     2     7    5.1416E+04  9.2929E+02   5.0486E+04  0.000E+00  0.000E+00  0.000E+00  3.87422E+01  1.172E-01  2.000E+01  2.000E+04  4.646E-02
   1   13   23     2     8    5.0486E+04  1.2164E+02   5.0365E+04  0.000E+00  0.000E+00  0.000E+00  3.84915E+01  1.165E-01  2.000E+01  2.000E+04  6.082E-03
   1   14   22     2     9    5.0365E+04  2.1001E+03   4.8265E+04  0.000E+00  0.000E+00  0.000E+00  3.82399E+01  1.149E-01  2.000E+01  2.000E+04  1.050E-01
   1   14   22     3     1    1.5599E+05 -8.4019E+03   1.6440E+05  0.000E+00  0.000E+00  0.000E+00  3.77148E+01  1.593E-01  2.000E+01  2.000E+04 -4.201E-01
   1   15   23     3     2    1.6440E+05 -4.1092E+02   1.6481E+05  0.000E+00  0.000E+00  0.000E+00  3.68285E+01  1.619E-01  2.000E+01  2.000E+04 -2.055E-02
   1   15   24     3     3    1.6481E+05 -2.0918E+02   1.6502E+05  0.000E+00  0.000E+00  0.000E+00  3.59398E+01  1.621E-01  2.000E+01  2.000E+04 -1.046E-02
   1   15   25     3     4    1.6502E+05 -2.0588E+02   1.6522E+05  0.000E+00  0.000E+00  0.000E+00  3.50511E+01  1.622E-01  2.000E+01  2.000E+04 -1.029E-02
   1   15   26     3     5    1.6522E+05 -2.5444E+02   1.6548E+05  0.000E+00  0.000E+00  0.000E+00  3.41623E+01  1.623E-01  2.000E+01  2.000E+04 -1.272E-02
   1   16   27     3     6    1.6548E+05 -2.7746E+02   1.6575E+05  0.000E+00  0.000E+00  0.000E+00  3.32736E+01  1.625E-01  2.000E+01  2.000E+04 -1.387E-02
   1   17   28     3     7    1.6575E+05 -1.3289E+03   1.6708E+05  0.000E+00  0.000E+00  0.000E+00  3.23852E+01  1.629E-01  2.000E+01  2.000E+04 -6.645E-02
   1   18   29     3     8    1.6708E+05 -2.6863E+03   1.6977E+05  0.000E+00  0.000E+00  0.000E+00  3.14974E+01  1.641E-01  2.000E+01  2.000E+04 -1.343E-01
   1   18   30     3     9    1.6977E+05 -3.0025E+03   1.7277E+05  0.000E+00  0.000E+00  0.000E+00  3.06102E+01  1.658E-01  2.000E+01  2.000E+04 -1.501E-01



1
              HEAD IN LAYER   1 AT END OF TIME STEP   1 IN STRESS PERIOD    7
  ---------------------------------------------------------------------------

          1      2      3      4      5      6      7      8      9     10
         11     12     13     14     15     16     17     18     19     20
         21     22     23     24     25     26     27     28     29     30
 .........................................................................
   1  ****** ****** ****** ****** ****** ****** ****** ****** ****** ******
      ****** ****** ****** ****** ****** ****** ****** ****** ****** ******
      ****** ****** ****** ****** ****** ****** ****** ****** ****** ******
   2  ****** ****** ****** ****** ****** ****** ****** ****** ****** ******
      ****** ****** ****** ****** ****** ****** ****** ****** ****** ******
      ****** ****** ****** ****** ****** ****** ****** ****** ****** ******
   3  ****** ****** ****** ****** ****** ****** ****** ****** ****** ******
      ****** ****** ****** ****** ****** ****** ****** ****** ****** ******
      ****** ****** ****** ****** ****** ****** ****** ****** ****** ******
   4  ****** ****** ****** ****** ****** ****** ****** ****** ****** ******
      ****** ****** ****** ****** ****** ****** ****** ****** ****** ******
      ****** ****** ****** ****** ****** ****** ****** ****** ****** ******
   5  ****** ****** ****** ****** ****** ****** ****** ****** ****** ******
      ****** ****** ****** ****** ****** ****** ****** ****** ****** ******
      ****** ****** ****** ****** ****** ****** ****** ****** ****** ******
   6  ****** ****** ****** ****** ****** ****** ****** ****** ****** ******
      ****** ****** ****** ****** ****** ****** ****** ****** ****** ******
      ****** ****** ****** ****** ****** ****** ****** ****** ****** ******
   7  ****** ****** ****** ****** ****** ****** ****** ****** ****** ******
      ****** ****** ****** ****** ****** ****** ****** ****** ****** ******
      ****** ****** ****** ****** ****** ****** ****** ****** ****** ******
   8  ****** ****** ****** ****** ****** ****** ****** ****** ****** ******
      ****** ****** ****** ****** ****** ****** ****** ****** ****** ******
      ****** ****** ****** ****** ****** ****** ****** ****** ****** ******
   9  ****** ****** ****** ****** ****** ****** ****** ****** ****** ******
      ****** ****** ****** ****** ****** ****** ****** ****** ****** ******
      ****** ****** ****** ****** ****** ****** ****** ****** ****** ******
  10  ****** ****** ****** ****** ****** ****** ****** ****** ****** ******
      ****** ****** ****** ****** ****** ****** ****** ****** ****** ******
      ****** ****** ****** ****** ****** ****** ****** ****** ****** ******
  11  ****** ****** ****** ****** ****** ****** ****** ****** ****** ******
      ****** ****** ****** ****** ****** ****** ****** ****** ****** ******
      ****** ****** ****** ****** ****** ****** ****** ****** ****** ******
  12  ****** ****** ****** ****** ****** ****** ****** ****** ****** ******
      ****** ****** ****** ****** ****** ****** ****** ****** ****** ******
      ****** ****** ****** ****** ****** ****** ****** ****** ****** ******
  13  ****** ****** ****** ****** ****** ****** ****** ****** ****** ******
      ****** ****** ****** ****** ****** ****** ****** ****** ****** ******
      ****** ****** ****** ****** ****** ****** ****** ****** ****** ******
  14  ****** ****** ****** ****** ****** ****** ****** ****** ****** ******
      ****** ****** ****** ****** ****** ****** ****** ****** ****** ******
      ****** ****** ****** ****** ****** ****** ****** ****** ****** ******
  15  ****** ****** ****** ****** ****** ****** ****** ****** ****** ******
      ****** ****** ****** ****** ****** ****** ****** ****** ****** ******
      ****** ****** ****** ****** ****** ****** ****** ****** ****** ******
  16  ****** ****** ****** ****** ****** ****** ****** ****** ****** ******
      ****** ****** ****** ****** ****** ****** ****** ****** ****** ******
      ****** ****** ****** ****** ****** ****** ****** ****** ****** ******
  17  ****** ****** ****** ****** ****** ****** ****** ****** ****** ******
      ****** ****** ****** ****** ****** ****** ****** ****** ****** ******
      ****** ****** ****** ****** ****** ****** ****** ****** ****** ******
  18  ****** ****** ****** ****** ****** ****** ****** ****** ****** ******
      ****** ****** ****** ****** ****** ****** ****** ****** ****** ******
      ****** ****** ****** ****** ****** ****** ****** ****** ****** ******
  19  ****** ****** ****** ****** ****** ****** ****** ****** ****** ******
      ****** ****** ****** ****** ****** ****** ****** ****** ****** ******
      ****** ****** ****** ****** ****** ****** ****** ****** ****** ******
  20  ****** ****** ****** ****** ****** ****** ****** ****** ****** ******
      ****** ****** ****** ****** ****** ****** ****** ****** ****** ******
      ****** ****** ****** ****** ****** ****** ****** ****** ****** ******
  21  ****** ****** ****** ****** ****** ****** ****** ****** ****** ******
      ****** ****** ****** ****** ****** ****** ****** ****** ****** ******
      ****** ****** ****** ****** ****** ****** ****** ****** ****** ******
  22  ****** ****** ****** ****** ****** ****** ****** ****** ****** ******
      ****** ****** ****** ****** ****** ****** ****** ****** ****** ******
      ****** ****** ****** ****** ****** ****** ****** ****** ****** ******
  23  ****** ****** ****** ****** ****** ****** ****** ****** ****** ******
      ****** ****** ****** ****** ****** ****** ****** ****** ****** ******
      ****** ****** ****** ****** ****** ****** ****** ****** ****** ******
  24  ****** ****** ****** ****** ****** ****** ****** ****** ****** ******
      ****** ****** ****** ****** ****** ****** ****** ****** ****** ******
      ****** ****** ****** ****** ****** ****** ****** ****** ****** ******
  25  ****** ****** ****** ****** ****** ****** ****** ****** ****** ******
      ****** ****** ****** ****** ****** ****** ****** ****** ****** ******
      ****** ****** ****** ****** ****** ****** ****** ****** ****** ******

 HEAD WILL BE SAVED ON UNIT   51 AT END OF TIME STEP    1, STRESS PERIOD    7
1
  VOLUMETRIC BUDGET FOR ENTIRE MODEL AT END OF TIME STEP    1, STRESS PERIOD   7
  ------------------------------------------------------------------------------

     CUMULATIVE VOLUMES      L**3       RATES FOR THIS TIME STEP      L**3/T
     ------------------                 ------------------------

           IN:                                      IN:
           ---                                      ---
             STORAGE =    33570970.1651               STORAGE =       22735.0703
       CONSTANT HEAD =    16573977.2800         CONSTANT HEAD =       34078.5480
               WELLS =           0.0000                 WELLS =           0.0000
            RECHARGE =    15097200.0000              RECHARGE =           0.0000
      STREAM LEAKAGE =     4854741.1486        STREAM LEAKAGE =       11289.5527

            TOTAL IN =    70096888.5937              TOTAL IN =       68103.1711

          OUT:                                     OUT:
          ----                                     ----
             STORAGE =      755542.1239               STORAGE =           0.0000
       CONSTANT HEAD =           0.0000         CONSTANT HEAD =           0.0000
               WELLS =    21752525.5831                 WELLS =       34041.5111
            RECHARGE =           0.0000              RECHARGE =           0.0000
      STREAM LEAKAGE =    47588823.4142        STREAM LEAKAGE =       34061.6656

           TOTAL OUT =    70096891.1212             TOTAL OUT =       68103.1766

            IN - OUT =          -2.5275              IN - OUT =      -5.5710E-03

 PERCENT DISCREPANCY =          -0.00     PERCENT DISCREPANCY =          -0.00






         TIME SUMMARY AT END OF TIME STEP    1 IN STRESS PERIOD    7
                    SECONDS     MINUTES      HOURS       DAYS        YEARS
                    -----------------------------------------------------------
   TIME STEP LENGTH 7.86240E+06 1.31040E+05  2184.0      91.000     0.24914    
 STRESS PERIOD TIME 7.86240E+06 1.31040E+05  2184.0      91.000     0.24914    
         TOTAL TIME 5.52096E+07 9.20160E+05  15336.      639.00      1.7495    
1
1
                            STRESS PERIOD NO.    8, LENGTH =   91.00000    
                            -----------------------------------------------

                              NUMBER OF TIME STEPS =     1

                               MULTIPLIER FOR DELT =     1.500

                            INITIAL TIME STEP SIZE =   91.00000    

 WELL NO.  LAYER   ROW   COL   STRESS RATE         
 --------------------------------------------------
      1      1     14      6       0.000    
      2      1      3      9       0.000    
      3      1     20     10       0.000    
      4      1     14     20       0.000    
      5      1      8     21      -8123.    
      6      1      4     14      -6617.    
      7      1     10     23      -7449.    
      8      1     14     17     -0.1185E+05

      8 WELLS

                 RECHARGE =  1.000000E-03

 REUSING STREAM SEGMENT DATA FROM LAST STRESS PERIOD
 
 SOLVING FOR HEAD 


     6 CALLS TO PCG ROUTINE FOR TIME STEP   1 IN STRESS PERIOD    8
    22 TOTAL ITERATIONS

 OUTPUT CONTROL FOR STRESS PERIOD    8   TIME STEP    1
    SAVE BUDGET
    SAVE HEAD FOR ALL LAYERS
    PRINT HEAD FOR ALL LAYERS
 UBDSV2 SAVING "STREAMFLOW OUT  " ON UNIT  50 AT TIME STEP  1, STRESS PERIOD   8



 STREAM LISTING     PERIOD      8   STEP        1

 LAYER ROW COL. STREAM  RCH.  FLOW INTO     FLOW TO   FLOW OUT OF   OVRLND.     DIRECT     STREAM       STREAM     STREAM     STREAM   STREAMBED  STREAMBED
                SEG.NO.  NO.  STRM. RCH.    AQUIFER    STRM. RCH.    RUNOFF     PRECIP       ET          HEAD       DEPTH      WIDTH   CONDCTNC.   GRADIENT

   1   13    1     1     1    1.0000E+05 -1.6736E+03   1.0167E+05  0.000E+00  0.000E+00  0.000E+00  4.84067E+01  1.454E-01  2.000E+01  2.000E+04 -8.368E-02
   1   13    2     1     2    1.0167E+05 -2.6249E+03   1.0430E+05  0.000E+00  0.000E+00  0.000E+00  4.79313E+01  1.472E-01  2.000E+01  2.000E+04 -1.312E-01
   1   14    3     1     3    1.0430E+05 -4.5679E+02   1.0476E+05  0.000E+00  0.000E+00  0.000E+00  4.74554E+01  1.485E-01  2.000E+01  2.000E+04 -2.284E-02
   1   15    4     1     4    1.0476E+05 -4.3408E+02   1.0519E+05  0.000E+00  0.000E+00  0.000E+00  4.69785E+01  1.489E-01  2.000E+01  2.000E+04 -2.170E-02
   1   16    5     1     5    1.0519E+05 -1.6352E+03   1.0682E+05  0.000E+00  0.000E+00  0.000E+00  4.65021E+01  1.498E-01  2.000E+01  2.000E+04 -8.176E-02
   1   16    6     1     6    1.0682E+05 -1.0350E+03   1.0786E+05  0.000E+00  0.000E+00  0.000E+00  4.60259E+01  1.509E-01  2.000E+01  2.000E+04 -5.175E-02
   1   16    7     1     7    1.0786E+05 -1.0136E+03   1.0887E+05  0.000E+00  0.000E+00  0.000E+00  4.55495E+01  1.518E-01  2.000E+01  2.000E+04 -5.068E-02
   1   16    8     1     8    1.0887E+05 -1.0046E+03   1.0988E+05  0.000E+00  0.000E+00  0.000E+00  4.50731E+01  1.526E-01  2.000E+01  2.000E+04 -5.023E-02
   1   16    9     1     9    1.0988E+05 -9.8890E+02   1.1087E+05  0.000E+00  0.000E+00  0.000E+00  4.45967E+01  1.535E-01  2.000E+01  2.000E+04 -4.944E-02
   1   16   10     1    10    1.1087E+05 -9.6394E+02   1.1183E+05  0.000E+00  0.000E+00  0.000E+00  4.41202E+01  1.543E-01  2.000E+01  2.000E+04 -4.820E-02
   1   16   11     1    11    1.1183E+05 -9.3828E+02   1.1277E+05  0.000E+00  0.000E+00  0.000E+00  4.36437E+01  1.551E-01  2.000E+01  2.000E+04 -4.691E-02
   1   16   12     1    12    1.1277E+05 -1.3834E+03   1.1415E+05  0.000E+00  0.000E+00  0.000E+00  4.31674E+01  1.560E-01  2.000E+01  2.000E+04 -6.917E-02
   1   15   13     1    13    1.1415E+05 -9.2815E+02   1.1508E+05  0.000E+00  0.000E+00  0.000E+00  4.26911E+01  1.570E-01  2.000E+01  2.000E+04 -4.641E-02
   1   14   14     1    14    1.1508E+05 -4.5670E+02   1.1554E+05  0.000E+00  0.000E+00  0.000E+00  4.22144E+01  1.576E-01  2.000E+01  2.000E+04 -2.284E-02
   1   13   15     1    15    1.1554E+05  8.9401E+01   1.1545E+05  0.000E+00  0.000E+00  0.000E+00  4.17373E+01  1.577E-01  2.000E+01  2.000E+04  4.470E-03
   1   12   16     1    16    1.1545E+05 -7.0483E+02   1.1615E+05  0.000E+00  0.000E+00  0.000E+00  4.12602E+01  1.580E-01  2.000E+01  2.000E+04 -3.524E-02
   1   12   17     1    17    1.1615E+05  7.1475E+02   1.1544E+05  0.000E+00  0.000E+00  0.000E+00  4.07830E+01  1.580E-01  2.000E+01  2.000E+04  3.574E-02
   1   12   18     1    18    1.1544E+05  3.0523E+02   1.1513E+05  0.000E+00  0.000E+00  0.000E+00  4.03053E+01  1.575E-01  2.000E+01  2.000E+04  1.526E-02
   1   12   19     1    19    1.1513E+05 -1.0655E+01   1.1514E+05  0.000E+00  0.000E+00  0.000E+00  3.98279E+01  1.574E-01  2.000E+01  2.000E+04 -5.328E-04
   1   13   20     1    20    1.1514E+05  2.5639E+02   1.1489E+05  0.000E+00  0.000E+00  0.000E+00  3.93505E+01  1.573E-01  2.000E+01  2.000E+04  1.282E-02
   1   14   21     1    21    1.1489E+05 -4.5885E+02   1.1535E+05  0.000E+00  0.000E+00  0.000E+00  3.88733E+01  1.574E-01  2.000E+01  2.000E+04 -2.294E-02
   1   14   22     1    22    1.1535E+05  5.0949E+03   1.1025E+05  0.000E+00  0.000E+00  0.000E+00  3.83941E+01  1.555E-01  2.000E+01  2.000E+04  2.547E-01
   1    9   30     2     1    5.0000E+04 -3.8217E+02   5.0382E+04  0.000E+00  0.000E+00  0.000E+00  4.02411E+01  1.161E-01  2.000E+01  2.000E+04 -1.911E-02
   1    9   29     2     2    5.0382E+04 -6.3844E+02   5.1021E+04  0.000E+00  0.000E+00  0.000E+00  3.99918E+01  1.168E-01  2.000E+01  2.000E+04 -3.192E-02
   1    9   28     2     3    5.1021E+04 -7.7533E+02   5.1796E+04  0.000E+00  0.000E+00  0.000E+00  3.97428E+01  1.178E-01  2.000E+01  2.000E+04 -3.877E-02
   1    9   27     2     4    5.1796E+04 -1.2271E+03   5.3023E+04  0.000E+00  0.000E+00  0.000E+00  3.94942E+01  1.192E-01  2.000E+01  2.000E+04 -6.135E-02
   1   10   26     2     5    5.3023E+04 -8.3013E+01   5.3106E+04  0.000E+00  0.000E+00  0.000E+00  3.92451E+01  1.201E-01  2.000E+01  2.000E+04 -4.151E-03
   1   11   25     2     6    5.3106E+04  6.4479E+02   5.2461E+04  0.000E+00  0.000E+00  0.000E+00  3.89947E+01  1.197E-01  2.000E+01  2.000E+04  3.224E-02
   1   12   24     2     7    5.2461E+04  7.4819E+02   5.1713E+04  0.000E+00  0.000E+00  0.000E+00  3.87437E+01  1.187E-01  2.000E+01  2.000E+04  3.741E-02
   1   13   23     2     8    5.1713E+04  4.7961E+01   5.1665E+04  0.000E+00  0.000E+00  0.000E+00  3.84932E+01  1.182E-01  2.000E+01  2.000E+04  2.398E-03
   1   14   22     2     9    5.1665E+04  2.0475E+03   4.9618E+04  0.000E+00  0.000E+00  0.000E+00  3.82418E+01  1.168E-01  2.000E+01  2.000E+04  1.024E-01
   1   14   22     3     1    1.5987E+05 -8.4452E+03   1.6831E+05  0.000E+00  0.000E+00  0.000E+00  3.77171E+01  1.616E-01  2.000E+01  2.000E+04 -4.223E-01
   1   15   23     3     2    1.6831E+05 -4.7547E+02   1.6879E+05  0.000E+00  0.000E+00  0.000E+00  3.68309E+01  1.642E-01  2.000E+01  2.000E+04 -2.377E-02
   1   15   24     3     3    1.6879E+05 -2.6989E+02   1.6906E+05  0.000E+00  0.000E+00  0.000E+00  3.59422E+01  1.644E-01  2.000E+01  2.000E+04 -1.349E-02
   1   15   25     3     4    1.6906E+05 -2.6829E+02   1.6933E+05  0.000E+00  0.000E+00  0.000E+00  3.50535E+01  1.646E-01  2.000E+01  2.000E+04 -1.341E-02
   1   15   26     3     5    1.6933E+05 -3.2921E+02   1.6966E+05  0.000E+00  0.000E+00  0.000E+00  3.41647E+01  1.647E-01  2.000E+01  2.000E+04 -1.646E-02
   1   16   27     3     6    1.6966E+05 -3.5951E+02   1.7002E+05  0.000E+00  0.000E+00  0.000E+00  3.32760E+01  1.649E-01  2.000E+01  2.000E+04 -1.798E-02
   1   17   28     3     7    1.7002E+05 -1.5335E+03   1.7155E+05  0.000E+00  0.000E+00  0.000E+00  3.23877E+01  1.655E-01  2.000E+01  2.000E+04 -7.667E-02
   1   18   29     3     8    1.7155E+05 -2.8535E+03   1.7440E+05  0.000E+00  0.000E+00  0.000E+00  3.15001E+01  1.668E-01  2.000E+01  2.000E+04 -1.427E-01
   1   18   30     3     9    1.7440E+05 -3.1502E+03   1.7755E+05  0.000E+00  0.000E+00  0.000E+00  3.06129E+01  1.685E-01  2.000E+01  2.000E+04 -1.575E-01



1
              HEAD IN LAYER   1 AT END OF TIME STEP   1 IN STRESS PERIOD    8
  ---------------------------------------------------------------------------

          1      2      3      4      5      6      7      8      9     10
         11     12     13     14     15     16     17     18     19     20
         21     22     23     24     25     26     27     28     29     30
 .........................................................................
   1  ****** ****** ****** ****** ****** ****** ****** ****** ****** ******
      ****** ****** ****** ****** ****** ****** ****** ****** ****** ******
      ****** ****** ****** ****** ****** ****** ****** ****** ****** ******
   2  ****** ****** ****** ****** ****** ****** ****** ****** ****** ******
      ****** ****** ****** ****** ****** ****** ****** ****** ****** ******
      ****** ****** ****** ****** ****** ****** ****** ****** ****** ******
   3  ****** ****** ****** ****** ****** ****** ****** ****** ****** ******
      ****** ****** ****** ****** ****** ****** ****** ****** ****** ******
      ****** ****** ****** ****** ****** ****** ****** ****** ****** ******
   4  ****** ****** ****** ****** ****** ****** ****** ****** ****** ******
      ****** ****** ****** ****** ****** ****** ****** ****** ****** ******
      ****** ****** ****** ****** ****** ****** ****** ****** ****** ******
   5  ****** ****** ****** ****** ****** ****** ****** ****** ****** ******
      ****** ****** ****** ****** ****** ****** ****** ****** ****** ******
      ****** ****** ****** ****** ****** ****** ****** ****** ****** ******
   6  ****** ****** ****** ****** ****** ****** ****** ****** ****** ******
      ****** ****** ****** ****** ****** ****** ****** ****** ****** ******
      ****** ****** ****** ****** ****** ****** ****** ****** ****** ******
   7  ****** ****** ****** ****** ****** ****** ****** ****** ****** ******
      ****** ****** ****** ****** ****** ****** ****** ****** ****** ******
      ****** ****** ****** ****** ****** ****** ****** ****** ****** ******
   8  ****** ****** ****** ****** ****** ****** ****** ****** ****** ******
      ****** ****** ****** ****** ****** ****** ****** ****** ****** ******
      ****** ****** ****** ****** ****** ****** ****** ****** ****** ******
   9  ****** ****** ****** ****** ****** ****** ****** ****** ****** ******
      ****** ****** ****** ****** ****** ****** ****** ****** ****** ******
      ****** ****** ****** ****** ****** ****** ****** ****** ****** ******
  10  ****** ****** ****** ****** ****** ****** ****** ****** ****** ******
      ****** ****** ****** ****** ****** ****** ****** ****** ****** ******
      ****** ****** ****** ****** ****** ****** ****** ****** ****** ******
  11  ****** ****** ****** ****** ****** ****** ****** ****** ****** ******
      ****** ****** ****** ****** ****** ****** ****** ****** ****** ******
      ****** ****** ****** ****** ****** ****** ****** ****** ****** ******
  12  ****** ****** ****** ****** ****** ****** ****** ****** ****** ******
      ****** ****** ****** ****** ****** ****** ****** ****** ****** ******
      ****** ****** ****** ****** ****** ****** ****** ****** ****** ******
  13  ****** ****** ****** ****** ****** ****** ****** ****** ****** ******
      ****** ****** ****** ****** ****** ****** ****** ****** ****** ******
      ****** ****** ****** ****** ****** ****** ****** ****** ****** ******
  14  ****** ****** ****** ****** ****** ****** ****** ****** ****** ******
      ****** ****** ****** ****** ****** ****** ****** ****** ****** ******
      ****** ****** ****** ****** ****** ****** ****** ****** ****** ******
  15  ****** ****** ****** ****** ****** ****** ****** ****** ****** ******
      ****** ****** ****** ****** ****** ****** ****** ****** ****** ******
      ****** ****** ****** ****** ****** ****** ****** ****** ****** ******
  16  ****** ****** ****** ****** ****** ****** ****** ****** ****** ******
      ****** ****** ****** ****** ****** ****** ****** ****** ****** ******
      ****** ****** ****** ****** ****** ****** ****** ****** ****** ******
  17  ****** ****** ****** ****** ****** ****** ****** ****** ****** ******
      ****** ****** ****** ****** ****** ****** ****** ****** ****** ******
      ****** ****** ****** ****** ****** ****** ****** ****** ****** ******
  18  ****** ****** ****** ****** ****** ****** ****** ****** ****** ******
      ****** ****** ****** ****** ****** ****** ****** ****** ****** ******
      ****** ****** ****** ****** ****** ****** ****** ****** ****** ******
  19  ****** ****** ****** ****** ****** ****** ****** ****** ****** ******
      ****** ****** ****** ****** ****** ****** ****** ****** ****** ******
      ****** ****** ****** ****** ****** ****** ****** ****** ****** ******
  20  ****** ****** ****** ****** ****** ****** ****** ****** ****** ******
      ****** ****** ****** ****** ****** ****** ****** ****** ****** ******
      ****** ****** ****** ****** ****** ****** ****** ****** ****** ******
  21  ****** ****** ****** ****** ****** ****** ****** ****** ****** ******
      ****** ****** ****** ****** ****** ****** ****** ****** ****** ******
      ****** ****** ****** ****** ****** ****** ****** ****** ****** ******
  22  ****** ****** ****** ****** ****** ****** ****** ****** ****** ******
      ****** ****** ****** ****** ****** ****** ****** ****** ****** ******
      ****** ****** ****** ****** ****** ****** ****** ****** ****** ******
  23  ****** ****** ****** ****** ****** ****** ****** ****** ****** ******
      ****** ****** ****** ****** ****** ****** ****** ****** ****** ******
      ****** ****** ****** ****** ****** ****** ****** ****** ****** ******
  24  ****** ****** ****** ****** ****** ****** ****** ****** ****** ******
      ****** ****** ****** ****** ****** ****** ****** ****** ****** ******
      ****** ****** ****** ****** ****** ****** ****** ****** ****** ******
  25  ****** ****** ****** ****** ****** ****** ****** ****** ****** ******
      ****** ****** ****** ****** ****** ****** ****** ****** ****** ******
      ****** ****** ****** ****** ****** ****** ****** ****** ****** ******

 HEAD WILL BE SAVED ON UNIT   51 AT END OF TIME STEP    1, STRESS PERIOD    8
1
  VOLUMETRIC BUDGET FOR ENTIRE MODEL AT END OF TIME STEP    1, STRESS PERIOD   8
  ------------------------------------------------------------------------------

     CUMULATIVE VOLUMES      L**3       RATES FOR THIS TIME STEP      L**3/T
     ------------------                 ------------------------

           IN:                                      IN:
           ---                                      ---
             STORAGE =    33728660.8922               STORAGE =        1732.8651
       CONSTANT HEAD =    19651045.8494         CONSTANT HEAD =       33813.9403
               WELLS =           0.0000                 WELLS =           0.0000
            RECHARGE =    17608800.0000              RECHARGE =       27600.0000
      STREAM LEAKAGE =     5760109.5040        STREAM LEAKAGE =        9949.1028

            TOTAL IN =    76748616.2456              TOTAL IN =       73095.9083

          OUT:                                     OUT:
          ----                                     ----
             STORAGE =      896801.4614               STORAGE =        1552.3004
       CONSTANT HEAD =           0.0000         CONSTANT HEAD =           0.0000
               WELLS =    24850303.0918                 WELLS =       34041.5111
            RECHARGE =           0.0000              RECHARGE =           0.0000
      STREAM LEAKAGE =    51001513.4876        STREAM LEAKAGE =       37502.0887

           TOTAL OUT =    76748618.0408             TOTAL OUT =       73095.9002

            IN - OUT =          -1.7953              IN - OUT =       8.0463E-03

 PERCENT DISCREPANCY =          -0.00     PERCENT DISCREPANCY =           0.00






         TIME SUMMARY AT END OF TIME STEP    1 IN STRESS PERIOD    8
                    SECONDS     MINUTES      HOURS       DAYS        YEARS
                    -----------------------------------------------------------
   TIME STEP LENGTH 7.86240E+06 1.31040E+05  2184.0      91.000     0.24914    
 STRESS PERIOD TIME 7.86240E+06 1.31040E+05  2184.0      91.000     0.24914    
         TOTAL TIME 6.30720E+07 1.05120E+06  17520.      730.00      1.9986    
1
1
                            STRESS PERIOD NO.    9, LENGTH =   92.00000    
                            -----------------------------------------------

                              NUMBER OF TIME STEPS =     1

                               MULTIPLIER FOR DELT =     1.500

                            INITIAL TIME STEP SIZE =   92.00000    

 WELL NO.  LAYER   ROW   COL   STRESS RATE         
 --------------------------------------------------
      1      1     14      6       0.000    
      2      1      3      9       0.000    
      3      1     20     10       0.000    
      4      1     14     20       0.000    
      5      1      8     21      -8123.    
      6      1      4     14      -6617.    
      7      1     10     23      -7449.    
      8      1     14     17     -0.1185E+05

      8 WELLS

                 RECHARGE =  5.000000E-04

 REUSING STREAM SEGMENT DATA FROM LAST STRESS PERIOD
 
 SOLVING FOR HEAD 


     6 CALLS TO PCG ROUTINE FOR TIME STEP   1 IN STRESS PERIOD    9
    23 TOTAL ITERATIONS

 OUTPUT CONTROL FOR STRESS PERIOD    9   TIME STEP    1
    SAVE BUDGET
    SAVE HEAD FOR ALL LAYERS
    PRINT HEAD FOR ALL LAYERS
 UBDSV2 SAVING "STREAMFLOW OUT  " ON UNIT  50 AT TIME STEP  1, STRESS PERIOD   9



 STREAM LISTING     PERIOD      9   STEP        1

 LAYER ROW COL. STREAM  RCH.  FLOW INTO     FLOW TO   FLOW OUT OF   OVRLND.     DIRECT     STREAM       STREAM     STREAM     STREAM   STREAMBED  STREAMBED
                SEG.NO.  NO.  STRM. RCH.    AQUIFER    STRM. RCH.    RUNOFF     PRECIP       ET          HEAD       DEPTH      WIDTH   CONDCTNC.   GRADIENT

   1   13    1     1     1    1.0000E+05 -1.4527E+03   1.0145E+05  0.000E+00  0.000E+00  0.000E+00  4.84066E+01  1.453E-01  2.000E+01  2.000E+04 -7.264E-02
   1   13    2     1     2    1.0145E+05 -2.3745E+03   1.0383E+05  0.000E+00  0.000E+00  0.000E+00  4.79310E+01  1.469E-01  2.000E+01  2.000E+04 -1.187E-01
   1   14    3     1     3    1.0383E+05 -3.8493E+02   1.0421E+05  0.000E+00  0.000E+00  0.000E+00  4.74549E+01  1.481E-01  2.000E+01  2.000E+04 -1.925E-02
   1   15    4     1     4    1.0421E+05 -3.6146E+02   1.0457E+05  0.000E+00  0.000E+00  0.000E+00  4.69780E+01  1.484E-01  2.000E+01  2.000E+04 -1.807E-02
   1   16    5     1     5    1.0457E+05 -1.4427E+03   1.0602E+05  0.000E+00  0.000E+00  0.000E+00  4.65015E+01  1.492E-01  2.000E+01  2.000E+04 -7.213E-02
   1   16    6     1     6    1.0602E+05 -9.1450E+02   1.0693E+05  0.000E+00  0.000E+00  0.000E+00  4.60252E+01  1.502E-01  2.000E+01  2.000E+04 -4.572E-02
   1   16    7     1     7    1.0693E+05 -8.9678E+02   1.0783E+05  0.000E+00  0.000E+00  0.000E+00  4.55487E+01  1.510E-01  2.000E+01  2.000E+04 -4.484E-02
   1   16    8     1     8    1.0783E+05 -8.8928E+02   1.0872E+05  0.000E+00  0.000E+00  0.000E+00  4.50722E+01  1.517E-01  2.000E+01  2.000E+04 -4.446E-02
   1   16    9     1     9    1.0872E+05 -8.7533E+02   1.0959E+05  0.000E+00  0.000E+00  0.000E+00  4.45956E+01  1.525E-01  2.000E+01  2.000E+04 -4.377E-02
   1   16   10     1    10    1.0959E+05 -8.5259E+02   1.1044E+05  0.000E+00  0.000E+00  0.000E+00  4.41191E+01  1.532E-01  2.000E+01  2.000E+04 -4.263E-02
   1   16   11     1    11    1.1044E+05 -8.2822E+02   1.1127E+05  0.000E+00  0.000E+00  0.000E+00  4.36425E+01  1.539E-01  2.000E+01  2.000E+04 -4.141E-02
   1   16   12     1    12    1.1127E+05 -1.1948E+03   1.1247E+05  0.000E+00  0.000E+00  0.000E+00  4.31661E+01  1.547E-01  2.000E+01  2.000E+04 -5.974E-02
   1   15   13     1    13    1.1247E+05 -7.1646E+02   1.1318E+05  0.000E+00  0.000E+00  0.000E+00  4.26896E+01  1.555E-01  2.000E+01  2.000E+04 -3.582E-02
   1   14   14     1    14    1.1318E+05 -2.3029E+02   1.1341E+05  0.000E+00  0.000E+00  0.000E+00  4.22127E+01  1.559E-01  2.000E+01  2.000E+04 -1.151E-02
   1   13   15     1    15    1.1341E+05  3.2280E+02   1.1309E+05  0.000E+00  0.000E+00  0.000E+00  4.17354E+01  1.559E-01  2.000E+01  2.000E+04  1.614E-02
   1   12   16     1    16    1.1309E+05 -4.6116E+02   1.1355E+05  0.000E+00  0.000E+00  0.000E+00  4.12582E+01  1.559E-01  2.000E+01  2.000E+04 -2.306E-02
   1   12   17     1    17    1.1355E+05  8.8078E+02   1.1267E+05  0.000E+00  0.000E+00  0.000E+00  4.07808E+01  1.558E-01  2.000E+01  2.000E+04  4.404E-02
   1   12   18     1    18    1.1267E+05  4.6323E+02   1.1221E+05  0.000E+00  0.000E+00  0.000E+00  4.03029E+01  1.552E-01  2.000E+01  2.000E+04  2.316E-02
   1   12   19     1    19    1.1221E+05  1.7966E+02   1.1203E+05  0.000E+00  0.000E+00  0.000E+00  3.98254E+01  1.549E-01  2.000E+01  2.000E+04  8.983E-03
   1   13   20     1    20    1.1203E+05  4.3092E+02   1.1160E+05  0.000E+00  0.000E+00  0.000E+00  3.93479E+01  1.547E-01  2.000E+01  2.000E+04  2.155E-02
   1   14   21     1    21    1.1160E+05 -2.8779E+02   1.1189E+05  0.000E+00  0.000E+00  0.000E+00  3.88705E+01  1.546E-01  2.000E+01  2.000E+04 -1.439E-02
   1   14   22     1    22    1.1189E+05  5.1328E+03   1.0675E+05  0.000E+00  0.000E+00  0.000E+00  3.83912E+01  1.526E-01  2.000E+01  2.000E+04  2.566E-01
   1    9   30     2     1    5.0000E+04 -2.5784E+02   5.0258E+04  0.000E+00  0.000E+00  0.000E+00  4.02410E+01  1.160E-01  2.000E+01  2.000E+04 -1.289E-02
   1    9   29     2     2    5.0258E+04 -5.1382E+02   5.0772E+04  0.000E+00  0.000E+00  0.000E+00  3.99916E+01  1.166E-01  2.000E+01  2.000E+04 -2.569E-02
   1    9   28     2     3    5.0772E+04 -6.4861E+02   5.1420E+04  0.000E+00  0.000E+00  0.000E+00  3.97424E+01  1.174E-01  2.000E+01  2.000E+04 -3.243E-02
   1    9   27     2     4    5.1420E+04 -1.0479E+03   5.2468E+04  0.000E+00  0.000E+00  0.000E+00  3.94935E+01  1.185E-01  2.000E+01  2.000E+04 -5.239E-02
   1   10   26     2     5    5.2468E+04  9.2791E+01   5.2375E+04  0.000E+00  0.000E+00  0.000E+00  3.92442E+01  1.192E-01  2.000E+01  2.000E+04  4.640E-03
   1   11   25     2     6    5.2375E+04  8.1295E+02   5.1562E+04  0.000E+00  0.000E+00  0.000E+00  3.89936E+01  1.186E-01  2.000E+01  2.000E+04  4.065E-02
   1   12   24     2     7    5.1562E+04  9.0291E+02   5.0660E+04  0.000E+00  0.000E+00  0.000E+00  3.87424E+01  1.174E-01  2.000E+01  2.000E+04  4.515E-02
   1   13   23     2     8    5.0660E+04  9.5364E+01   5.0564E+04  0.000E+00  0.000E+00  0.000E+00  3.84917E+01  1.167E-01  2.000E+01  2.000E+04  4.768E-03
   1   14   22     2     9    5.0564E+04  2.1118E+03   4.8452E+04  0.000E+00  0.000E+00  0.000E+00  3.82402E+01  1.152E-01  2.000E+01  2.000E+04  1.056E-01
   1   14   22     3     1    1.5521E+05 -8.4051E+03   1.6361E+05  0.000E+00  0.000E+00  0.000E+00  3.77143E+01  1.588E-01  2.000E+01  2.000E+04 -4.203E-01
   1   15   23     3     2    1.6361E+05 -4.2319E+02   1.6403E+05  0.000E+00  0.000E+00  0.000E+00  3.68281E+01  1.614E-01  2.000E+01  2.000E+04 -2.116E-02
   1   15   24     3     3    1.6403E+05 -2.2705E+02   1.6426E+05  0.000E+00  0.000E+00  0.000E+00  3.59394E+01  1.616E-01  2.000E+01  2.000E+04 -1.135E-02
   1   15   25     3     4    1.6426E+05 -2.2518E+02   1.6449E+05  0.000E+00  0.000E+00  0.000E+00  3.50506E+01  1.617E-01  2.000E+01  2.000E+04 -1.126E-02
   1   15   26     3     5    1.6449E+05 -2.8173E+02   1.6477E+05  0.000E+00  0.000E+00  0.000E+00  3.41619E+01  1.619E-01  2.000E+01  2.000E+04 -1.409E-02
   1   16   27     3     6    1.6477E+05 -3.0370E+02   1.6507E+05  0.000E+00  0.000E+00  0.000E+00  3.32732E+01  1.621E-01  2.000E+01  2.000E+04 -1.519E-02
   1   17   28     3     7    1.6507E+05 -1.3806E+03   1.6645E+05  0.000E+00  0.000E+00  0.000E+00  3.23848E+01  1.626E-01  2.000E+01  2.000E+04 -6.903E-02
   1   18   29     3     8    1.6645E+05 -2.6789E+03   1.6913E+05  0.000E+00  0.000E+00  0.000E+00  3.14971E+01  1.637E-01  2.000E+01  2.000E+04 -1.339E-01
   1   18   30     3     9    1.6913E+05 -3.0189E+03   1.7215E+05  0.000E+00  0.000E+00  0.000E+00  3.06098E+01  1.654E-01  2.000E+01  2.000E+04 -1.509E-01



1
              HEAD IN LAYER   1 AT END OF TIME STEP   1 IN STRESS PERIOD    9
  ---------------------------------------------------------------------------

          1      2      3      4      5      6      7      8      9     10
         11     12     13     14     15     16     17     18     19     20
         21     22     23     24     25     26     27     28     29     30
 .........................................................................
   1  ****** ****** ****** ****** ****** ****** ****** ****** ****** ******
      ****** ****** ****** ****** ****** ****** ****** ****** ****** ******
      ****** ****** ****** ****** ****** ****** ****** ****** ****** ******
   2  ****** ****** ****** ****** ****** ****** ****** ****** ****** ******
      ****** ****** ****** ****** ****** ****** ****** ****** ****** ******
      ****** ****** ****** ****** ****** ****** ****** ****** ****** ******
   3  ****** ****** ****** ****** ****** ****** ****** ****** ****** ******
      ****** ****** ****** ****** ****** ****** ****** ****** ****** ******
      ****** ****** ****** ****** ****** ****** ****** ****** ****** ******
   4  ****** ****** ****** ****** ****** ****** ****** ****** ****** ******
      ****** ****** ****** ****** ****** ****** ****** ****** ****** ******
      ****** ****** ****** ****** ****** ****** ****** ****** ****** ******
   5  ****** ****** ****** ****** ****** ****** ****** ****** ****** ******
      ****** ****** ****** ****** ****** ****** ****** ****** ****** ******
      ****** ****** ****** ****** ****** ****** ****** ****** ****** ******
   6  ****** ****** ****** ****** ****** ****** ****** ****** ****** ******
      ****** ****** ****** ****** ****** ****** ****** ****** ****** ******
      ****** ****** ****** ****** ****** ****** ****** ****** ****** ******
   7  ****** ****** ****** ****** ****** ****** ****** ****** ****** ******
      ****** ****** ****** ****** ****** ****** ****** ****** ****** ******
      ****** ****** ****** ****** ****** ****** ****** ****** ****** ******
   8  ****** ****** ****** ****** ****** ****** ****** ****** ****** ******
      ****** ****** ****** ****** ****** ****** ****** ****** ****** ******
      ****** ****** ****** ****** ****** ****** ****** ****** ****** ******
   9  ****** ****** ****** ****** ****** ****** ****** ****** ****** ******
      ****** ****** ****** ****** ****** ****** ****** ****** ****** ******
      ****** ****** ****** ****** ****** ****** ****** ****** ****** ******
  10  ****** ****** ****** ****** ****** ****** ****** ****** ****** ******
      ****** ****** ****** ****** ****** ****** ****** ****** ****** ******
      ****** ****** ****** ****** ****** ****** ****** ****** ****** ******
  11  ****** ****** ****** ****** ****** ****** ****** ****** ****** ******
      ****** ****** ****** ****** ****** ****** ****** ****** ****** ******
      ****** ****** ****** ****** ****** ****** ****** ****** ****** ******
  12  ****** ****** ****** ****** ****** ****** ****** ****** ****** ******
      ****** ****** ****** ****** ****** ****** ****** ****** ****** ******
      ****** ****** ****** ****** ****** ****** ****** ****** ****** ******
  13  ****** ****** ****** ****** ****** ****** ****** ****** ****** ******
      ****** ****** ****** ****** ****** ****** ****** ****** ****** ******
      ****** ****** ****** ****** ****** ****** ****** ****** ****** ******
  14  ****** ****** ****** ****** ****** ****** ****** ****** ****** ******
      ****** ****** ****** ****** ****** ****** ****** ****** ****** ******
      ****** ****** ****** ****** ****** ****** ****** ****** ****** ******
  15  ****** ****** ****** ****** ****** ****** ****** ****** ****** ******
      ****** ****** ****** ****** ****** ****** ****** ****** ****** ******
      ****** ****** ****** ****** ****** ****** ****** ****** ****** ******
  16  ****** ****** ****** ****** ****** ****** ****** ****** ****** ******
      ****** ****** ****** ****** ****** ****** ****** ****** ****** ******
      ****** ****** ****** ****** ****** ****** ****** ****** ****** ******
  17  ****** ****** ****** ****** ****** ****** ****** ****** ****** ******
      ****** ****** ****** ****** ****** ****** ****** ****** ****** ******
      ****** ****** ****** ****** ****** ****** ****** ****** ****** ******
  18  ****** ****** ****** ****** ****** ****** ****** ****** ****** ******
      ****** ****** ****** ****** ****** ****** ****** ****** ****** ******
      ****** ****** ****** ****** ****** ****** ****** ****** ****** ******
  19  ****** ****** ****** ****** ****** ****** ****** ****** ****** ******
      ****** ****** ****** ****** ****** ****** ****** ****** ****** ******
      ****** ****** ****** ****** ****** ****** ****** ****** ****** ******
  20  ****** ****** ****** ****** ****** ****** ****** ****** ****** ******
      ****** ****** ****** ****** ****** ****** ****** ****** ****** ******
      ****** ****** ****** ****** ****** ****** ****** ****** ****** ******
  21  ****** ****** ****** ****** ****** ****** ****** ****** ****** ******
      ****** ****** ****** ****** ****** ****** ****** ****** ****** ******
      ****** ****** ****** ****** ****** ****** ****** ****** ****** ******
  22  ****** ****** ****** ****** ****** ****** ****** ****** ****** ******
      ****** ****** ****** ****** ****** ****** ****** ****** ****** ******
      ****** ****** ****** ****** ****** ****** ****** ****** ****** ******
  23  ****** ****** ****** ****** ****** ****** ****** ****** ****** ******
      ****** ****** ****** ****** ****** ****** ****** ****** ****** ******
      ****** ****** ****** ****** ****** ****** ****** ****** ****** ******
  24  ****** ****** ****** ****** ****** ****** ****** ****** ****** ******
      ****** ****** ****** ****** ****** ****** ****** ****** ****** ******
      ****** ****** ****** ****** ****** ****** ****** ****** ****** ******
  25  ****** ****** ****** ****** ****** ****** ****** ****** ****** ******
      ****** ****** ****** ****** ****** ****** ****** ****** ****** ******
      ****** ****** ****** ****** ****** ****** ****** ****** ****** ******

 HEAD WILL BE SAVED ON UNIT   51 AT END OF TIME STEP    1, STRESS PERIOD    9
1
  VOLUMETRIC BUDGET FOR ENTIRE MODEL AT END OF TIME STEP    1, STRESS PERIOD   9
  ------------------------------------------------------------------------------

     CUMULATIVE VOLUMES      L**3       RATES FOR THIS TIME STEP      L**3/T
     ------------------                 ------------------------

           IN:                                      IN:
           ---                                      ---
             STORAGE =    34408542.6541               STORAGE =        7390.0192
       CONSTANT HEAD =    22871180.4652         CONSTANT HEAD =       35001.4632
               WELLS =           0.0000                 WELLS =           0.0000
            RECHARGE =    18878400.0000              RECHARGE =       13800.0000
      STREAM LEAKAGE =     6811297.8001        STREAM LEAKAGE =       11425.9597

            TOTAL IN =    82969420.9194              TOTAL IN =       67617.4421

          OUT:                                     OUT:
          ----                                     ----
             STORAGE =      896801.4614               STORAGE =           0.0000
       CONSTANT HEAD =           0.0000         CONSTANT HEAD =           0.0000
               WELLS =    27982122.1116                 WELLS =       34041.5111
            RECHARGE =           0.0000              RECHARGE =           0.0000
      STREAM LEAKAGE =    54090499.2144        STREAM LEAKAGE =       33575.9318

           TOTAL OUT =    82969422.7874             TOTAL OUT =       67617.4429

            IN - OUT =          -1.8680              IN - OUT =      -7.9062E-04

 PERCENT DISCREPANCY =          -0.00     PERCENT DISCREPANCY =          -0.00






         TIME SUMMARY AT END OF TIME STEP    1 IN STRESS PERIOD    9
                    SECONDS     MINUTES      HOURS       DAYS        YEARS
                    -----------------------------------------------------------
   TIME STEP LENGTH 7.94880E+06 1.32480E+05  2208.0      92.000     0.25188    
 STRESS PERIOD TIME 7.94880E+06 1.32480E+05  2208.0      92.000     0.25188    
         TOTAL TIME 7.10208E+07 1.18368E+06  19728.      822.00      2.2505    
1
1
                            STRESS PERIOD NO.   10, LENGTH =   91.00000    
                            -----------------------------------------------

                              NUMBER OF TIME STEPS =     1

                               MULTIPLIER FOR DELT =     1.500

                            INITIAL TIME STEP SIZE =   91.00000    

 WELL NO.  LAYER   ROW   COL   STRESS RATE         
 --------------------------------------------------
      1      1     14      6       0.000    
      2      1      3      9       0.000    
      3      1     20     10       0.000    
      4      1     14     20       0.000    
      5      1      8     21      -8123.    
      6      1      4     14      -6617.    
      7      1     10     23      -7449.    
      8      1     14     17     -0.1185E+05

      8 WELLS

                 RECHARGE =  2.000000E-03

 REUSING STREAM SEGMENT DATA FROM LAST STRESS PERIOD
 
 SOLVING FOR HEAD 


     7 CALLS TO PCG ROUTINE FOR TIME STEP   1 IN STRESS PERIOD   10
    26 TOTAL ITERATIONS

 OUTPUT CONTROL FOR STRESS PERIOD   10   TIME STEP    1
    SAVE BUDGET
    SAVE HEAD FOR ALL LAYERS
    PRINT HEAD FOR ALL LAYERS
 UBDSV2 SAVING "STREAMFLOW OUT  " ON UNIT  50 AT TIME STEP  1, STRESS PERIOD  10



 STREAM LISTING     PERIOD     10   STEP        1

 LAYER ROW COL. STREAM  RCH.  FLOW INTO     FLOW TO   FLOW OUT OF   OVRLND.     DIRECT     STREAM       STREAM     STREAM     STREAM   STREAMBED  STREAMBED
                SEG.NO.  NO.  STRM. RCH.    AQUIFER    STRM. RCH.    RUNOFF     PRECIP       ET          HEAD       DEPTH      WIDTH   CONDCTNC.   GRADIENT

   1   13    1     1     1    1.0000E+05 -1.9005E+03   1.0190E+05  0.000E+00  0.000E+00  0.000E+00  4.84068E+01  1.455E-01  2.000E+01  2.000E+04 -9.502E-02
   1   13    2     1     2    1.0190E+05 -2.8705E+03   1.0477E+05  0.000E+00  0.000E+00  0.000E+00  4.79316E+01  1.475E-01  2.000E+01  2.000E+04 -1.435E-01
   1   14    3     1     3    1.0477E+05 -5.7066E+02   1.0534E+05  0.000E+00  0.000E+00  0.000E+00  4.74558E+01  1.490E-01  2.000E+01  2.000E+04 -2.853E-02
   1   15    4     1     4    1.0534E+05 -5.6027E+02   1.0590E+05  0.000E+00  0.000E+00  0.000E+00  4.69790E+01  1.495E-01  2.000E+01  2.000E+04 -2.801E-02
   1   16    5     1     5    1.0590E+05 -2.0615E+03   1.0796E+05  0.000E+00  0.000E+00  0.000E+00  4.65029E+01  1.506E-01  2.000E+01  2.000E+04 -1.031E-01
   1   16    6     1     6    1.0796E+05 -1.2763E+03   1.0924E+05  0.000E+00  0.000E+00  0.000E+00  4.60270E+01  1.520E-01  2.000E+01  2.000E+04 -6.381E-02
   1   16    7     1     7    1.0924E+05 -1.2407E+03   1.1048E+05  0.000E+00  0.000E+00  0.000E+00  4.55508E+01  1.530E-01  2.000E+01  2.000E+04 -6.204E-02
   1   16    8     1     8    1.1048E+05 -1.2278E+03   1.1171E+05  0.000E+00  0.000E+00  0.000E+00  4.50745E+01  1.541E-01  2.000E+01  2.000E+04 -6.139E-02
   1   16    9     1     9    1.1171E+05 -1.2124E+03   1.1292E+05  0.000E+00  0.000E+00  0.000E+00  4.45983E+01  1.551E-01  2.000E+01  2.000E+04 -6.062E-02
   1   16   10     1    10    1.1292E+05 -1.1900E+03   1.1411E+05  0.000E+00  0.000E+00  0.000E+00  4.41220E+01  1.561E-01  2.000E+01  2.000E+04 -5.950E-02
   1   16   11     1    11    1.1411E+05 -1.1693E+03   1.1528E+05  0.000E+00  0.000E+00  0.000E+00  4.36457E+01  1.571E-01  2.000E+01  2.000E+04 -5.846E-02
   1   16   12     1    12    1.1528E+05 -1.7639E+03   1.1704E+05  0.000E+00  0.000E+00  0.000E+00  4.31696E+01  1.583E-01  2.000E+01  2.000E+04 -8.820E-02
   1   15   13     1    13    1.1704E+05 -1.3014E+03   1.1835E+05  0.000E+00  0.000E+00  0.000E+00  4.26936E+01  1.595E-01  2.000E+01  2.000E+04 -6.507E-02
   1   14   14     1    14    1.1835E+05 -8.2163E+02   1.1917E+05  0.000E+00  0.000E+00  0.000E+00  4.22172E+01  1.604E-01  2.000E+01  2.000E+04 -4.108E-02
   1   13   15     1    15    1.1917E+05 -2.5781E+02   1.1942E+05  0.000E+00  0.000E+00  0.000E+00  4.17404E+01  1.608E-01  2.000E+01  2.000E+04 -1.289E-02
   1   12   16     1    16    1.1942E+05 -1.0190E+03   1.2044E+05  0.000E+00  0.000E+00  0.000E+00  4.12636E+01  1.613E-01  2.000E+01  2.000E+04 -5.095E-02
   1   12   17     1    17    1.2044E+05  4.5724E+02   1.1999E+05  0.000E+00  0.000E+00  0.000E+00  4.07865E+01  1.615E-01  2.000E+01  2.000E+04  2.286E-02
   1   12   18     1    18    1.1999E+05  4.3501E+01   1.1994E+05  0.000E+00  0.000E+00  0.000E+00  4.03091E+01  1.613E-01  2.000E+01  2.000E+04  2.175E-03
   1   12   19     1    19    1.1994E+05 -3.3686E+02   1.2028E+05  0.000E+00  0.000E+00  0.000E+00  3.98319E+01  1.615E-01  2.000E+01  2.000E+04 -1.684E-02
   1   13   20     1    20    1.2028E+05 -8.9699E+01   1.2037E+05  0.000E+00  0.000E+00  0.000E+00  3.93548E+01  1.616E-01  2.000E+01  2.000E+04 -4.485E-03
   1   14   21     1    21    1.2037E+05 -8.1301E+02   1.2118E+05  0.000E+00  0.000E+00  0.000E+00  3.88779E+01  1.620E-01  2.000E+01  2.000E+04 -4.065E-02
   1   14   22     1    22    1.2118E+05  5.0060E+03   1.1618E+05  0.000E+00  0.000E+00  0.000E+00  3.83989E+01  1.603E-01  2.000E+01  2.000E+04  2.503E-01
   1    9   30     2     1    5.0000E+04 -6.7151E+02   5.0672E+04  0.000E+00  0.000E+00  0.000E+00  4.02413E+01  1.163E-01  2.000E+01  2.000E+04 -3.358E-02
   1    9   29     2     2    5.0672E+04 -9.2516E+02   5.1597E+04  0.000E+00  0.000E+00  0.000E+00  3.99924E+01  1.174E-01  2.000E+01  2.000E+04 -4.626E-02
   1    9   28     2     3    5.1597E+04 -1.0590E+03   5.2656E+04  0.000E+00  0.000E+00  0.000E+00  3.97438E+01  1.188E-01  2.000E+01  2.000E+04 -5.295E-02
   1    9   27     2     4    5.2656E+04 -1.5994E+03   5.4255E+04  0.000E+00  0.000E+00  0.000E+00  3.94956E+01  1.206E-01  2.000E+01  2.000E+04 -7.997E-02
   1   10   26     2     5    5.4255E+04 -4.5894E+02   5.4714E+04  0.000E+00  0.000E+00  0.000E+00  3.92470E+01  1.220E-01  2.000E+01  2.000E+04 -2.295E-02
   1   11   25     2     6    5.4714E+04  2.8567E+02   5.4428E+04  0.000E+00  0.000E+00  0.000E+00  3.89971E+01  1.221E-01  2.000E+01  2.000E+04  1.428E-02
   1   12   24     2     7    5.4428E+04  4.2583E+02   5.4003E+04  0.000E+00  0.000E+00  0.000E+00  3.87466E+01  1.216E-01  2.000E+01  2.000E+04  2.129E-02
   1   13   23     2     8    5.4003E+04 -5.3151E+01   5.4056E+04  0.000E+00  0.000E+00  0.000E+00  3.84964E+01  1.214E-01  2.000E+01  2.000E+04 -2.658E-03
   1   14   22     2     9    5.4056E+04  1.9294E+03   5.2126E+04  0.000E+00  0.000E+00  0.000E+00  3.82451E+01  1.201E-01  2.000E+01  2.000E+04  9.647E-02
   1   14   22     3     1    1.6830E+05 -8.5313E+03   1.7683E+05  0.000E+00  0.000E+00  0.000E+00  3.77221E+01  1.665E-01  2.000E+01  2.000E+04 -4.266E-01
   1   15   23     3     2    1.7683E+05 -5.8586E+02   1.7742E+05  0.000E+00  0.000E+00  0.000E+00  3.68358E+01  1.691E-01  2.000E+01  2.000E+04 -2.929E-02
   1   15   24     3     3    1.7742E+05 -3.6431E+02   1.7778E+05  0.000E+00  0.000E+00  0.000E+00  3.59472E+01  1.694E-01  2.000E+01  2.000E+04 -1.822E-02
   1   15   25     3     4    1.7778E+05 -3.6584E+02   1.7815E+05  0.000E+00  0.000E+00  0.000E+00  3.50585E+01  1.696E-01  2.000E+01  2.000E+04 -1.829E-02
   1   15   26     3     5    1.7815E+05 -4.4401E+02   1.7859E+05  0.000E+00  0.000E+00  0.000E+00  3.41699E+01  1.699E-01  2.000E+01  2.000E+04 -2.220E-02
   1   16   27     3     6    1.7859E+05 -4.8965E+02   1.7908E+05  0.000E+00  0.000E+00  0.000E+00  3.32812E+01  1.701E-01  2.000E+01  2.000E+04 -2.448E-02
   1   17   28     3     7    1.7908E+05 -1.9016E+03   1.8099E+05  0.000E+00  0.000E+00  0.000E+00  3.23930E+01  1.708E-01  2.000E+01  2.000E+04 -9.508E-02
   1   18   29     3     8    1.8099E+05 -3.2310E+03   1.8422E+05  0.000E+00  0.000E+00  0.000E+00  3.15056E+01  1.723E-01  2.000E+01  2.000E+04 -1.616E-01
   1   18   30     3     9    1.8422E+05 -3.4447E+03   1.8766E+05  0.000E+00  0.000E+00  0.000E+00  3.06186E+01  1.741E-01  2.000E+01  2.000E+04 -1.722E-01



1
              HEAD IN LAYER   1 AT END OF TIME STEP   1 IN STRESS PERIOD   10
  ---------------------------------------------------------------------------

          1      2      3      4      5      6      7      8      9     10
         11     12     13     14     15     16     17     18     19     20
         21     22     23     24     25     26     27     28     29     30
 .........................................................................
   1  ****** ****** ****** ****** ****** ****** ****** ****** ****** ******
      ****** ****** ****** ****** ****** ****** ****** ****** ****** ******
      ****** ****** ****** ****** ****** ****** ****** ****** ****** ******
   2  ****** ****** ****** ****** ****** ****** ****** ****** ****** ******
      ****** ****** ****** ****** ****** ****** ****** ****** ****** ******
      ****** ****** ****** ****** ****** ****** ****** ****** ****** ******
   3  ****** ****** ****** ****** ****** ****** ****** ****** ****** ******
      ****** ****** ****** ****** ****** ****** ****** ****** ****** ******
      ****** ****** ****** ****** ****** ****** ****** ****** ****** ******
   4  ****** ****** ****** ****** ****** ****** ****** ****** ****** ******
      ****** ****** ****** ****** ****** ****** ****** ****** ****** ******
      ****** ****** ****** ****** ****** ****** ****** ****** ****** ******
   5  ****** ****** ****** ****** ****** ****** ****** ****** ****** ******
      ****** ****** ****** ****** ****** ****** ****** ****** ****** ******
      ****** ****** ****** ****** ****** ****** ****** ****** ****** ******
   6  ****** ****** ****** ****** ****** ****** ****** ****** ****** ******
      ****** ****** ****** ****** ****** ****** ****** ****** ****** ******
      ****** ****** ****** ****** ****** ****** ****** ****** ****** ******
   7  ****** ****** ****** ****** ****** ****** ****** ****** ****** ******
      ****** ****** ****** ****** ****** ****** ****** ****** ****** ******
      ****** ****** ****** ****** ****** ****** ****** ****** ****** ******
   8  ****** ****** ****** ****** ****** ****** ****** ****** ****** ******
      ****** ****** ****** ****** ****** ****** ****** ****** ****** ******
      ****** ****** ****** ****** ****** ****** ****** ****** ****** ******
   9  ****** ****** ****** ****** ****** ****** ****** ****** ****** ******
      ****** ****** ****** ****** ****** ****** ****** ****** ****** ******
      ****** ****** ****** ****** ****** ****** ****** ****** ****** ******
  10  ****** ****** ****** ****** ****** ****** ****** ****** ****** ******
      ****** ****** ****** ****** ****** ****** ****** ****** ****** ******
      ****** ****** ****** ****** ****** ****** ****** ****** ****** ******
  11  ****** ****** ****** ****** ****** ****** ****** ****** ****** ******
      ****** ****** ****** ****** ****** ****** ****** ****** ****** ******
      ****** ****** ****** ****** ****** ****** ****** ****** ****** ******
  12  ****** ****** ****** ****** ****** ****** ****** ****** ****** ******
      ****** ****** ****** ****** ****** ****** ****** ****** ****** ******
      ****** ****** ****** ****** ****** ****** ****** ****** ****** ******
  13  ****** ****** ****** ****** ****** ****** ****** ****** ****** ******
      ****** ****** ****** ****** ****** ****** ****** ****** ****** ******
      ****** ****** ****** ****** ****** ****** ****** ****** ****** ******
  14  ****** ****** ****** ****** ****** ****** ****** ****** ****** ******
      ****** ****** ****** ****** ****** ****** ****** ****** ****** ******
      ****** ****** ****** ****** ****** ****** ****** ****** ****** ******
  15  ****** ****** ****** ****** ****** ****** ****** ****** ****** ******
      ****** ****** ****** ****** ****** ****** ****** ****** ****** ******
      ****** ****** ****** ****** ****** ****** ****** ****** ****** ******
  16  ****** ****** ****** ****** ****** ****** ****** ****** ****** ******
      ****** ****** ****** ****** ****** ****** ****** ****** ****** ******
      ****** ****** ****** ****** ****** ****** ****** ****** ****** ******
  17  ****** ****** ****** ****** ****** ****** ****** ****** ****** ******
      ****** ****** ****** ****** ****** ****** ****** ****** ****** ******
      ****** ****** ****** ****** ****** ****** ****** ****** ****** ******
  18  ****** ****** ****** ****** ****** ****** ****** ****** ****** ******
      ****** ****** ****** ****** ****** ****** ****** ****** ****** ******
      ****** ****** ****** ****** ****** ****** ****** ****** ****** ******
  19  ****** ****** ****** ****** ****** ****** ****** ****** ****** ******
      ****** ****** ****** ****** ****** ****** ****** ****** ****** ******
      ****** ****** ****** ****** ****** ****** ****** ****** ****** ******
  20  ****** ****** ****** ****** ****** ****** ****** ****** ****** ******
      ****** ****** ****** ****** ****** ****** ****** ****** ****** ******
      ****** ****** ****** ****** ****** ****** ****** ****** ****** ******
  21  ****** ****** ****** ****** ****** ****** ****** ****** ****** ******
      ****** ****** ****** ****** ****** ****** ****** ****** ****** ******
      ****** ****** ****** ****** ****** ****** ****** ****** ****** ******
  22  ****** ****** ****** ****** ****** ****** ****** ****** ****** ******
      ****** ****** ****** ****** ****** ****** ****** ****** ****** ******
      ****** ****** ****** ****** ****** ****** ****** ****** ****** ******
  23  ****** ****** ****** ****** ****** ****** ****** ****** ****** ******
      ****** ****** ****** ****** ****** ****** ****** ****** ****** ******
      ****** ****** ****** ****** ****** ****** ****** ****** ****** ******
  24  ****** ****** ****** ****** ****** ****** ****** ****** ****** ******
      ****** ****** ****** ****** ****** ****** ****** ****** ****** ******
      ****** ****** ****** ****** ****** ****** ****** ****** ****** ******
  25  ****** ****** ****** ****** ****** ****** ****** ****** ****** ******
      ****** ****** ****** ****** ****** ****** ****** ****** ****** ******
      ****** ****** ****** ****** ****** ****** ****** ****** ****** ******

 HEAD WILL BE SAVED ON UNIT   51 AT END OF TIME STEP    1, STRESS PERIOD   10
1
  VOLUMETRIC BUDGET FOR ENTIRE MODEL AT END OF TIME STEP    1, STRESS PERIOD  10
  ------------------------------------------------------------------------------

     CUMULATIVE VOLUMES      L**3       RATES FOR THIS TIME STEP      L**3/T
     ------------------                 ------------------------

           IN:                                      IN:
           ---                                      ---
             STORAGE =    34408542.6541               STORAGE =           0.0000
       CONSTANT HEAD =    25788889.7166         CONSTANT HEAD =       32062.7390
               WELLS =           0.0000                 WELLS =           0.0000
            RECHARGE =    23901600.0000              RECHARGE =       55200.0000
      STREAM LEAKAGE =     7552731.5840        STREAM LEAKAGE =        8147.6240

            TOTAL IN =    91651763.9546              TOTAL IN =       95410.3630

          OUT:                                     OUT:
          ----                                     ----
             STORAGE =     2312785.9470               STORAGE =       15560.2691
       CONSTANT HEAD =           0.0000         CONSTANT HEAD =           0.0000
               WELLS =    31079899.6203                 WELLS =       34041.5111
            RECHARGE =           0.0000              RECHARGE =           0.0000
      STREAM LEAKAGE =    58259079.9080        STREAM LEAKAGE =       45808.5791

           TOTAL OUT =    91651765.4754             TOTAL OUT =       95410.3592

            IN - OUT =          -1.5207              IN - OUT =       3.8164E-03

 PERCENT DISCREPANCY =          -0.00     PERCENT DISCREPANCY =           0.00






         TIME SUMMARY AT END OF TIME STEP    1 IN STRESS PERIOD   10
                    SECONDS     MINUTES      HOURS       DAYS        YEARS
                    -----------------------------------------------------------
   TIME STEP LENGTH 7.86240E+06 1.31040E+05  2184.0      91.000     0.24914    
 STRESS PERIOD TIME 7.86240E+06 1.31040E+05  2184.0      91.000     0.24914    
         TOTAL TIME 7.88832E+07 1.31472E+06  21912.      913.00      2.4997    
1
1
                            STRESS PERIOD NO.   11, LENGTH =   91.00000    
                            -----------------------------------------------

                              NUMBER OF TIME STEPS =     1

                               MULTIPLIER FOR DELT =     1.500

                            INITIAL TIME STEP SIZE =   91.00000    

 WELL NO.  LAYER   ROW   COL   STRESS RATE         
 --------------------------------------------------
      1      1     14      6       0.000    
      2      1      3      9       0.000    
      3      1     20     10       0.000    
      4      1     14     20       0.000    
      5      1      8     21      -8123.    
      6      1      4     14      -6617.    
      7      1     10     23      -7449.    
      8      1     14     17     -0.1185E+05

      8 WELLS

                 RECHARGE =   0.00000    

 REUSING STREAM SEGMENT DATA FROM LAST STRESS PERIOD
 
 SOLVING FOR HEAD 


     7 CALLS TO PCG ROUTINE FOR TIME STEP   1 IN STRESS PERIOD   11
    26 TOTAL ITERATIONS

 OUTPUT CONTROL FOR STRESS PERIOD   11   TIME STEP    1
    SAVE BUDGET
    SAVE HEAD FOR ALL LAYERS
    PRINT HEAD FOR ALL LAYERS
 UBDSV2 SAVING "STREAMFLOW OUT  " ON UNIT  50 AT TIME STEP  1, STRESS PERIOD  11



 STREAM LISTING     PERIOD     11   STEP        1

 LAYER ROW COL. STREAM  RCH.  FLOW INTO     FLOW TO   FLOW OUT OF   OVRLND.     DIRECT     STREAM       STREAM     STREAM     STREAM   STREAMBED  STREAMBED
                SEG.NO.  NO.  STRM. RCH.    AQUIFER    STRM. RCH.    RUNOFF     PRECIP       ET          HEAD       DEPTH      WIDTH   CONDCTNC.   GRADIENT

   1   13    1     1     1    1.0000E+05 -1.3293E+03   1.0133E+05  0.000E+00  0.000E+00  0.000E+00  4.84066E+01  1.452E-01  2.000E+01  2.000E+04 -6.647E-02
   1   13    2     1     2    1.0133E+05 -2.2342E+03   1.0356E+05  0.000E+00  0.000E+00  0.000E+00  4.79309E+01  1.468E-01  2.000E+01  2.000E+04 -1.117E-01
   1   14    3     1     3    1.0356E+05 -3.3916E+02   1.0390E+05  0.000E+00  0.000E+00  0.000E+00  4.74547E+01  1.479E-01  2.000E+01  2.000E+04 -1.696E-02
   1   15    4     1     4    1.0390E+05 -3.1790E+02   1.0422E+05  0.000E+00  0.000E+00  0.000E+00  4.69777E+01  1.481E-01  2.000E+01  2.000E+04 -1.590E-02
   1   16    5     1     5    1.0422E+05 -1.3736E+03   1.0559E+05  0.000E+00  0.000E+00  0.000E+00  4.65011E+01  1.489E-01  2.000E+01  2.000E+04 -6.868E-02
   1   16    6     1     6    1.0559E+05 -8.6167E+02   1.0646E+05  0.000E+00  0.000E+00  0.000E+00  4.60248E+01  1.498E-01  2.000E+01  2.000E+04 -4.308E-02
   1   16    7     1     7    1.0646E+05 -8.4364E+02   1.0730E+05  0.000E+00  0.000E+00  0.000E+00  4.55483E+01  1.505E-01  2.000E+01  2.000E+04 -4.218E-02
   1   16    8     1     8    1.0730E+05 -8.3623E+02   1.0814E+05  0.000E+00  0.000E+00  0.000E+00  4.50717E+01  1.513E-01  2.000E+01  2.000E+04 -4.181E-02
   1   16    9     1     9    1.0814E+05 -8.2313E+02   1.0896E+05  0.000E+00  0.000E+00  0.000E+00  4.45951E+01  1.519E-01  2.000E+01  2.000E+04 -4.116E-02
   1   16   10     1    10    1.0896E+05 -8.0190E+02   1.0976E+05  0.000E+00  0.000E+00  0.000E+00  4.41185E+01  1.526E-01  2.000E+01  2.000E+04 -4.010E-02
   1   16   11     1    11    1.0976E+05 -7.7954E+02   1.1054E+05  0.000E+00  0.000E+00  0.000E+00  4.36419E+01  1.533E-01  2.000E+01  2.000E+04 -3.898E-02
   1   16   12     1    12    1.1054E+05 -1.1180E+03   1.1166E+05  0.000E+00  0.000E+00  0.000E+00  4.31654E+01  1.541E-01  2.000E+01  2.000E+04 -5.590E-02
   1   15   13     1    13    1.1166E+05 -6.1179E+02   1.1227E+05  0.000E+00  0.000E+00  0.000E+00  4.26889E+01  1.548E-01  2.000E+01  2.000E+04 -3.059E-02
   1   14   14     1    14    1.1227E+05 -1.1369E+02   1.1238E+05  0.000E+00  0.000E+00  0.000E+00  4.22119E+01  1.551E-01  2.000E+01  2.000E+04 -5.684E-03
   1   13   15     1    15    1.1238E+05  4.4503E+02   1.1194E+05  0.000E+00  0.000E+00  0.000E+00  4.17345E+01  1.550E-01  2.000E+01  2.000E+04  2.225E-02
   1   12   16     1    16    1.1194E+05 -3.3883E+02   1.1228E+05  0.000E+00  0.000E+00  0.000E+00  4.12572E+01  1.549E-01  2.000E+01  2.000E+04 -1.694E-02
   1   12   17     1    17    1.1228E+05  9.6536E+02   1.1131E+05  0.000E+00  0.000E+00  0.000E+00  4.07797E+01  1.547E-01  2.000E+01  2.000E+04  4.827E-02
   1   12   18     1    18    1.1131E+05  5.4365E+02   1.1077E+05  0.000E+00  0.000E+00  0.000E+00  4.03018E+01  1.540E-01  2.000E+01  2.000E+04  2.718E-02
   1   12   19     1    19    1.1077E+05  2.7709E+02   1.1049E+05  0.000E+00  0.000E+00  0.000E+00  3.98241E+01  1.537E-01  2.000E+01  2.000E+04  1.385E-02
   1   13   20     1    20    1.1049E+05  5.2294E+02   1.0997E+05  0.000E+00  0.000E+00  0.000E+00  3.93465E+01  1.534E-01  2.000E+01  2.000E+04  2.615E-02
   1   14   21     1    21    1.0997E+05 -2.1638E+02   1.1018E+05  0.000E+00  0.000E+00  0.000E+00  3.88691E+01  1.532E-01  2.000E+01  2.000E+04 -1.082E-02
   1   14   22     1    22    1.1018E+05  5.1521E+03   1.0503E+05  0.000E+00  0.000E+00  0.000E+00  3.83898E+01  1.512E-01  2.000E+01  2.000E+04  2.576E-01
   1    9   30     2     1    5.0000E+04 -1.8315E+02   5.0183E+04  0.000E+00  0.000E+00  0.000E+00  4.02410E+01  1.160E-01  2.000E+01  2.000E+04 -9.157E-03
   1    9   29     2     2    5.0183E+04 -4.3982E+02   5.0623E+04  0.000E+00  0.000E+00  0.000E+00  3.99914E+01  1.164E-01  2.000E+01  2.000E+04 -2.199E-02
   1    9   28     2     3    5.0623E+04 -5.7580E+02   5.1199E+04  0.000E+00  0.000E+00  0.000E+00  3.97421E+01  1.171E-01  2.000E+01  2.000E+04 -2.879E-02
   1    9   27     2     4    5.1199E+04 -9.5874E+02   5.2158E+04  0.000E+00  0.000E+00  0.000E+00  3.94932E+01  1.182E-01  2.000E+01  2.000E+04 -4.794E-02
   1   10   26     2     5    5.2158E+04  1.9596E+02   5.1962E+04  0.000E+00  0.000E+00  0.000E+00  3.92437E+01  1.187E-01  2.000E+01  2.000E+04  9.798E-03
   1   11   25     2     6    5.1962E+04  9.1670E+02   5.1045E+04  0.000E+00  0.000E+00  0.000E+00  3.89929E+01  1.179E-01  2.000E+01  2.000E+04  4.584E-02
   1   12   24     2     7    5.1045E+04  9.9981E+02   5.0045E+04  0.000E+00  0.000E+00  0.000E+00  3.87416E+01  1.166E-01  2.000E+01  2.000E+04  4.999E-02
   1   13   23     2     8    5.0045E+04  1.3280E+02   4.9912E+04  0.000E+00  0.000E+00  0.000E+00  3.84908E+01  1.158E-01  2.000E+01  2.000E+04  6.640E-03
   1   14   22     2     9    4.9912E+04  2.1412E+03   4.7771E+04  0.000E+00  0.000E+00  0.000E+00  3.82392E+01  1.142E-01  2.000E+01  2.000E+04  1.071E-01
   1   14   22     3     1    1.5280E+05 -8.3859E+03   1.6119E+05  0.000E+00  0.000E+00  0.000E+00  3.77129E+01  1.573E-01  2.000E+01  2.000E+04 -4.193E-01
   1   15   23     3     2    1.6119E+05 -3.9394E+02   1.6158E+05  0.000E+00  0.000E+00  0.000E+00  3.68266E+01  1.600E-01  2.000E+01  2.000E+04 -1.970E-02
   1   15   24     3     3    1.6158E+05 -1.9926E+02   1.6178E+05  0.000E+00  0.000E+00  0.000E+00  3.59379E+01  1.601E-01  2.000E+01  2.000E+04 -9.963E-03
   1   15   25     3     4    1.6178E+05 -1.9695E+02   1.6198E+05  0.000E+00  0.000E+00  0.000E+00  3.50491E+01  1.603E-01  2.000E+01  2.000E+04 -9.848E-03
   1   15   26     3     5    1.6198E+05 -2.4838E+02   1.6223E+05  0.000E+00  0.000E+00  0.000E+00  3.41604E+01  1.604E-01  2.000E+01  2.000E+04 -1.242E-02
   1   16   27     3     6    1.6223E+05 -2.6673E+02   1.6249E+05  0.000E+00  0.000E+00  0.000E+00  3.32717E+01  1.605E-01  2.000E+01  2.000E+04 -1.334E-02
   1   17   28     3     7    1.6249E+05 -1.2922E+03   1.6379E+05  0.000E+00  0.000E+00  0.000E+00  3.23832E+01  1.610E-01  2.000E+01  2.000E+04 -6.461E-02
   1   18   29     3     8    1.6379E+05 -2.6097E+03   1.6640E+05  0.000E+00  0.000E+00  0.000E+00  3.14955E+01  1.622E-01  2.000E+01  2.000E+04 -1.305E-01
   1   18   30     3     9    1.6640E+05 -2.9558E+03   1.6935E+05  0.000E+00  0.000E+00  0.000E+00  3.06082E+01  1.638E-01  2.000E+01  2.000E+04 -1.478E-01



1
              HEAD IN LAYER   1 AT END OF TIME STEP   1 IN STRESS PERIOD   11
  ---------------------------------------------------------------------------

          1      2      3      4      5      6      7      8      9     10
         11     12     13     14     15     16     17     18     19     20
         21     22     23     24     25     26     27     28     29     30
 .........................................................................
   1  ****** ****** ****** ****** ****** ****** ****** ****** ****** ******
      ****** ****** ****** ****** ****** ****** ****** ****** ****** ******
      ****** ****** ****** ****** ****** ****** ****** ****** ****** ******
   2  ****** ****** ****** ****** ****** ****** ****** ****** ****** ******
      ****** ****** ****** ****** ****** ****** ****** ****** ****** ******
      ****** ****** ****** ****** ****** ****** ****** ****** ****** ******
   3  ****** ****** ****** ****** ****** ****** ****** ****** ****** ******
      ****** ****** ****** ****** ****** ****** ****** ****** ****** ******
      ****** ****** ****** ****** ****** ****** ****** ****** ****** ******
   4  ****** ****** ****** ****** ****** ****** ****** ****** ****** ******
      ****** ****** ****** ****** ****** ****** ****** ****** ****** ******
      ****** ****** ****** ****** ****** ****** ****** ****** ****** ******
   5  ****** ****** ****** ****** ****** ****** ****** ****** ****** ******
      ****** ****** ****** ****** ****** ****** ****** ****** ****** ******
      ****** ****** ****** ****** ****** ****** ****** ****** ****** ******
   6  ****** ****** ****** ****** ****** ****** ****** ****** ****** ******
      ****** ****** ****** ****** ****** ****** ****** ****** ****** ******
      ****** ****** ****** ****** ****** ****** ****** ****** ****** ******
   7  ****** ****** ****** ****** ****** ****** ****** ****** ****** ******
      ****** ****** ****** ****** ****** ****** ****** ****** ****** ******
      ****** ****** ****** ****** ****** ****** ****** ****** ****** ******
   8  ****** ****** ****** ****** ****** ****** ****** ****** ****** ******
      ****** ****** ****** ****** ****** ****** ****** ****** ****** ******
      ****** ****** ****** ****** ****** ****** ****** ****** ****** ******
   9  ****** ****** ****** ****** ****** ****** ****** ****** ****** ******
      ****** ****** ****** ****** ****** ****** ****** ****** ****** ******
      ****** ****** ****** ****** ****** ****** ****** ****** ****** ******
  10  ****** ****** ****** ****** ****** ****** ****** ****** ****** ******
      ****** ****** ****** ****** ****** ****** ****** ****** ****** ******
      ****** ****** ****** ****** ****** ****** ****** ****** ****** ******
  11  ****** ****** ****** ****** ****** ****** ****** ****** ****** ******
      ****** ****** ****** ****** ****** ****** ****** ****** ****** ******
      ****** ****** ****** ****** ****** ****** ****** ****** ****** ******
  12  ****** ****** ****** ****** ****** ****** ****** ****** ****** ******
      ****** ****** ****** ****** ****** ****** ****** ****** ****** ******
      ****** ****** ****** ****** ****** ****** ****** ****** ****** ******
  13  ****** ****** ****** ****** ****** ****** ****** ****** ****** ******
      ****** ****** ****** ****** ****** ****** ****** ****** ****** ******
      ****** ****** ****** ****** ****** ****** ****** ****** ****** ******
  14  ****** ****** ****** ****** ****** ****** ****** ****** ****** ******
      ****** ****** ****** ****** ****** ****** ****** ****** ****** ******
      ****** ****** ****** ****** ****** ****** ****** ****** ****** ******
  15  ****** ****** ****** ****** ****** ****** ****** ****** ****** ******
      ****** ****** ****** ****** ****** ****** ****** ****** ****** ******
      ****** ****** ****** ****** ****** ****** ****** ****** ****** ******
  16  ****** ****** ****** ****** ****** ****** ****** ****** ****** ******
      ****** ****** ****** ****** ****** ****** ****** ****** ****** ******
      ****** ****** ****** ****** ****** ****** ****** ****** ****** ******
  17  ****** ****** ****** ****** ****** ****** ****** ****** ****** ******
      ****** ****** ****** ****** ****** ****** ****** ****** ****** ******
      ****** ****** ****** ****** ****** ****** ****** ****** ****** ******
  18  ****** ****** ****** ****** ****** ****** ****** ****** ****** ******
      ****** ****** ****** ****** ****** ****** ****** ****** ****** ******
      ****** ****** ****** ****** ****** ****** ****** ****** ****** ******
  19  ****** ****** ****** ****** ****** ****** ****** ****** ****** ******
      ****** ****** ****** ****** ****** ****** ****** ****** ****** ******
      ****** ****** ****** ****** ****** ****** ****** ****** ****** ******
  20  ****** ****** ****** ****** ****** ****** ****** ****** ****** ******
      ****** ****** ****** ****** ****** ****** ****** ****** ****** ******
      ****** ****** ****** ****** ****** ****** ****** ****** ****** ******
  21  ****** ****** ****** ****** ****** ****** ****** ****** ****** ******
      ****** ****** ****** ****** ****** ****** ****** ****** ****** ******
      ****** ****** ****** ****** ****** ****** ****** ****** ****** ******
  22  ****** ****** ****** ****** ****** ****** ****** ****** ****** ******
      ****** ****** ****** ****** ****** ****** ****** ****** ****** ******
      ****** ****** ****** ****** ****** ****** ****** ****** ****** ******
  23  ****** ****** ****** ****** ****** ****** ****** ****** ****** ******
      ****** ****** ****** ****** ****** ****** ****** ****** ****** ******
      ****** ****** ****** ****** ****** ****** ****** ****** ****** ******
  24  ****** ****** ****** ****** ****** ****** ****** ****** ****** ******
      ****** ****** ****** ****** ****** ****** ****** ****** ****** ******
      ****** ****** ****** ****** ****** ****** ****** ****** ****** ******
  25  ****** ****** ****** ****** ****** ****** ****** ****** ****** ******
      ****** ****** ****** ****** ****** ****** ****** ****** ****** ******
      ****** ****** ****** ****** ****** ****** ****** ****** ****** ******

 HEAD WILL BE SAVED ON UNIT   51 AT END OF TIME STEP    1, STRESS PERIOD   11
1
  VOLUMETRIC BUDGET FOR ENTIRE MODEL AT END OF TIME STEP    1, STRESS PERIOD  11
  ------------------------------------------------------------------------------

     CUMULATIVE VOLUMES      L**3       RATES FOR THIS TIME STEP      L**3/T
     ------------------                 ------------------------

           IN:                                      IN:
           ---                                      ---
             STORAGE =    36049759.0809               STORAGE =       18035.3453
       CONSTANT HEAD =    29006541.9585         CONSTANT HEAD =       35358.8158
               WELLS =           0.0000                 WELLS =           0.0000
            RECHARGE =    23901600.0000              RECHARGE =           0.0000
      STREAM LEAKAGE =     8671365.0274        STREAM LEAKAGE =       12292.6752

            TOTAL IN =    97629266.0668              TOTAL IN =       65686.8364

          OUT:                                     OUT:
          ----                                     ----
             STORAGE =     2312785.9470               STORAGE =           0.0000
       CONSTANT HEAD =           0.0000         CONSTANT HEAD =           0.0000
               WELLS =    34177677.1290                 WELLS =       34041.5111
            RECHARGE =           0.0000              RECHARGE =           0.0000
      STREAM LEAKAGE =    61138804.9627        STREAM LEAKAGE =       31645.3303

           TOTAL OUT =    97629268.0387             TOTAL OUT =       65686.8414

            IN - OUT =          -1.9719              IN - OUT =      -4.9581E-03

 PERCENT DISCREPANCY =          -0.00     PERCENT DISCREPANCY =          -0.00






         TIME SUMMARY AT END OF TIME STEP    1 IN STRESS PERIOD   11
                    SECONDS     MINUTES      HOURS       DAYS        YEARS
                    -----------------------------------------------------------
   TIME STEP LENGTH 7.86240E+06 1.31040E+05  2184.0      91.000     0.24914    
 STRESS PERIOD TIME 7.86240E+06 1.31040E+05  2184.0      91.000     0.24914    
         TOTAL TIME 8.67456E+07 1.44576E+06  24096.      1004.0      2.7488    
1
1
                            STRESS PERIOD NO.   12, LENGTH =   91.00000    
                            -----------------------------------------------

                              NUMBER OF TIME STEPS =     1

                               MULTIPLIER FOR DELT =     1.500

                            INITIAL TIME STEP SIZE =   91.00000    

 WELL NO.  LAYER   ROW   COL   STRESS RATE         
 --------------------------------------------------
      1      1     14      6       0.000    
      2      1      3      9       0.000    
      3      1     20     10       0.000    
      4      1     14     20       0.000    
      5      1      8     21      -8123.    
      6      1      4     14      -6617.    
      7      1     10     23      -7449.    
      8      1     14     17     -0.1185E+05

      8 WELLS

                 RECHARGE =  1.000000E-03

 REUSING STREAM SEGMENT DATA FROM LAST STRESS PERIOD
 
 SOLVING FOR HEAD 


     7 CALLS TO PCG ROUTINE FOR TIME STEP   1 IN STRESS PERIOD   12
    24 TOTAL ITERATIONS

 OUTPUT CONTROL FOR STRESS PERIOD   12   TIME STEP    1
    SAVE BUDGET
    SAVE HEAD FOR ALL LAYERS
    PRINT HEAD FOR ALL LAYERS
 UBDSV2 SAVING "STREAMFLOW OUT  " ON UNIT  50 AT TIME STEP  1, STRESS PERIOD  12



 STREAM LISTING     PERIOD     12   STEP        1

 LAYER ROW COL. STREAM  RCH.  FLOW INTO     FLOW TO   FLOW OUT OF   OVRLND.     DIRECT     STREAM       STREAM     STREAM     STREAM   STREAMBED  STREAMBED
                SEG.NO.  NO.  STRM. RCH.    AQUIFER    STRM. RCH.    RUNOFF     PRECIP       ET          HEAD       DEPTH      WIDTH   CONDCTNC.   GRADIENT

   1   13    1     1     1    1.0000E+05 -1.4711E+03   1.0147E+05  0.000E+00  0.000E+00  0.000E+00  4.84067E+01  1.453E-01  2.000E+01  2.000E+04 -7.355E-02
   1   13    2     1     2    1.0147E+05 -2.3863E+03   1.0386E+05  0.000E+00  0.000E+00  0.000E+00  4.79310E+01  1.470E-01  2.000E+01  2.000E+04 -1.193E-01
   1   14    3     1     3    1.0386E+05 -4.1726E+02   1.0427E+05  0.000E+00  0.000E+00  0.000E+00  4.74550E+01  1.482E-01  2.000E+01  2.000E+04 -2.086E-02
   1   15    4     1     4    1.0427E+05 -3.9990E+02   1.0467E+05  0.000E+00  0.000E+00  0.000E+00  4.69780E+01  1.485E-01  2.000E+01  2.000E+04 -2.000E-02
   1   16    5     1     5    1.0467E+05 -1.5832E+03   1.0626E+05  0.000E+00  0.000E+00  0.000E+00  4.65016E+01  1.493E-01  2.000E+01  2.000E+04 -7.916E-02
   1   16    6     1     6    1.0626E+05 -9.9185E+02   1.0725E+05  0.000E+00  0.000E+00  0.000E+00  4.60254E+01  1.504E-01  2.000E+01  2.000E+04 -4.959E-02
   1   16    7     1     7    1.0725E+05 -9.6871E+02   1.0822E+05  0.000E+00  0.000E+00  0.000E+00  4.55490E+01  1.513E-01  2.000E+01  2.000E+04 -4.844E-02
   1   16    8     1     8    1.0822E+05 -9.6027E+02   1.0918E+05  0.000E+00  0.000E+00  0.000E+00  4.50725E+01  1.521E-01  2.000E+01  2.000E+04 -4.801E-02
   1   16    9     1     9    1.0918E+05 -9.4764E+02   1.1013E+05  0.000E+00  0.000E+00  0.000E+00  4.45961E+01  1.529E-01  2.000E+01  2.000E+04 -4.738E-02
   1   16   10     1    10    1.1013E+05 -9.2781E+02   1.1105E+05  0.000E+00  0.000E+00  0.000E+00  4.41196E+01  1.537E-01  2.000E+01  2.000E+04 -4.639E-02
   1   16   11     1    11    1.1105E+05 -9.0776E+02   1.1196E+05  0.000E+00  0.000E+00  0.000E+00  4.36431E+01  1.544E-01  2.000E+01  2.000E+04 -4.539E-02
   1   16   12     1    12    1.1196E+05 -1.3195E+03   1.1328E+05  0.000E+00  0.000E+00  0.000E+00  4.31667E+01  1.553E-01  2.000E+01  2.000E+04 -6.597E-02
   1   15   13     1    13    1.1328E+05 -8.2795E+02   1.1411E+05  0.000E+00  0.000E+00  0.000E+00  4.26903E+01  1.562E-01  2.000E+01  2.000E+04 -4.140E-02
   1   14   14     1    14    1.1411E+05 -3.3004E+02   1.1444E+05  0.000E+00  0.000E+00  0.000E+00  4.22135E+01  1.567E-01  2.000E+01  2.000E+04 -1.650E-02
   1   13   15     1    15    1.1444E+05  2.3629E+02   1.1420E+05  0.000E+00  0.000E+00  0.000E+00  4.17363E+01  1.567E-01  2.000E+01  2.000E+04  1.181E-02
   1   12   16     1    16    1.1420E+05 -5.2055E+02   1.1472E+05  0.000E+00  0.000E+00  0.000E+00  4.12591E+01  1.569E-01  2.000E+01  2.000E+04 -2.603E-02
   1   12   17     1    17    1.1472E+05  8.1273E+02   1.1391E+05  0.000E+00  0.000E+00  0.000E+00  4.07817E+01  1.567E-01  2.000E+01  2.000E+04  4.064E-02
   1   12   18     1    18    1.1391E+05  3.8870E+02   1.1352E+05  0.000E+00  0.000E+00  0.000E+00  4.03040E+01  1.562E-01  2.000E+01  2.000E+04  1.943E-02
   1   12   19     1    19    1.1352E+05  8.5469E+01   1.1344E+05  0.000E+00  0.000E+00  0.000E+00  3.98265E+01  1.561E-01  2.000E+01  2.000E+04  4.273E-03
   1   13   20     1    20    1.1344E+05  3.1285E+02   1.1312E+05  0.000E+00  0.000E+00  0.000E+00  3.93491E+01  1.559E-01  2.000E+01  2.000E+04  1.564E-02
   1   14   21     1    21    1.1312E+05 -4.1050E+02   1.1353E+05  0.000E+00  0.000E+00  0.000E+00  3.88718E+01  1.559E-01  2.000E+01  2.000E+04 -2.052E-02
   1   14   22     1    22    1.1353E+05  5.0991E+03   1.0844E+05  0.000E+00  0.000E+00  0.000E+00  3.83926E+01  1.540E-01  2.000E+01  2.000E+04  2.550E-01
   1    9   30     2     1    5.0000E+04 -3.5937E+02   5.0359E+04  0.000E+00  0.000E+00  0.000E+00  4.02411E+01  1.161E-01  2.000E+01  2.000E+04 -1.797E-02
   1    9   29     2     2    5.0359E+04 -6.1397E+02   5.0973E+04  0.000E+00  0.000E+00  0.000E+00  3.99918E+01  1.168E-01  2.000E+01  2.000E+04 -3.070E-02
   1    9   28     2     3    5.0973E+04 -7.4639E+02   5.1720E+04  0.000E+00  0.000E+00  0.000E+00  3.97427E+01  1.177E-01  2.000E+01  2.000E+04 -3.732E-02
   1    9   27     2     4    5.1720E+04 -1.1673E+03   5.2887E+04  0.000E+00  0.000E+00  0.000E+00  3.94940E+01  1.190E-01  2.000E+01  2.000E+04 -5.837E-02
   1   10   26     2     5    5.2887E+04 -3.3397E+01   5.2920E+04  0.000E+00  0.000E+00  0.000E+00  3.92449E+01  1.199E-01  2.000E+01  2.000E+04 -1.670E-03
   1   11   25     2     6    5.2920E+04  6.9123E+02   5.2229E+04  0.000E+00  0.000E+00  0.000E+00  3.89944E+01  1.194E-01  2.000E+01  2.000E+04  3.456E-02
   1   12   24     2     7    5.2229E+04  7.9407E+02   5.1435E+04  0.000E+00  0.000E+00  0.000E+00  3.87434E+01  1.184E-01  2.000E+01  2.000E+04  3.970E-02
   1   13   23     2     8    5.1435E+04  5.5245E+01   5.1380E+04  0.000E+00  0.000E+00  0.000E+00  3.84928E+01  1.178E-01  2.000E+01  2.000E+04  2.762E-03
   1   14   22     2     9    5.1380E+04  2.0735E+03   4.9306E+04  0.000E+00  0.000E+00  0.000E+00  3.82413E+01  1.163E-01  2.000E+01  2.000E+04  1.037E-01
   1   14   22     3     1    1.5774E+05 -8.4362E+03   1.6618E+05  0.000E+00  0.000E+00  0.000E+00  3.77159E+01  1.603E-01  2.000E+01  2.000E+04 -4.218E-01
   1   15   23     3     2    1.6618E+05 -4.6601E+02   1.6664E+05  0.000E+00  0.000E+00  0.000E+00  3.68296E+01  1.629E-01  2.000E+01  2.000E+04 -2.330E-02
   1   15   24     3     3    1.6664E+05 -2.6437E+02   1.6691E+05  0.000E+00  0.000E+00  0.000E+00  3.59409E+01  1.631E-01  2.000E+01  2.000E+04 -1.322E-02
   1   15   25     3     4    1.6691E+05 -2.6333E+02   1.6717E+05  0.000E+00  0.000E+00  0.000E+00  3.50522E+01  1.633E-01  2.000E+01  2.000E+04 -1.317E-02
   1   15   26     3     5    1.6717E+05 -3.2587E+02   1.6750E+05  0.000E+00  0.000E+00  0.000E+00  3.41635E+01  1.635E-01  2.000E+01  2.000E+04 -1.629E-02
   1   16   27     3     6    1.6750E+05 -3.5354E+02   1.6785E+05  0.000E+00  0.000E+00  0.000E+00  3.32748E+01  1.637E-01  2.000E+01  2.000E+04 -1.768E-02
   1   17   28     3     7    1.6785E+05 -1.5130E+03   1.6936E+05  0.000E+00  0.000E+00  0.000E+00  3.23864E+01  1.642E-01  2.000E+01  2.000E+04 -7.565E-02
   1   18   29     3     8    1.6936E+05 -2.8106E+03   1.7217E+05  0.000E+00  0.000E+00  0.000E+00  3.14988E+01  1.655E-01  2.000E+01  2.000E+04 -1.405E-01
   1   18   30     3     9    1.7217E+05 -3.1241E+03   1.7530E+05  0.000E+00  0.000E+00  0.000E+00  3.06116E+01  1.672E-01  2.000E+01  2.000E+04 -1.562E-01



1
              HEAD IN LAYER   1 AT END OF TIME STEP   1 IN STRESS PERIOD   12
  ---------------------------------------------------------------------------

          1      2      3      4      5      6      7      8      9     10
         11     12     13     14     15     16     17     18     19     20
         21     22     23     24     25     26     27     28     29     30
 .........................................................................
   1  ****** ****** ****** ****** ****** ****** ****** ****** ****** ******
      ****** ****** ****** ****** ****** ****** ****** ****** ****** ******
      ****** ****** ****** ****** ****** ****** ****** ****** ****** ******
   2  ****** ****** ****** ****** ****** ****** ****** ****** ****** ******
      ****** ****** ****** ****** ****** ****** ****** ****** ****** ******
      ****** ****** ****** ****** ****** ****** ****** ****** ****** ******
   3  ****** ****** ****** ****** ****** ****** ****** ****** ****** ******
      ****** ****** ****** ****** ****** ****** ****** ****** ****** ******
      ****** ****** ****** ****** ****** ****** ****** ****** ****** ******
   4  ****** ****** ****** ****** ****** ****** ****** ****** ****** ******
      ****** ****** ****** ****** ****** ****** ****** ****** ****** ******
      ****** ****** ****** ****** ****** ****** ****** ****** ****** ******
   5  ****** ****** ****** ****** ****** ****** ****** ****** ****** ******
      ****** ****** ****** ****** ****** ****** ****** ****** ****** ******
      ****** ****** ****** ****** ****** ****** ****** ****** ****** ******
   6  ****** ****** ****** ****** ****** ****** ****** ****** ****** ******
      ****** ****** ****** ****** ****** ****** ****** ****** ****** ******
      ****** ****** ****** ****** ****** ****** ****** ****** ****** ******
   7  ****** ****** ****** ****** ****** ****** ****** ****** ****** ******
      ****** ****** ****** ****** ****** ****** ****** ****** ****** ******
      ****** ****** ****** ****** ****** ****** ****** ****** ****** ******
   8  ****** ****** ****** ****** ****** ****** ****** ****** ****** ******
      ****** ****** ****** ****** ****** ****** ****** ****** ****** ******
      ****** ****** ****** ****** ****** ****** ****** ****** ****** ******
   9  ****** ****** ****** ****** ****** ****** ****** ****** ****** ******
      ****** ****** ****** ****** ****** ****** ****** ****** ****** ******
      ****** ****** ****** ****** ****** ****** ****** ****** ****** ******
  10  ****** ****** ****** ****** ****** ****** ****** ****** ****** ******
      ****** ****** ****** ****** ****** ****** ****** ****** ****** ******
      ****** ****** ****** ****** ****** ****** ****** ****** ****** ******
  11  ****** ****** ****** ****** ****** ****** ****** ****** ****** ******
      ****** ****** ****** ****** ****** ****** ****** ****** ****** ******
      ****** ****** ****** ****** ****** ****** ****** ****** ****** ******
  12  ****** ****** ****** ****** ****** ****** ****** ****** ****** ******
      ****** ****** ****** ****** ****** ****** ****** ****** ****** ******
      ****** ****** ****** ****** ****** ****** ****** ****** ****** ******
  13  ****** ****** ****** ****** ****** ****** ****** ****** ****** ******
      ****** ****** ****** ****** ****** ****** ****** ****** ****** ******
      ****** ****** ****** ****** ****** ****** ****** ****** ****** ******
  14  ****** ****** ****** ****** ****** ****** ****** ****** ****** ******
      ****** ****** ****** ****** ****** ****** ****** ****** ****** ******
      ****** ****** ****** ****** ****** ****** ****** ****** ****** ******
  15  ****** ****** ****** ****** ****** ****** ****** ****** ****** ******
      ****** ****** ****** ****** ****** ****** ****** ****** ****** ******
      ****** ****** ****** ****** ****** ****** ****** ****** ****** ******
  16  ****** ****** ****** ****** ****** ****** ****** ****** ****** ******
      ****** ****** ****** ****** ****** ****** ****** ****** ****** ******
      ****** ****** ****** ****** ****** ****** ****** ****** ****** ******
  17  ****** ****** ****** ****** ****** ****** ****** ****** ****** ******
      ****** ****** ****** ****** ****** ****** ****** ****** ****** ******
      ****** ****** ****** ****** ****** ****** ****** ****** ****** ******
  18  ****** ****** ****** ****** ****** ****** ****** ****** ****** ******
      ****** ****** ****** ****** ****** ****** ****** ****** ****** ******
      ****** ****** ****** ****** ****** ****** ****** ****** ****** ******
  19  ****** ****** ****** ****** ****** ****** ****** ****** ****** ******
      ****** ****** ****** ****** ****** ****** ****** ****** ****** ******
      ****** ****** ****** ****** ****** ****** ****** ****** ****** ******
  20  ****** ****** ****** ****** ****** ****** ****** ****** ****** ******
      ****** ****** ****** ****** ****** ****** ****** ****** ****** ******
      ****** ****** ****** ****** ****** ****** ****** ****** ****** ******
  21  ****** ****** ****** ****** ****** ****** ****** ****** ****** ******
      ****** ****** ****** ****** ****** ****** ****** ****** ****** ******
      ****** ****** ****** ****** ****** ****** ****** ****** ****** ******
  22  ****** ****** ****** ****** ****** ****** ****** ****** ****** ******
      ****** ****** ****** ****** ****** ****** ****** ****** ****** ******
      ****** ****** ****** ****** ****** ****** ****** ****** ****** ******
  23  ****** ****** ****** ****** ****** ****** ****** ****** ****** ******
      ****** ****** ****** ****** ****** ****** ****** ****** ****** ******
      ****** ****** ****** ****** ****** ****** ****** ****** ****** ******
  24  ****** ****** ****** ****** ****** ****** ****** ****** ****** ******
      ****** ****** ****** ****** ****** ****** ****** ****** ****** ******
      ****** ****** ****** ****** ****** ****** ****** ****** ****** ******
  25  ****** ****** ****** ****** ****** ****** ****** ****** ****** ******
      ****** ****** ****** ****** ****** ****** ****** ****** ****** ******
      ****** ****** ****** ****** ****** ****** ****** ****** ****** ******

 HEAD WILL BE SAVED ON UNIT   51 AT END OF TIME STEP    1, STRESS PERIOD   12
1
  VOLUMETRIC BUDGET FOR ENTIRE MODEL AT END OF TIME STEP    1, STRESS PERIOD  12
  ------------------------------------------------------------------------------

     CUMULATIVE VOLUMES      L**3       RATES FOR THIS TIME STEP      L**3/T
     ------------------                 ------------------------

           IN:                                      IN:
           ---                                      ---
             STORAGE =    36051968.0284               STORAGE =          24.2741
       CONSTANT HEAD =    32161532.4735         CONSTANT HEAD =       34670.2254
               WELLS =           0.0000                 WELLS =           0.0000
            RECHARGE =    26413200.0000              RECHARGE =       27600.0000
      STREAM LEAKAGE =     9631336.7063        STREAM LEAKAGE =       10549.1393

            TOTAL IN =   104258037.2081              TOTAL IN =       72843.6389

          OUT:                                     OUT:
          ----                                     ----
             STORAGE =     2581632.4680               STORAGE =        2954.3574
       CONSTANT HEAD =           0.0000         CONSTANT HEAD =           0.0000
               WELLS =    37275454.6377                 WELLS =       34041.5111
            RECHARGE =           0.0000              RECHARGE =           0.0000
      STREAM LEAKAGE =    64400951.9897        STREAM LEAKAGE =       35847.7695

           TOTAL OUT =   104258039.0954             TOTAL OUT =       72843.6380

            IN - OUT =          -1.8873              IN - OUT =       9.3026E-04

 PERCENT DISCREPANCY =          -0.00     PERCENT DISCREPANCY =           0.00






         TIME SUMMARY AT END OF TIME STEP    1 IN STRESS PERIOD   12
                    SECONDS     MINUTES      HOURS       DAYS        YEARS
                    -----------------------------------------------------------
   TIME STEP LENGTH 7.86240E+06 1.31040E+05  2184.0      91.000     0.24914    
 STRESS PERIOD TIME 7.86240E+06 1.31040E+05  2184.0      91.000     0.24914    
         TOTAL TIME 9.46080E+07 1.57680E+06  26280.      1095.0      2.9979    
1

 Run end date and time (yyyy/mm/dd hh:mm:ss): 2018/10/10 18:02:04
 Elapsed run time:  0.052 Seconds

