                                  MODFLOW-2005     
      U.S. GEOLOGICAL SURVEY MODULAR FINITE-DIFFERENCE GROUND-WATER FLOW MODEL
                            VERSION 1.11.00 8/8/2013

 LIST FILE: supply2.lst
                         UNIT   10

 OPENING ..\data\supply.dis
 FILE TYPE:DIS   UNIT   11   STATUS:OLD    
 FORMAT:FORMATTED              ACCESS:SEQUENTIAL          

 OPENING ..\data\supply.ba6
 FILE TYPE:BAS6   UNIT   12   STATUS:OLD    
 FORMAT:FORMATTED              ACCESS:SEQUENTIAL          

 OPENING ..\data\supply_het.bc6
 FILE TYPE:BCF6   UNIT   13   STATUS:OLD    
 FORMAT:FORMATTED              ACCESS:SEQUENTIAL          

 OPENING ..\data\supply.rch
 FILE TYPE:RCH   UNIT   15   STATUS:OLD    
 FORMAT:FORMATTED              ACCESS:SEQUENTIAL          

 OPENING ..\data\supply2.sfr
 FILE TYPE:SFR   UNIT   16   STATUS:OLD    
 FORMAT:FORMATTED              ACCESS:SEQUENTIAL          

 OPENING ..\data\supply.oc
 FILE TYPE:OC   UNIT   17   STATUS:OLD    
 FORMAT:FORMATTED              ACCESS:SEQUENTIAL          

 OPENING ..\data\supply.pcg
 FILE TYPE:PCG   UNIT   18   STATUS:OLD    
 FORMAT:FORMATTED              ACCESS:SEQUENTIAL          

 OPENING supply2.wel
 FILE TYPE:WEL   UNIT   19   STATUS:OLD    
 FORMAT:FORMATTED              ACCESS:SEQUENTIAL          

 OPENING supply2sf.cbc
 FILE TYPE:DATA(BINARY)   UNIT   50   STATUS:UNKNOWN
 FORMAT:BINARY                 ACCESS:SEQUENTIAL          

 OPENING supply2hd.bhd
 FILE TYPE:DATA(BINARY)   UNIT   51   STATUS:UNKNOWN
 FORMAT:BINARY                 ACCESS:SEQUENTIAL          

 BAS -- BASIC PACKAGE, VERSION 7, 5/2/2005 INPUT READ FROM UNIT   12
 
 MODFLOW was compiled using uniform precision
 Precision of REAL and DOUBLE PRECISION variables:          15

 DISCRETIZATION INPUT DATA READ FROM UNIT   11
    1 LAYERS        25 ROWS        30 COLUMNS
   12 STRESS PERIOD(S) IN SIMULATION
 MODEL TIME UNIT IS DAYS
 MODEL LENGTH UNIT IS UNDEFINED
  Confining bed flag for each layer:
   0

                     DELR =   200.000    

                     DELC =   200.000    

 TOP ELEVATION OF LAYER 1 =  100.0000    

   MODEL LAYER BOTTOM EL. =   0.00000     FOR LAYER   1


 STRESS PERIOD     LENGTH       TIME STEPS     MULTIPLIER FOR DELT    SS FLAG
 ----------------------------------------------------------------------------
        1         92.00000          1                    1.500         TR
        2         91.00000          1                    1.500         TR
        3         91.00000          1                    1.500         TR
        4         91.00000          1                    1.500         TR
        5         92.00000          1                    1.500         TR
        6         91.00000          1                    1.500         TR
        7         91.00000          1                    1.500         TR
        8         91.00000          1                    1.500         TR
        9         92.00000          1                    1.500         TR
       10         91.00000          1                    1.500         TR
       11         91.00000          1                    1.500         TR
       12         91.00000          1                    1.500         TR

 TRANSIENT SIMULATION



 
 #MODOFC transient water supply sample problem                                   
 #                                                                               
 THE FREE FORMAT OPTION HAS BEEN SELECTED



                     BOUNDARY ARRAY FOR LAYER   1
 READING ON UNIT   12 WITH FORMAT: (20I4)              

 AQUIFER HEAD WILL BE SET TO   0.0000     AT ALL NO-FLOW NODES (IBOUND=0).



                       INITIAL HEAD FOR LAYER   1
 READING ON UNIT   12 WITH FORMAT: (10F13.0)           

 OUTPUT CONTROL IS SPECIFIED ONLY AT TIME STEPS FOR WHICH OUTPUT IS DESIRED
 COMPACT CELL-BY-CELL BUDGET FILES WILL BE WRITTEN
 HEAD PRINT FORMAT CODE IS  18    DRAWDOWN PRINT FORMAT CODE IS   0
 HEADS WILL BE SAVED ON UNIT   51    DRAWDOWNS WILL BE SAVED ON UNIT    0

 BCF -- BLOCK-CENTERED FLOW PACKAGE, VERSION 7, 5/2/2005
         INPUT READ FROM UNIT 13
 TRANSIENT SIMULATION
 HEAD AT CELLS THAT CONVERT TO DRY=   0.0000    
 WETTING CAPABILITY IS NOT ACTIVE
      LAYER  LAYER-TYPE CODE     INTERBLOCK T
      --------------------------------------------
         1            0          0 -- HARMONIC    

 COLUMN TO ROW ANISOTROPY =  1.000000    

     PRIMARY STORAGE COEF =  5.000000E-02 FOR LAYER   1



               TRANSMIS. ALONG ROWS FOR LAYER   1
 READING ON UNIT   13 WITH FORMAT: (FREE)              

 WEL -- WELL PACKAGE, VERSION 7, 5/2/2005 INPUT READ FROM UNIT   19
 # Well package input file written by MMProc
 No named parameters
 MAXIMUM OF      8 ACTIVE WELLS AT ONE TIME


     0 Well parameters

 RCH -- RECHARGE PACKAGE, VERSION 7, 5/2/2005 INPUT READ FROM UNIT   15
 No named parameters
 OPTION 1 -- RECHARGE TO TOP LAYER


     0 Recharge parameters

 SFR7 -- STREAMFLOW ROUTING PACKAGE, VERSION 1.0.7, 2013-01-15
         INPUT READ FROM UNIT  16
 #  Supply2 test problem for GWM-VI
 #  The eighth entry in the first data line is ISTCB2 -
 #    Setting this to a negative number indicates that
 #    streamflows out of the reach will be saved to a
 #    binary file.  The absolute value of ISTCB2 is the
 #    unit to which unformatted flows will be written.
 #
 No named parameters
 Segment information will not be 
 read by reach
 No named parameters
 No specifed inflow files


 NUMBER OF STREAM REACHES IS   40

 NUMBER OF STREAM SEGMENTS IS    3

 NUMBER OF STREAM PARAMETERS IS    0

 NUMBER OF STREAM SEGMENTS DEFINED USING PARAMETERS IS              0

 MAXIMUM ERROR FOR STREAM LEAKAGE RATES IS  1.00E-04

 CONSTANT FOR MANNINGS EQUATION IS  1.2839E+05





   STREAM NETWORK DESCRIPTION: 

   LAYER    ROW    COL   SEGMENT   REACH     LENGTH
                          NUMBER   NUMBER    IN CELL        
   --------------------------------------------------
      1     13      1       1        1    2.0000E+02
      1     13      2       1        2    2.0000E+02
      1     14      3       1        3    2.0000E+02
      1     15      4       1        4    2.0000E+02
      1     16      5       1        5    2.0000E+02
      1     16      6       1        6    2.0000E+02
      1     16      7       1        7    2.0000E+02
      1     16      8       1        8    2.0000E+02
      1     16      9       1        9    2.0000E+02
      1     16     10       1       10    2.0000E+02
      1     16     11       1       11    2.0000E+02
      1     16     12       1       12    2.0000E+02
      1     15     13       1       13    2.0000E+02
      1     14     14       1       14    2.0000E+02
      1     13     15       1       15    2.0000E+02
      1     12     16       1       16    2.0000E+02
      1     12     17       1       17    2.0000E+02
      1     12     18       1       18    2.0000E+02
      1     12     19       1       19    2.0000E+02
      1     13     20       1       20    2.0000E+02
      1     14     21       1       21    2.0000E+02
      1     14     22       1       22    2.0000E+02
      1      9     30       2        1    2.0000E+02
      1      9     29       2        2    2.0000E+02
      1      9     28       2        3    2.0000E+02
      1      9     27       2        4    2.0000E+02
      1     10     26       2        5    2.0000E+02
      1     11     25       2        6    2.0000E+02
      1     12     24       2        7    2.0000E+02
      1     13     23       2        8    2.0000E+02
      1     14     22       2        9    2.0000E+02
      1     14     22       3        1    2.0000E+02
      1     15     23       3        2    2.0000E+02
      1     15     24       3        3    2.0000E+02
      1     15     25       3        4    2.0000E+02
      1     15     26       3        5    2.0000E+02
      1     16     27       3        6    2.0000E+02
      1     17     28       3        7    2.0000E+02
      1     18     29       3        8    2.0000E+02
      1     18     30       3        9    2.0000E+02




 PCG -- CONJUGATE-GRADIENT SOLUTION PACKAGE, VERSION 7, 5/2/2005
 MAXIMUM OF    500 CALLS OF SOLUTION ROUTINE
 MAXIMUM OF      5 INTERNAL ITERATIONS PER CALL TO SOLUTION ROUTINE
 MATRIX PRECONDITIONING TYPE :    1



                                    SOLUTION BY THE CONJUGATE-GRADIENT METHOD
                                   -------------------------------------------
                    MAXIMUM NUMBER OF CALLS TO PCG ROUTINE =      500
                        MAXIMUM ITERATIONS PER CALL TO PCG =        5
                               MATRIX PRECONDITIONING TYPE =        1
        RELAXATION FACTOR (ONLY USED WITH PRECOND. TYPE 1) =    0.10000E+01
 PARAMETER OF POLYNOMIAL PRECOND. = 2 (2) OR IS CALCULATED :        0
                         HEAD CHANGE CRITERION FOR CLOSURE =    0.10000E-05
                     RESIDUAL CHANGE CRITERION FOR CLOSURE =    0.10000E+01
            PCG HEAD AND RESIDUAL CHANGE PRINTOUT INTERVAL =        1
     PRINTING FROM SOLVER IS LIMITED(1) OR SUPPRESSED (>1) =        1
                            STEADY-STATE DAMPING PARAMETER =    0.10000E+01
                               TRANSIENT DAMPING PARAMETER =    0.10000E+01
1
                            STRESS PERIOD NO.    1, LENGTH =   92.00000    
                            -----------------------------------------------

                              NUMBER OF TIME STEPS =     1

                               MULTIPLIER FOR DELT =     1.500

                            INITIAL TIME STEP SIZE =   92.00000    

 WELL NO.  LAYER   ROW   COL   STRESS RATE         
 --------------------------------------------------
      1      1     14      6       0.000    
      2      1      3      9       0.000    
      3      1     20     10       0.000    
      4      1     14     20       0.000    
      5      1     21     19      -8385.    
      6      1     13     14      -6352.    
      7      1     11     23     -0.1199E+05
      8      1     12     29      -8894.    

      8 WELLS

                 RECHARGE =  5.000000E-04



 CLASSIFICATION & COUNT OF STREAM SEGMENTS BASED ON SOURCE OF INFLOW:

                HEADWATER     DIVERSION     RECEIVES TRIBUTARY FLOW
                ---------     ---------     -----------------------
                     2              0               1



                    INPUT DATA FOR EACH STREAM SEGMENT
 ---------------------------------------------------------------------------------------------

 SEGMENT    SEG.     INFLOW   OVERLAND   STREAM    STREAM   ICALC  OUTFLOW  DIVERSION PRIORITY
    NO.    LENGTH     RATE     RUNOFF      ET       PPT.    METH.  TO SEG.  FROM SEG.    NO.

      1  4.400E+03 1.000E+05 0.000E+00 0.000E+00 0.000E+00    1        3        0        0
      2  1.800E+03 5.000E+04 0.000E+00 0.000E+00 0.000E+00    1        3        0        0
      3  1.800E+03 0.000E+00 0.000E+00 0.000E+00 0.000E+00    1        0        0        0


         STREAMBED PROPERTIES AND STREAM DIMENSIONS

 SEGMENT     BED HYD. COND.      BED THICKNESS     ELEV.-TOP OF BED     WIDTH OF STREAM     DEPTH OF STREAM    STREAM ROUGHNESS
    No.     UPPER     LOWER     UPPER     LOWER     UPPER     LOWER     UPPER     LOWER     UPPER     LOWER   CHANNEL      BANK

     1  5.000E+00 5.000E+00 1.000E+00 1.000E+00 4.850E+01 3.800E+01 2.000E+01 2.000E+01                     5.000E-02
     2  5.000E+00 5.000E+00 1.000E+00 1.000E+00 4.025E+01 3.800E+01 2.000E+01 2.000E+01                     5.000E-02
     3  5.000E+00 5.000E+00 1.000E+00 1.000E+00 3.800E+01 3.000E+01 2.000E+01 2.000E+01                     5.000E-02



 
 SOLVING FOR HEAD 


     9 CALLS TO PCG ROUTINE FOR TIME STEP   1 IN STRESS PERIOD    1
    36 TOTAL ITERATIONS

 OUTPUT CONTROL FOR STRESS PERIOD    1   TIME STEP    1
    SAVE BUDGET
    SAVE HEAD FOR ALL LAYERS
    PRINT HEAD FOR ALL LAYERS
 UBDSV2 SAVING "STREAMFLOW OUT  " ON UNIT  50 AT TIME STEP  1, STRESS PERIOD   1



 STREAM LISTING     PERIOD      1   STEP        1

 LAYER ROW COL. STREAM  RCH.  FLOW INTO     FLOW TO   FLOW OUT OF   OVRLND.     DIRECT     STREAM       STREAM     STREAM     STREAM   STREAMBED  STREAMBED
                SEG.NO.  NO.  STRM. RCH.    AQUIFER    STRM. RCH.    RUNOFF     PRECIP       ET          HEAD       DEPTH      WIDTH   CONDCTNC.   GRADIENT

   1   13    1     1     1    1.0000E+05 -6.1210E+03   1.0612E+05  0.000E+00  0.000E+00  0.000E+00  4.84087E+01  1.473E-01  2.000E+01  2.000E+04 -3.060E-01
   1   13    2     1     2    1.0612E+05 -7.5906E+03   1.1371E+05  0.000E+00  0.000E+00  0.000E+00  4.79372E+01  1.531E-01  2.000E+01  2.000E+04 -3.795E-01
   1   14    3     1     3    1.1371E+05 -2.1983E+03   1.1591E+05  0.000E+00  0.000E+00  0.000E+00  4.74640E+01  1.571E-01  2.000E+01  2.000E+04 -1.099E-01
   1   15    4     1     4    1.1591E+05 -2.2690E+03   1.1818E+05  0.000E+00  0.000E+00  0.000E+00  4.69885E+01  1.590E-01  2.000E+01  2.000E+04 -1.135E-01
   1   16    5     1     5    1.1818E+05 -7.1709E+03   1.2535E+05  0.000E+00  0.000E+00  0.000E+00  4.65151E+01  1.628E-01  2.000E+01  2.000E+04 -3.585E-01
   1   16    6     1     6    1.2535E+05 -4.2910E+03   1.2964E+05  0.000E+00  0.000E+00  0.000E+00  4.60423E+01  1.673E-01  2.000E+01  2.000E+04 -2.146E-01
   1   16    7     1     7    1.2964E+05 -4.1213E+03   1.3376E+05  0.000E+00  0.000E+00  0.000E+00  4.55684E+01  1.706E-01  2.000E+01  2.000E+04 -2.061E-01
   1   16    8     1     8    1.3376E+05 -4.0729E+03   1.3784E+05  0.000E+00  0.000E+00  0.000E+00  4.50943E+01  1.738E-01  2.000E+01  2.000E+04 -2.036E-01
   1   16    9     1     9    1.3784E+05 -4.0507E+03   1.4189E+05  0.000E+00  0.000E+00  0.000E+00  4.46201E+01  1.769E-01  2.000E+01  2.000E+04 -2.025E-01
   1   16   10     1    10    1.4189E+05 -4.0295E+03   1.4592E+05  0.000E+00  0.000E+00  0.000E+00  4.41459E+01  1.800E-01  2.000E+01  2.000E+04 -2.015E-01
   1   16   11     1    11    1.4592E+05 -4.0309E+03   1.4995E+05  0.000E+00  0.000E+00  0.000E+00  4.36716E+01  1.830E-01  2.000E+01  2.000E+04 -2.015E-01
   1   16   12     1    12    1.4995E+05 -6.7042E+03   1.5665E+05  0.000E+00  0.000E+00  0.000E+00  4.31983E+01  1.869E-01  2.000E+01  2.000E+04 -3.352E-01
   1   15   13     1    13    1.5665E+05 -6.7514E+03   1.6340E+05  0.000E+00  0.000E+00  0.000E+00  4.27259E+01  1.918E-01  2.000E+01  2.000E+04 -3.376E-01
   1   14   14     1    14    1.6340E+05 -5.5021E+03   1.6890E+05  0.000E+00  0.000E+00  0.000E+00  4.22530E+01  1.962E-01  2.000E+01  2.000E+04 -2.751E-01
   1   13   15     1    15    1.6890E+05 -5.9033E+03   1.7481E+05  0.000E+00  0.000E+00  0.000E+00  4.17797E+01  2.002E-01  2.000E+01  2.000E+04 -2.952E-01
   1   12   16     1    16    1.7481E+05 -8.3783E+03   1.8319E+05  0.000E+00  0.000E+00  0.000E+00  4.13074E+01  2.051E-01  2.000E+01  2.000E+04 -4.189E-01
   1   12   17     1    17    1.8319E+05 -6.1000E+03   1.8929E+05  0.000E+00  0.000E+00  0.000E+00  4.08351E+01  2.101E-01  2.000E+01  2.000E+04 -3.050E-01
   1   12   18     1    18    1.8929E+05 -5.9053E+03   1.9519E+05  0.000E+00  0.000E+00  0.000E+00  4.03618E+01  2.141E-01  2.000E+01  2.000E+04 -2.953E-01
   1   12   19     1    19    1.9519E+05 -7.0833E+03   2.0227E+05  0.000E+00  0.000E+00  0.000E+00  3.98889E+01  2.184E-01  2.000E+01  2.000E+04 -3.542E-01
   1   13   20     1    20    2.0227E+05 -6.0369E+03   2.0831E+05  0.000E+00  0.000E+00  0.000E+00  3.94159E+01  2.227E-01  2.000E+01  2.000E+04 -3.018E-01
   1   14   21     1    21    2.0831E+05 -5.7781E+03   2.1409E+05  0.000E+00  0.000E+00  0.000E+00  3.89424E+01  2.265E-01  2.000E+01  2.000E+04 -2.889E-01
   1   14   22     1    22    2.1409E+05  3.9640E+03   2.1012E+05  0.000E+00  0.000E+00  0.000E+00  3.84658E+01  2.271E-01  2.000E+01  2.000E+04  1.982E-01
   1    9   30     2     1    5.0000E+04 -3.7496E+03   5.3750E+04  0.000E+00  0.000E+00  0.000E+00  4.02435E+01  1.185E-01  2.000E+01  2.000E+04 -1.875E-01
   1    9   29     2     2    5.3750E+04 -4.0593E+03   5.7809E+04  0.000E+00  0.000E+00  0.000E+00  3.99987E+01  1.237E-01  2.000E+01  2.000E+04 -2.030E-01
   1    9   28     2     3    5.7809E+04 -4.5931E+03   6.2402E+04  0.000E+00  0.000E+00  0.000E+00  3.97544E+01  1.294E-01  2.000E+01  2.000E+04 -2.297E-01
   1    9   27     2     4    6.2402E+04 -7.5757E+03   6.9978E+04  0.000E+00  0.000E+00  0.000E+00  3.95121E+01  1.371E-01  2.000E+01  2.000E+04 -3.788E-01
   1   10   26     2     5    6.9978E+04 -5.9206E+03   7.5898E+04  0.000E+00  0.000E+00  0.000E+00  3.92703E+01  1.453E-01  2.000E+01  2.000E+04 -2.960E-01
   1   11   25     2     6    7.5898E+04 -4.2760E+03   8.0174E+04  0.000E+00  0.000E+00  0.000E+00  3.90263E+01  1.513E-01  2.000E+01  2.000E+04 -2.138E-01
   1   12   24     2     7    8.0174E+04 -2.7148E+03   8.2889E+04  0.000E+00  0.000E+00  0.000E+00  3.87804E+01  1.554E-01  2.000E+01  2.000E+04 -1.357E-01
   1   13   23     2     8    8.2889E+04 -1.1893E+03   8.4078E+04  0.000E+00  0.000E+00  0.000E+00  3.85326E+01  1.576E-01  2.000E+01  2.000E+04 -5.947E-02
   1   14   22     2     9    8.4078E+04  3.1068E+02   8.3768E+04  0.000E+00  0.000E+00  0.000E+00  3.82831E+01  1.581E-01  2.000E+01  2.000E+04  1.553E-02
   1   14   22     3     1    2.9389E+05 -9.6112E+03   3.0350E+05  0.000E+00  0.000E+00  0.000E+00  3.77870E+01  2.314E-01  2.000E+01  2.000E+04 -4.806E-01
   1   15   23     3     2    3.0350E+05 -1.9220E+03   3.0543E+05  0.000E+00  0.000E+00  0.000E+00  3.69008E+01  2.341E-01  2.000E+01  2.000E+04 -9.610E-02
   1   15   24     3     3    3.0543E+05 -1.5105E+03   3.0694E+05  0.000E+00  0.000E+00  0.000E+00  3.60127E+01  2.349E-01  2.000E+01  2.000E+04 -7.552E-02
   1   15   25     3     4    3.0694E+05 -1.5554E+03   3.0849E+05  0.000E+00  0.000E+00  0.000E+00  3.51245E+01  2.356E-01  2.000E+01  2.000E+04 -7.777E-02
   1   15   26     3     5    3.0849E+05 -1.7772E+03   3.1027E+05  0.000E+00  0.000E+00  0.000E+00  3.42364E+01  2.364E-01  2.000E+01  2.000E+04 -8.886E-02
   1   16   27     3     6    3.1027E+05 -1.9903E+03   3.1226E+05  0.000E+00  0.000E+00  0.000E+00  3.33483E+01  2.372E-01  2.000E+01  2.000E+04 -9.952E-02
   1   17   28     3     7    3.1226E+05 -5.7246E+03   3.1798E+05  0.000E+00  0.000E+00  0.000E+00  3.24612E+01  2.390E-01  2.000E+01  2.000E+04 -2.862E-01
   1   18   29     3     8    3.1798E+05 -7.6213E+03   3.2561E+05  0.000E+00  0.000E+00  0.000E+00  3.15754E+01  2.420E-01  2.000E+01  2.000E+04 -3.811E-01
   1   18   30     3     9    3.2561E+05 -6.7762E+03   3.3238E+05  0.000E+00  0.000E+00  0.000E+00  3.06897E+01  2.453E-01  2.000E+01  2.000E+04 -3.388E-01



1
              HEAD IN LAYER   1 AT END OF TIME STEP   1 IN STRESS PERIOD    1
  ---------------------------------------------------------------------------

          1      2      3      4      5      6      7      8      9     10
         11     12     13     14     15     16     17     18     19     20
         21     22     23     24     25     26     27     28     29     30
 .........................................................................
   1  ****** ****** ****** ****** ****** ****** ****** ****** ****** ******
      ****** ****** ****** ****** ****** ****** ****** ****** ****** ******
      ****** ****** ****** ****** ****** ****** ****** ****** ****** ******
   2  ****** ****** ****** ****** ****** ****** ****** ****** ****** ******
      ****** ****** ****** ****** ****** ****** ****** ****** ****** ******
      ****** ****** ****** ****** ****** ****** ****** ****** ****** ******
   3  ****** ****** ****** ****** ****** ****** ****** ****** ****** ******
      ****** ****** ****** ****** ****** ****** ****** ****** ****** ******
      ****** ****** ****** ****** ****** ****** ****** ****** ****** ******
   4  ****** ****** ****** ****** ****** ****** ****** ****** ****** ******
      ****** ****** ****** ****** ****** ****** ****** ****** ****** ******
      ****** ****** ****** ****** ****** ****** ****** ****** ****** ******
   5  ****** ****** ****** ****** ****** ****** ****** ****** ****** ******
      ****** ****** ****** ****** ****** ****** ****** ****** ****** ******
      ****** ****** ****** ****** ****** ****** ****** ****** ****** ******
   6  ****** ****** ****** ****** ****** ****** ****** ****** ****** ******
      ****** ****** ****** ****** ****** ****** ****** ****** ****** ******
      ****** ****** ****** ****** ****** ****** ****** ****** ****** ******
   7  ****** ****** ****** ****** ****** ****** ****** ****** ****** ******
      ****** ****** ****** ****** ****** ****** ****** ****** ****** ******
      ****** ****** ****** ****** ****** ****** ****** ****** ****** ******
   8  ****** ****** ****** ****** ****** ****** ****** ****** ****** ******
      ****** ****** ****** ****** ****** ****** ****** ****** ****** ******
      ****** ****** ****** ****** ****** ****** ****** ****** ****** ******
   9  ****** ****** ****** ****** ****** ****** ****** ****** ****** ******
      ****** ****** ****** ****** ****** ****** ****** ****** ****** ******
      ****** ****** ****** ****** ****** ****** ****** ****** ****** ******
  10  ****** ****** ****** ****** ****** ****** ****** ****** ****** ******
      ****** ****** ****** ****** ****** ****** ****** ****** ****** ******
      ****** ****** ****** ****** ****** ****** ****** ****** ****** ******
  11  ****** ****** ****** ****** ****** ****** ****** ****** ****** ******
      ****** ****** ****** ****** ****** ****** ****** ****** ****** ******
      ****** ****** ****** ****** ****** ****** ****** ****** ****** ******
  12  ****** ****** ****** ****** ****** ****** ****** ****** ****** ******
      ****** ****** ****** ****** ****** ****** ****** ****** ****** ******
      ****** ****** ****** ****** ****** ****** ****** ****** ****** ******
  13  ****** ****** ****** ****** ****** ****** ****** ****** ****** ******
      ****** ****** ****** ****** ****** ****** ****** ****** ****** ******
      ****** ****** ****** ****** ****** ****** ****** ****** ****** ******
  14  ****** ****** ****** ****** ****** ****** ****** ****** ****** ******
      ****** ****** ****** ****** ****** ****** ****** ****** ****** ******
      ****** ****** ****** ****** ****** ****** ****** ****** ****** ******
  15  ****** ****** ****** ****** ****** ****** ****** ****** ****** ******
      ****** ****** ****** ****** ****** ****** ****** ****** ****** ******
      ****** ****** ****** ****** ****** ****** ****** ****** ****** ******
  16  ****** ****** ****** ****** ****** ****** ****** ****** ****** ******
      ****** ****** ****** ****** ****** ****** ****** ****** ****** ******
      ****** ****** ****** ****** ****** ****** ****** ****** ****** ******
  17  ****** ****** ****** ****** ****** ****** ****** ****** ****** ******
      ****** ****** ****** ****** ****** ****** ****** ****** ****** ******
      ****** ****** ****** ****** ****** ****** ****** ****** ****** ******
  18  ****** ****** ****** ****** ****** ****** ****** ****** ****** ******
      ****** ****** ****** ****** ****** ****** ****** ****** ****** ******
      ****** ****** ****** ****** ****** ****** ****** ****** ****** ******
  19  ****** ****** ****** ****** ****** ****** ****** ****** ****** ******
      ****** ****** ****** ****** ****** ****** ****** ****** ****** ******
      ****** ****** ****** ****** ****** ****** ****** ****** ****** ******
  20  ****** ****** ****** ****** ****** ****** ****** ****** ****** ******
      ****** ****** ****** ****** ****** ****** ****** ****** ****** ******
      ****** ****** ****** ****** ****** ****** ****** ****** ****** ******
  21  ****** ****** ****** ****** ****** ****** ****** ****** ****** ******
      ****** ****** ****** ****** ****** ****** ****** ****** ****** ******
      ****** ****** ****** ****** ****** ****** ****** ****** ****** ******
  22  ****** ****** ****** ****** ****** ****** ****** ****** ****** ******
      ****** ****** ****** ****** ****** ****** ****** ****** ****** ******
      ****** ****** ****** ****** ****** ****** ****** ****** ****** ******
  23  ****** ****** ****** ****** ****** ****** ****** ****** ****** ******
      ****** ****** ****** ****** ****** ****** ****** ****** ****** ******
      ****** ****** ****** ****** ****** ****** ****** ****** ****** ******
  24  ****** ****** ****** ****** ****** ****** ****** ****** ****** ******
      ****** ****** ****** ****** ****** ****** ****** ****** ****** ******
      ****** ****** ****** ****** ****** ****** ****** ****** ****** ******
  25  ****** ****** ****** ****** ****** ****** ****** ****** ****** ******
      ****** ****** ****** ****** ****** ****** ****** ****** ****** ******
      ****** ****** ****** ****** ****** ****** ****** ****** ****** ******

 HEAD WILL BE SAVED ON UNIT   51 AT END OF TIME STEP    1, STRESS PERIOD    1
1
  VOLUMETRIC BUDGET FOR ENTIRE MODEL AT END OF TIME STEP    1, STRESS PERIOD   1
  ------------------------------------------------------------------------------

     CUMULATIVE VOLUMES      L**3       RATES FOR THIS TIME STEP      L**3/T
     ------------------                 ------------------------

           IN:                                      IN:
           ---                                      ---
             STORAGE =    17637115.8052               STORAGE =      191707.7805
       CONSTANT HEAD =     1149643.3359         CONSTANT HEAD =       12496.1232
               WELLS =           0.0000                 WELLS =           0.0000
            RECHARGE =     1269600.0000              RECHARGE =       13800.0000
      STREAM LEAKAGE =      393274.6283        STREAM LEAKAGE =        4274.7242

            TOTAL IN =    20449633.7694              TOTAL IN =      222278.6279

          OUT:                                     OUT:
          ----                                     ----
             STORAGE =           0.0000               STORAGE =           0.0000
       CONSTANT HEAD =           0.0000         CONSTANT HEAD =           0.0000
               WELLS =     3277270.8139                 WELLS =       35622.5088
            RECHARGE =           0.0000              RECHARGE =           0.0000
      STREAM LEAKAGE =    17172363.2463        STREAM LEAKAGE =      186656.1222

           TOTAL OUT =    20449634.0602             TOTAL OUT =      222278.6311

            IN - OUT =          -0.2908              IN - OUT =      -3.1608E-03

 PERCENT DISCREPANCY =          -0.00     PERCENT DISCREPANCY =          -0.00






         TIME SUMMARY AT END OF TIME STEP    1 IN STRESS PERIOD    1
                    SECONDS     MINUTES      HOURS       DAYS        YEARS
                    -----------------------------------------------------------
   TIME STEP LENGTH 7.94880E+06 1.32480E+05  2208.0      92.000     0.25188    
 STRESS PERIOD TIME 7.94880E+06 1.32480E+05  2208.0      92.000     0.25188    
         TOTAL TIME 7.94880E+06 1.32480E+05  2208.0      92.000     0.25188    
1
1
                            STRESS PERIOD NO.    2, LENGTH =   91.00000    
                            -----------------------------------------------

                              NUMBER OF TIME STEPS =     1

                               MULTIPLIER FOR DELT =     1.500

                            INITIAL TIME STEP SIZE =   91.00000    

 WELL NO.  LAYER   ROW   COL   STRESS RATE         
 --------------------------------------------------
      1      1     14      6       0.000    
      2      1      3      9       0.000    
      3      1     20     10       0.000    
      4      1     14     20       0.000    
      5      1     21     19      -8385.    
      6      1     13     14      -6352.    
      7      1     11     23     -0.1199E+05
      8      1     12     29      -8894.    

      8 WELLS

                 RECHARGE =  2.000000E-03

 REUSING STREAM SEGMENT DATA FROM LAST STRESS PERIOD
 
 SOLVING FOR HEAD 


     7 CALLS TO PCG ROUTINE FOR TIME STEP   1 IN STRESS PERIOD    2
    27 TOTAL ITERATIONS

 OUTPUT CONTROL FOR STRESS PERIOD    2   TIME STEP    1
    SAVE BUDGET
    SAVE HEAD FOR ALL LAYERS
    PRINT HEAD FOR ALL LAYERS
 UBDSV2 SAVING "STREAMFLOW OUT  " ON UNIT  50 AT TIME STEP  1, STRESS PERIOD   2



 STREAM LISTING     PERIOD      2   STEP        1

 LAYER ROW COL. STREAM  RCH.  FLOW INTO     FLOW TO   FLOW OUT OF   OVRLND.     DIRECT     STREAM       STREAM     STREAM     STREAM   STREAMBED  STREAMBED
                SEG.NO.  NO.  STRM. RCH.    AQUIFER    STRM. RCH.    RUNOFF     PRECIP       ET          HEAD       DEPTH      WIDTH   CONDCTNC.   GRADIENT

   1   13    1     1     1    1.0000E+05 -4.0057E+03   1.0401E+05  0.000E+00  0.000E+00  0.000E+00  4.84077E+01  1.464E-01  2.000E+01  2.000E+04 -2.003E-01
   1   13    2     1     2    1.0401E+05 -5.2680E+03   1.0927E+05  0.000E+00  0.000E+00  0.000E+00  4.79344E+01  1.503E-01  2.000E+01  2.000E+04 -2.634E-01
   1   14    3     1     3    1.0927E+05 -1.1147E+03   1.1039E+05  0.000E+00  0.000E+00  0.000E+00  4.74598E+01  1.530E-01  2.000E+01  2.000E+04 -5.574E-02
   1   15    4     1     4    1.1039E+05 -1.1410E+03   1.1153E+05  0.000E+00  0.000E+00  0.000E+00  4.69835E+01  1.540E-01  2.000E+01  2.000E+04 -5.705E-02
   1   16    5     1     5    1.1153E+05 -4.2215E+03   1.1575E+05  0.000E+00  0.000E+00  0.000E+00  4.65085E+01  1.562E-01  2.000E+01  2.000E+04 -2.111E-01
   1   16    6     1     6    1.1575E+05 -2.4808E+03   1.1823E+05  0.000E+00  0.000E+00  0.000E+00  4.60339E+01  1.589E-01  2.000E+01  2.000E+04 -1.240E-01
   1   16    7     1     7    1.1823E+05 -2.3779E+03   1.2061E+05  0.000E+00  0.000E+00  0.000E+00  4.55586E+01  1.609E-01  2.000E+01  2.000E+04 -1.189E-01
   1   16    8     1     8    1.2061E+05 -2.3350E+03   1.2294E+05  0.000E+00  0.000E+00  0.000E+00  4.50833E+01  1.628E-01  2.000E+01  2.000E+04 -1.168E-01
   1   16    9     1     9    1.2294E+05 -2.2939E+03   1.2524E+05  0.000E+00  0.000E+00  0.000E+00  4.46078E+01  1.647E-01  2.000E+01  2.000E+04 -1.147E-01
   1   16   10     1    10    1.2524E+05 -2.2387E+03   1.2748E+05  0.000E+00  0.000E+00  0.000E+00  4.41324E+01  1.665E-01  2.000E+01  2.000E+04 -1.119E-01
   1   16   11     1    11    1.2748E+05 -2.1918E+03   1.2967E+05  0.000E+00  0.000E+00  0.000E+00  4.36568E+01  1.682E-01  2.000E+01  2.000E+04 -1.096E-01
   1   16   12     1    12    1.2967E+05 -3.6678E+03   1.3334E+05  0.000E+00  0.000E+00  0.000E+00  4.31818E+01  1.705E-01  2.000E+01  2.000E+04 -1.834E-01
   1   15   13     1    13    1.3334E+05 -3.3702E+03   1.3671E+05  0.000E+00  0.000E+00  0.000E+00  4.27073E+01  1.732E-01  2.000E+01  2.000E+04 -1.685E-01
   1   14   14     1    14    1.3671E+05 -1.9897E+03   1.3870E+05  0.000E+00  0.000E+00  0.000E+00  4.22321E+01  1.753E-01  2.000E+01  2.000E+04 -9.948E-02
   1   13   15     1    15    1.3870E+05 -2.4299E+03   1.4113E+05  0.000E+00  0.000E+00  0.000E+00  4.17565E+01  1.769E-01  2.000E+01  2.000E+04 -1.215E-01
   1   12   16     1    16    1.4113E+05 -5.1796E+03   1.4631E+05  0.000E+00  0.000E+00  0.000E+00  4.12821E+01  1.798E-01  2.000E+01  2.000E+04 -2.590E-01
   1   12   17     1    17    1.4631E+05 -3.5559E+03   1.4986E+05  0.000E+00  0.000E+00  0.000E+00  4.08081E+01  1.831E-01  2.000E+01  2.000E+04 -1.778E-01
   1   12   18     1    18    1.4986E+05 -3.3448E+03   1.5321E+05  0.000E+00  0.000E+00  0.000E+00  4.03333E+01  1.856E-01  2.000E+01  2.000E+04 -1.672E-01
   1   12   19     1    19    1.5321E+05 -3.8532E+03   1.5706E+05  0.000E+00  0.000E+00  0.000E+00  3.98587E+01  1.883E-01  2.000E+01  2.000E+04 -1.927E-01
   1   13   20     1    20    1.5706E+05 -2.7555E+03   1.5982E+05  0.000E+00  0.000E+00  0.000E+00  3.93838E+01  1.907E-01  2.000E+01  2.000E+04 -1.378E-01
   1   14   21     1    21    1.5982E+05 -2.8291E+03   1.6264E+05  0.000E+00  0.000E+00  0.000E+00  3.89086E+01  1.927E-01  2.000E+01  2.000E+04 -1.415E-01
   1   14   22     1    22    1.6264E+05  4.8007E+03   1.5784E+05  0.000E+00  0.000E+00  0.000E+00  3.84306E+01  1.920E-01  2.000E+01  2.000E+04  2.400E-01
   1    9   30     2     1    5.0000E+04 -8.1052E+02   5.0811E+04  0.000E+00  0.000E+00  0.000E+00  4.02414E+01  1.164E-01  2.000E+01  2.000E+04 -4.053E-02
   1    9   29     2     2    5.0811E+04 -1.1477E+03   5.1958E+04  0.000E+00  0.000E+00  0.000E+00  3.99928E+01  1.178E-01  2.000E+01  2.000E+04 -5.738E-02
   1    9   28     2     3    5.1958E+04 -1.7324E+03   5.3691E+04  0.000E+00  0.000E+00  0.000E+00  3.97447E+01  1.197E-01  2.000E+01  2.000E+04 -8.662E-02
   1    9   27     2     4    5.3691E+04 -3.9610E+03   5.7652E+04  0.000E+00  0.000E+00  0.000E+00  3.94986E+01  1.236E-01  2.000E+01  2.000E+04 -1.981E-01
   1   10   26     2     5    5.7652E+04 -2.0544E+03   5.9706E+04  0.000E+00  0.000E+00  0.000E+00  3.92525E+01  1.275E-01  2.000E+01  2.000E+04 -1.027E-01
   1   11   25     2     6    5.9706E+04 -5.3595E+02   6.0242E+04  0.000E+00  0.000E+00  0.000E+00  3.90042E+01  1.292E-01  2.000E+01  2.000E+04 -2.680E-02
   1   12   24     2     7    6.0242E+04  6.5521E+02   5.9587E+04  0.000E+00  0.000E+00  0.000E+00  3.87541E+01  1.291E-01  2.000E+01  2.000E+04  3.276E-02
   1   13   23     2     8    5.9587E+04 -1.0815E+02   5.9695E+04  0.000E+00  0.000E+00  0.000E+00  3.85038E+01  1.288E-01  2.000E+01  2.000E+04 -5.408E-03
   1   14   22     2     9    5.9695E+04  1.2500E+03   5.8445E+04  0.000E+00  0.000E+00  0.000E+00  3.82531E+01  1.281E-01  2.000E+01  2.000E+04  6.250E-02
   1   14   22     3     1    2.1629E+05 -8.8396E+03   2.2513E+05  0.000E+00  0.000E+00  0.000E+00  3.77486E+01  1.930E-01  2.000E+01  2.000E+04 -4.420E-01
   1   15   23     3     2    2.2513E+05 -9.3880E+02   2.2607E+05  0.000E+00  0.000E+00  0.000E+00  3.68622E+01  1.956E-01  2.000E+01  2.000E+04 -4.694E-02
   1   15   24     3     3    2.2607E+05 -6.2708E+02   2.2669E+05  0.000E+00  0.000E+00  0.000E+00  3.59738E+01  1.960E-01  2.000E+01  2.000E+04 -3.135E-02
   1   15   25     3     4    2.2669E+05 -6.2753E+02   2.2732E+05  0.000E+00  0.000E+00  0.000E+00  3.50852E+01  1.963E-01  2.000E+01  2.000E+04 -3.138E-02
   1   15   26     3     5    2.2732E+05 -6.1531E+02   2.2794E+05  0.000E+00  0.000E+00  0.000E+00  3.41966E+01  1.966E-01  2.000E+01  2.000E+04 -3.077E-02
   1   16   27     3     6    2.2794E+05 -6.5497E+02   2.2859E+05  0.000E+00  0.000E+00  0.000E+00  3.33081E+01  1.970E-01  2.000E+01  2.000E+04 -3.275E-02
   1   17   28     3     7    2.2859E+05 -2.0887E+03   2.3068E+05  0.000E+00  0.000E+00  0.000E+00  3.24199E+01  1.977E-01  2.000E+01  2.000E+04 -1.044E-01
   1   18   29     3     8    2.3068E+05 -4.4790E+03   2.3516E+05  0.000E+00  0.000E+00  0.000E+00  3.15327E+01  1.994E-01  2.000E+01  2.000E+04 -2.240E-01
   1   18   30     3     9    2.3516E+05 -4.1042E+03   2.3926E+05  0.000E+00  0.000E+00  0.000E+00  3.06460E+01  2.015E-01  2.000E+01  2.000E+04 -2.052E-01



1
              HEAD IN LAYER   1 AT END OF TIME STEP   1 IN STRESS PERIOD    2
  ---------------------------------------------------------------------------

          1      2      3      4      5      6      7      8      9     10
         11     12     13     14     15     16     17     18     19     20
         21     22     23     24     25     26     27     28     29     30
 .........................................................................
   1  ****** ****** ****** ****** ****** ****** ****** ****** ****** ******
      ****** ****** ****** ****** ****** ****** ****** ****** ****** ******
      ****** ****** ****** ****** ****** ****** ****** ****** ****** ******
   2  ****** ****** ****** ****** ****** ****** ****** ****** ****** ******
      ****** ****** ****** ****** ****** ****** ****** ****** ****** ******
      ****** ****** ****** ****** ****** ****** ****** ****** ****** ******
   3  ****** ****** ****** ****** ****** ****** ****** ****** ****** ******
      ****** ****** ****** ****** ****** ****** ****** ****** ****** ******
      ****** ****** ****** ****** ****** ****** ****** ****** ****** ******
   4  ****** ****** ****** ****** ****** ****** ****** ****** ****** ******
      ****** ****** ****** ****** ****** ****** ****** ****** ****** ******
      ****** ****** ****** ****** ****** ****** ****** ****** ****** ******
   5  ****** ****** ****** ****** ****** ****** ****** ****** ****** ******
      ****** ****** ****** ****** ****** ****** ****** ****** ****** ******
      ****** ****** ****** ****** ****** ****** ****** ****** ****** ******
   6  ****** ****** ****** ****** ****** ****** ****** ****** ****** ******
      ****** ****** ****** ****** ****** ****** ****** ****** ****** ******
      ****** ****** ****** ****** ****** ****** ****** ****** ****** ******
   7  ****** ****** ****** ****** ****** ****** ****** ****** ****** ******
      ****** ****** ****** ****** ****** ****** ****** ****** ****** ******
      ****** ****** ****** ****** ****** ****** ****** ****** ****** ******
   8  ****** ****** ****** ****** ****** ****** ****** ****** ****** ******
      ****** ****** ****** ****** ****** ****** ****** ****** ****** ******
      ****** ****** ****** ****** ****** ****** ****** ****** ****** ******
   9  ****** ****** ****** ****** ****** ****** ****** ****** ****** ******
      ****** ****** ****** ****** ****** ****** ****** ****** ****** ******
      ****** ****** ****** ****** ****** ****** ****** ****** ****** ******
  10  ****** ****** ****** ****** ****** ****** ****** ****** ****** ******
      ****** ****** ****** ****** ****** ****** ****** ****** ****** ******
      ****** ****** ****** ****** ****** ****** ****** ****** ****** ******
  11  ****** ****** ****** ****** ****** ****** ****** ****** ****** ******
      ****** ****** ****** ****** ****** ****** ****** ****** ****** ******
      ****** ****** ****** ****** ****** ****** ****** ****** ****** ******
  12  ****** ****** ****** ****** ****** ****** ****** ****** ****** ******
      ****** ****** ****** ****** ****** ****** ****** ****** ****** ******
      ****** ****** ****** ****** ****** ****** ****** ****** ****** ******
  13  ****** ****** ****** ****** ****** ****** ****** ****** ****** ******
      ****** ****** ****** ****** ****** ****** ****** ****** ****** ******
      ****** ****** ****** ****** ****** ****** ****** ****** ****** ******
  14  ****** ****** ****** ****** ****** ****** ****** ****** ****** ******
      ****** ****** ****** ****** ****** ****** ****** ****** ****** ******
      ****** ****** ****** ****** ****** ****** ****** ****** ****** ******
  15  ****** ****** ****** ****** ****** ****** ****** ****** ****** ******
      ****** ****** ****** ****** ****** ****** ****** ****** ****** ******
      ****** ****** ****** ****** ****** ****** ****** ****** ****** ******
  16  ****** ****** ****** ****** ****** ****** ****** ****** ****** ******
      ****** ****** ****** ****** ****** ****** ****** ****** ****** ******
      ****** ****** ****** ****** ****** ****** ****** ****** ****** ******
  17  ****** ****** ****** ****** ****** ****** ****** ****** ****** ******
      ****** ****** ****** ****** ****** ****** ****** ****** ****** ******
      ****** ****** ****** ****** ****** ****** ****** ****** ****** ******
  18  ****** ****** ****** ****** ****** ****** ****** ****** ****** ******
      ****** ****** ****** ****** ****** ****** ****** ****** ****** ******
      ****** ****** ****** ****** ****** ****** ****** ****** ****** ******
  19  ****** ****** ****** ****** ****** ****** ****** ****** ****** ******
      ****** ****** ****** ****** ****** ****** ****** ****** ****** ******
      ****** ****** ****** ****** ****** ****** ****** ****** ****** ******
  20  ****** ****** ****** ****** ****** ****** ****** ****** ****** ******
      ****** ****** ****** ****** ****** ****** ****** ****** ****** ******
      ****** ****** ****** ****** ****** ****** ****** ****** ****** ******
  21  ****** ****** ****** ****** ****** ****** ****** ****** ****** ******
      ****** ****** ****** ****** ****** ****** ****** ****** ****** ******
      ****** ****** ****** ****** ****** ****** ****** ****** ****** ******
  22  ****** ****** ****** ****** ****** ****** ****** ****** ****** ******
      ****** ****** ****** ****** ****** ****** ****** ****** ****** ******
      ****** ****** ****** ****** ****** ****** ****** ****** ****** ******
  23  ****** ****** ****** ****** ****** ****** ****** ****** ****** ******
      ****** ****** ****** ****** ****** ****** ****** ****** ****** ******
      ****** ****** ****** ****** ****** ****** ****** ****** ****** ******
  24  ****** ****** ****** ****** ****** ****** ****** ****** ****** ******
      ****** ****** ****** ****** ****** ****** ****** ****** ****** ******
      ****** ****** ****** ****** ****** ****** ****** ****** ****** ******
  25  ****** ****** ****** ****** ****** ****** ****** ****** ****** ******
      ****** ****** ****** ****** ****** ****** ****** ****** ****** ******
      ****** ****** ****** ****** ****** ****** ****** ****** ****** ******

 HEAD WILL BE SAVED ON UNIT   51 AT END OF TIME STEP    1, STRESS PERIOD    2
1
  VOLUMETRIC BUDGET FOR ENTIRE MODEL AT END OF TIME STEP    1, STRESS PERIOD   2
  ------------------------------------------------------------------------------

     CUMULATIVE VOLUMES      L**3       RATES FOR THIS TIME STEP      L**3/T
     ------------------                 ------------------------

           IN:                                      IN:
           ---                                      ---
             STORAGE =    22438551.3078               STORAGE =       52763.0275
       CONSTANT HEAD =     2689686.5352         CONSTANT HEAD =       16923.5516
               WELLS =           0.0000                 WELLS =           0.0000
            RECHARGE =     6292800.0000              RECHARGE =       55200.0000
      STREAM LEAKAGE =     1003514.4512        STREAM LEAKAGE =        6705.9321

            TOTAL IN =    32424552.2942              TOTAL IN =      131592.5113

          OUT:                                     OUT:
          ----                                     ----
             STORAGE =           0.0000               STORAGE =           0.0000
       CONSTANT HEAD =           0.0000         CONSTANT HEAD =           0.0000
               WELLS =     6518919.1190                 WELLS =       35622.5088
            RECHARGE =           0.0000              RECHARGE =           0.0000
      STREAM LEAKAGE =    25905634.4024        STREAM LEAKAGE =       95970.0127

           TOTAL OUT =    32424553.5214             TOTAL OUT =      131592.5216

            IN - OUT =          -1.2273              IN - OUT =      -1.0291E-02

 PERCENT DISCREPANCY =          -0.00     PERCENT DISCREPANCY =          -0.00






         TIME SUMMARY AT END OF TIME STEP    1 IN STRESS PERIOD    2
                    SECONDS     MINUTES      HOURS       DAYS        YEARS
                    -----------------------------------------------------------
   TIME STEP LENGTH 7.86240E+06 1.31040E+05  2184.0      91.000     0.24914    
 STRESS PERIOD TIME 7.86240E+06 1.31040E+05  2184.0      91.000     0.24914    
         TOTAL TIME 1.58112E+07 2.63520E+05  4392.0      183.00     0.50103    
1
1
                            STRESS PERIOD NO.    3, LENGTH =   91.00000    
                            -----------------------------------------------

                              NUMBER OF TIME STEPS =     1

                               MULTIPLIER FOR DELT =     1.500

                            INITIAL TIME STEP SIZE =   91.00000    

 WELL NO.  LAYER   ROW   COL   STRESS RATE         
 --------------------------------------------------
      1      1     14      6       0.000    
      2      1      3      9       0.000    
      3      1     20     10       0.000    
      4      1     14     20       0.000    
      5      1     21     19      -8385.    
      6      1     13     14      -6352.    
      7      1     11     23     -0.1199E+05
      8      1     12     29      -8894.    

      8 WELLS

                 RECHARGE =   0.00000    

 REUSING STREAM SEGMENT DATA FROM LAST STRESS PERIOD
 
 SOLVING FOR HEAD 


     7 CALLS TO PCG ROUTINE FOR TIME STEP   1 IN STRESS PERIOD    3
    27 TOTAL ITERATIONS

 OUTPUT CONTROL FOR STRESS PERIOD    3   TIME STEP    1
    SAVE BUDGET
    SAVE HEAD FOR ALL LAYERS
    PRINT HEAD FOR ALL LAYERS
 UBDSV2 SAVING "STREAMFLOW OUT  " ON UNIT  50 AT TIME STEP  1, STRESS PERIOD   3



 STREAM LISTING     PERIOD      3   STEP        1

 LAYER ROW COL. STREAM  RCH.  FLOW INTO     FLOW TO   FLOW OUT OF   OVRLND.     DIRECT     STREAM       STREAM     STREAM     STREAM   STREAMBED  STREAMBED
                SEG.NO.  NO.  STRM. RCH.    AQUIFER    STRM. RCH.    RUNOFF     PRECIP       ET          HEAD       DEPTH      WIDTH   CONDCTNC.   GRADIENT

   1   13    1     1     1    1.0000E+05 -2.7604E+03   1.0276E+05  0.000E+00  0.000E+00  0.000E+00  4.84072E+01  1.458E-01  2.000E+01  2.000E+04 -1.380E-01
   1   13    2     1     2    1.0276E+05 -3.8698E+03   1.0663E+05  0.000E+00  0.000E+00  0.000E+00  4.79328E+01  1.487E-01  2.000E+01  2.000E+04 -1.935E-01
   1   14    3     1     3    1.0663E+05 -6.5364E+02   1.0728E+05  0.000E+00  0.000E+00  0.000E+00  4.74574E+01  1.506E-01  2.000E+01  2.000E+04 -3.268E-02
   1   15    4     1     4    1.0728E+05 -6.3481E+02   1.0792E+05  0.000E+00  0.000E+00  0.000E+00  4.69807E+01  1.512E-01  2.000E+01  2.000E+04 -3.174E-02
   1   16    5     1     5    1.0792E+05 -2.4130E+03   1.1033E+05  0.000E+00  0.000E+00  0.000E+00  4.65047E+01  1.524E-01  2.000E+01  2.000E+04 -1.206E-01
   1   16    6     1     6    1.1033E+05 -1.4678E+03   1.1180E+05  0.000E+00  0.000E+00  0.000E+00  4.60291E+01  1.541E-01  2.000E+01  2.000E+04 -7.339E-02
   1   16    7     1     7    1.1180E+05 -1.4208E+03   1.1322E+05  0.000E+00  0.000E+00  0.000E+00  4.55530E+01  1.553E-01  2.000E+01  2.000E+04 -7.104E-02
   1   16    8     1     8    1.1322E+05 -1.3926E+03   1.1461E+05  0.000E+00  0.000E+00  0.000E+00  4.50769E+01  1.564E-01  2.000E+01  2.000E+04 -6.963E-02
   1   16    9     1     9    1.1461E+05 -1.3513E+03   1.1596E+05  0.000E+00  0.000E+00  0.000E+00  4.46007E+01  1.575E-01  2.000E+01  2.000E+04 -6.756E-02
   1   16   10     1    10    1.1596E+05 -1.2904E+03   1.1725E+05  0.000E+00  0.000E+00  0.000E+00  4.41245E+01  1.586E-01  2.000E+01  2.000E+04 -6.452E-02
   1   16   11     1    11    1.1725E+05 -1.2288E+03   1.1848E+05  0.000E+00  0.000E+00  0.000E+00  4.36483E+01  1.596E-01  2.000E+01  2.000E+04 -6.144E-02
   1   16   12     1    12    1.1848E+05 -1.9782E+03   1.2046E+05  0.000E+00  0.000E+00  0.000E+00  4.31723E+01  1.609E-01  2.000E+01  2.000E+04 -9.891E-02
   1   15   13     1    13    1.2046E+05 -1.6567E+03   1.2212E+05  0.000E+00  0.000E+00  0.000E+00  4.26965E+01  1.624E-01  2.000E+01  2.000E+04 -8.284E-02
   1   14   14     1    14    1.2212E+05 -2.4087E+02   1.2236E+05  0.000E+00  0.000E+00  0.000E+00  4.22200E+01  1.632E-01  2.000E+01  2.000E+04 -1.204E-02
   1   13   15     1    15    1.2236E+05 -6.9310E+02   1.2305E+05  0.000E+00  0.000E+00  0.000E+00  4.17431E+01  1.635E-01  2.000E+01  2.000E+04 -3.466E-02
   1   12   16     1    16    1.2305E+05 -3.4094E+03   1.2646E+05  0.000E+00  0.000E+00  0.000E+00  4.12675E+01  1.652E-01  2.000E+01  2.000E+04 -1.705E-01
   1   12   17     1    17    1.2646E+05 -2.2638E+03   1.2873E+05  0.000E+00  0.000E+00  0.000E+00  4.07924E+01  1.674E-01  2.000E+01  2.000E+04 -1.132E-01
   1   12   18     1    18    1.2873E+05 -2.0680E+03   1.3079E+05  0.000E+00  0.000E+00  0.000E+00  4.03169E+01  1.691E-01  2.000E+01  2.000E+04 -1.034E-01
   1   12   19     1    19    1.3079E+05 -2.2525E+03   1.3305E+05  0.000E+00  0.000E+00  0.000E+00  3.98413E+01  1.708E-01  2.000E+01  2.000E+04 -1.126E-01
   1   13   20     1    20    1.3305E+05 -1.2528E+03   1.3430E+05  0.000E+00  0.000E+00  0.000E+00  3.93653E+01  1.722E-01  2.000E+01  2.000E+04 -6.264E-02
   1   14   21     1    21    1.3430E+05 -1.2616E+03   1.3556E+05  0.000E+00  0.000E+00  0.000E+00  3.88890E+01  1.731E-01  2.000E+01  2.000E+04 -6.308E-02
   1   14   22     1    22    1.3556E+05  5.1838E+03   1.3038E+05  0.000E+00  0.000E+00  0.000E+00  3.84103E+01  1.716E-01  2.000E+01  2.000E+04  2.592E-01
   1    9   30     2     1    5.0000E+04  4.3047E+02   4.9570E+04  0.000E+00  0.000E+00  0.000E+00  4.02406E+01  1.156E-01  2.000E+01  2.000E+04  2.152E-02
   1    9   29     2     2    4.9570E+04  8.8797E+01   4.9481E+04  0.000E+00  0.000E+00  0.000E+00  3.99902E+01  1.152E-01  2.000E+01  2.000E+04  4.440E-03
   1    9   28     2     3    4.9481E+04 -4.8872E+02   4.9969E+04  0.000E+00  0.000E+00  0.000E+00  3.97405E+01  1.155E-01  2.000E+01  2.000E+04 -2.444E-02
   1    9   27     2     4    4.9969E+04 -2.1914E+03   5.2161E+04  0.000E+00  0.000E+00  0.000E+00  3.94923E+01  1.173E-01  2.000E+01  2.000E+04 -1.096E-01
   1   10   26     2     5    5.2161E+04 -3.8169E+02   5.2543E+04  0.000E+00  0.000E+00  0.000E+00  3.92441E+01  1.191E-01  2.000E+01  2.000E+04 -1.908E-02
   1   11   25     2     6    5.2543E+04  1.0236E+03   5.1519E+04  0.000E+00  0.000E+00  0.000E+00  3.89937E+01  1.187E-01  2.000E+01  2.000E+04  5.118E-02
   1   12   24     2     7    5.1519E+04  2.0406E+03   4.9478E+04  0.000E+00  0.000E+00  0.000E+00  3.87416E+01  1.166E-01  2.000E+01  2.000E+04  1.020E-01
   1   13   23     2     8    4.9478E+04  2.3189E+02   4.9246E+04  0.000E+00  0.000E+00  0.000E+00  3.84900E+01  1.150E-01  2.000E+01  2.000E+04  1.159E-02
   1   14   22     2     9    4.9246E+04  1.7504E+03   4.7496E+04  0.000E+00  0.000E+00  0.000E+00  3.82386E+01  1.136E-01  2.000E+01  2.000E+04  8.752E-02
   1   14   22     3     1    1.7787E+05 -8.4705E+03   1.8634E+05  0.000E+00  0.000E+00  0.000E+00  3.77275E+01  1.720E-01  2.000E+01  2.000E+04 -4.235E-01
   1   15   23     3     2    1.8634E+05 -5.2514E+02   1.8687E+05  0.000E+00  0.000E+00  0.000E+00  3.68412E+01  1.745E-01  2.000E+01  2.000E+04 -2.626E-02
   1   15   24     3     3    1.8687E+05 -2.9451E+02   1.8716E+05  0.000E+00  0.000E+00  0.000E+00  3.59525E+01  1.748E-01  2.000E+01  2.000E+04 -1.473E-02
   1   15   25     3     4    1.8716E+05 -2.7842E+02   1.8744E+05  0.000E+00  0.000E+00  0.000E+00  3.50638E+01  1.749E-01  2.000E+01  2.000E+04 -1.392E-02
   1   15   26     3     5    1.8744E+05 -1.9318E+02   1.8763E+05  0.000E+00  0.000E+00  0.000E+00  3.41750E+01  1.750E-01  2.000E+01  2.000E+04 -9.659E-03
   1   16   27     3     6    1.8763E+05 -1.6690E+02   1.8780E+05  0.000E+00  0.000E+00  0.000E+00  3.32863E+01  1.751E-01  2.000E+01  2.000E+04 -8.345E-03
   1   17   28     3     7    1.8780E+05 -5.8093E+02   1.8838E+05  0.000E+00  0.000E+00  0.000E+00  3.23976E+01  1.754E-01  2.000E+01  2.000E+04 -2.905E-02
   1   18   29     3     8    1.8838E+05 -2.8690E+03   1.9125E+05  0.000E+00  0.000E+00  0.000E+00  3.15097E+01  1.763E-01  2.000E+01  2.000E+04 -1.435E-01
   1   18   30     3     9    1.9125E+05 -2.8969E+03   1.9415E+05  0.000E+00  0.000E+00  0.000E+00  3.06224E+01  1.779E-01  2.000E+01  2.000E+04 -1.448E-01



1
              HEAD IN LAYER   1 AT END OF TIME STEP   1 IN STRESS PERIOD    3
  ---------------------------------------------------------------------------

          1      2      3      4      5      6      7      8      9     10
         11     12     13     14     15     16     17     18     19     20
         21     22     23     24     25     26     27     28     29     30
 .........................................................................
   1  ****** ****** ****** ****** ****** ****** ****** ****** ****** ******
      ****** ****** ****** ****** ****** ****** ****** ****** ****** ******
      ****** ****** ****** ****** ****** ****** ****** ****** ****** ******
   2  ****** ****** ****** ****** ****** ****** ****** ****** ****** ******
      ****** ****** ****** ****** ****** ****** ****** ****** ****** ******
      ****** ****** ****** ****** ****** ****** ****** ****** ****** ******
   3  ****** ****** ****** ****** ****** ****** ****** ****** ****** ******
      ****** ****** ****** ****** ****** ****** ****** ****** ****** ******
      ****** ****** ****** ****** ****** ****** ****** ****** ****** ******
   4  ****** ****** ****** ****** ****** ****** ****** ****** ****** ******
      ****** ****** ****** ****** ****** ****** ****** ****** ****** ******
      ****** ****** ****** ****** ****** ****** ****** ****** ****** ******
   5  ****** ****** ****** ****** ****** ****** ****** ****** ****** ******
      ****** ****** ****** ****** ****** ****** ****** ****** ****** ******
      ****** ****** ****** ****** ****** ****** ****** ****** ****** ******
   6  ****** ****** ****** ****** ****** ****** ****** ****** ****** ******
      ****** ****** ****** ****** ****** ****** ****** ****** ****** ******
      ****** ****** ****** ****** ****** ****** ****** ****** ****** ******
   7  ****** ****** ****** ****** ****** ****** ****** ****** ****** ******
      ****** ****** ****** ****** ****** ****** ****** ****** ****** ******
      ****** ****** ****** ****** ****** ****** ****** ****** ****** ******
   8  ****** ****** ****** ****** ****** ****** ****** ****** ****** ******
      ****** ****** ****** ****** ****** ****** ****** ****** ****** ******
      ****** ****** ****** ****** ****** ****** ****** ****** ****** ******
   9  ****** ****** ****** ****** ****** ****** ****** ****** ****** ******
      ****** ****** ****** ****** ****** ****** ****** ****** ****** ******
      ****** ****** ****** ****** ****** ****** ****** ****** ****** ******
  10  ****** ****** ****** ****** ****** ****** ****** ****** ****** ******
      ****** ****** ****** ****** ****** ****** ****** ****** ****** ******
      ****** ****** ****** ****** ****** ****** ****** ****** ****** ******
  11  ****** ****** ****** ****** ****** ****** ****** ****** ****** ******
      ****** ****** ****** ****** ****** ****** ****** ****** ****** ******
      ****** ****** ****** ****** ****** ****** ****** ****** ****** ******
  12  ****** ****** ****** ****** ****** ****** ****** ****** ****** ******
      ****** ****** ****** ****** ****** ****** ****** ****** ****** ******
      ****** ****** ****** ****** ****** ****** ****** ****** ****** ******
  13  ****** ****** ****** ****** ****** ****** ****** ****** ****** ******
      ****** ****** ****** ****** ****** ****** ****** ****** ****** ******
      ****** ****** ****** ****** ****** ****** ****** ****** ****** ******
  14  ****** ****** ****** ****** ****** ****** ****** ****** ****** ******
      ****** ****** ****** ****** ****** ****** ****** ****** ****** ******
      ****** ****** ****** ****** ****** ****** ****** ****** ****** ******
  15  ****** ****** ****** ****** ****** ****** ****** ****** ****** ******
      ****** ****** ****** ****** ****** ****** ****** ****** ****** ******
      ****** ****** ****** ****** ****** ****** ****** ****** ****** ******
  16  ****** ****** ****** ****** ****** ****** ****** ****** ****** ******
      ****** ****** ****** ****** ****** ****** ****** ****** ****** ******
      ****** ****** ****** ****** ****** ****** ****** ****** ****** ******
  17  ****** ****** ****** ****** ****** ****** ****** ****** ****** ******
      ****** ****** ****** ****** ****** ****** ****** ****** ****** ******
      ****** ****** ****** ****** ****** ****** ****** ****** ****** ******
  18  ****** ****** ****** ****** ****** ****** ****** ****** ****** ******
      ****** ****** ****** ****** ****** ****** ****** ****** ****** ******
      ****** ****** ****** ****** ****** ****** ****** ****** ****** ******
  19  ****** ****** ****** ****** ****** ****** ****** ****** ****** ******
      ****** ****** ****** ****** ****** ****** ****** ****** ****** ******
      ****** ****** ****** ****** ****** ****** ****** ****** ****** ******
  20  ****** ****** ****** ****** ****** ****** ****** ****** ****** ******
      ****** ****** ****** ****** ****** ****** ****** ****** ****** ******
      ****** ****** ****** ****** ****** ****** ****** ****** ****** ******
  21  ****** ****** ****** ****** ****** ****** ****** ****** ****** ******
      ****** ****** ****** ****** ****** ****** ****** ****** ****** ******
      ****** ****** ****** ****** ****** ****** ****** ****** ****** ******
  22  ****** ****** ****** ****** ****** ****** ****** ****** ****** ******
      ****** ****** ****** ****** ****** ****** ****** ****** ****** ******
      ****** ****** ****** ****** ****** ****** ****** ****** ****** ******
  23  ****** ****** ****** ****** ****** ****** ****** ****** ****** ******
      ****** ****** ****** ****** ****** ****** ****** ****** ****** ******
      ****** ****** ****** ****** ****** ****** ****** ****** ****** ******
  24  ****** ****** ****** ****** ****** ****** ****** ****** ****** ******
      ****** ****** ****** ****** ****** ****** ****** ****** ****** ******
      ****** ****** ****** ****** ****** ****** ****** ****** ****** ******
  25  ****** ****** ****** ****** ****** ****** ****** ****** ****** ******
      ****** ****** ****** ****** ****** ****** ****** ****** ****** ******
      ****** ****** ****** ****** ****** ****** ****** ****** ****** ******

 HEAD WILL BE SAVED ON UNIT   51 AT END OF TIME STEP    1, STRESS PERIOD    3
1
  VOLUMETRIC BUDGET FOR ENTIRE MODEL AT END OF TIME STEP    1, STRESS PERIOD   3
  ------------------------------------------------------------------------------

     CUMULATIVE VOLUMES      L**3       RATES FOR THIS TIME STEP      L**3/T
     ------------------                 ------------------------

           IN:                                      IN:
           ---                                      ---
             STORAGE =    27385747.3031               STORAGE =       54364.7912
       CONSTANT HEAD =     5001582.4946         CONSTANT HEAD =       25405.4501
               WELLS =           0.0000                 WELLS =           0.0000
            RECHARGE =     6292800.0000              RECHARGE =           0.0000
      STREAM LEAKAGE =     1981730.0294        STREAM LEAKAGE =       10749.6217

            TOTAL IN =    40661859.8270              TOTAL IN =       90519.8630

          OUT:                                     OUT:
          ----                                     ----
             STORAGE =           0.0000               STORAGE =           0.0000
       CONSTANT HEAD =           0.0000         CONSTANT HEAD =           0.0000
               WELLS =     9760567.4241                 WELLS =       35622.5088
            RECHARGE =           0.0000              RECHARGE =           0.0000
      STREAM LEAKAGE =    30901294.3206        STREAM LEAKAGE =       54897.3617

           TOTAL OUT =    40661861.7446             TOTAL OUT =       90519.8706

            IN - OUT =          -1.9176              IN - OUT =      -7.5861E-03

 PERCENT DISCREPANCY =          -0.00     PERCENT DISCREPANCY =          -0.00






         TIME SUMMARY AT END OF TIME STEP    1 IN STRESS PERIOD    3
                    SECONDS     MINUTES      HOURS       DAYS        YEARS
                    -----------------------------------------------------------
   TIME STEP LENGTH 7.86240E+06 1.31040E+05  2184.0      91.000     0.24914    
 STRESS PERIOD TIME 7.86240E+06 1.31040E+05  2184.0      91.000     0.24914    
         TOTAL TIME 2.36736E+07 3.94560E+05  6576.0      274.00     0.75017    
1
1
                            STRESS PERIOD NO.    4, LENGTH =   91.00000    
                            -----------------------------------------------

                              NUMBER OF TIME STEPS =     1

                               MULTIPLIER FOR DELT =     1.500

                            INITIAL TIME STEP SIZE =   91.00000    

 WELL NO.  LAYER   ROW   COL   STRESS RATE         
 --------------------------------------------------
      1      1     14      6       0.000    
      2      1      3      9       0.000    
      3      1     20     10       0.000    
      4      1     14     20       0.000    
      5      1     21     19      -8385.    
      6      1     13     14      -6352.    
      7      1     11     23     -0.1199E+05
      8      1     12     29      -8894.    

      8 WELLS

                 RECHARGE =  1.000000E-03

 REUSING STREAM SEGMENT DATA FROM LAST STRESS PERIOD
 
 SOLVING FOR HEAD 


     6 CALLS TO PCG ROUTINE FOR TIME STEP   1 IN STRESS PERIOD    4
    23 TOTAL ITERATIONS

 OUTPUT CONTROL FOR STRESS PERIOD    4   TIME STEP    1
    SAVE BUDGET
    SAVE HEAD FOR ALL LAYERS
    PRINT HEAD FOR ALL LAYERS
 UBDSV2 SAVING "STREAMFLOW OUT  " ON UNIT  50 AT TIME STEP  1, STRESS PERIOD   4



 STREAM LISTING     PERIOD      4   STEP        1

 LAYER ROW COL. STREAM  RCH.  FLOW INTO     FLOW TO   FLOW OUT OF   OVRLND.     DIRECT     STREAM       STREAM     STREAM     STREAM   STREAMBED  STREAMBED
                SEG.NO.  NO.  STRM. RCH.    AQUIFER    STRM. RCH.    RUNOFF     PRECIP       ET          HEAD       DEPTH      WIDTH   CONDCTNC.   GRADIENT

   1   13    1     1     1    1.0000E+05 -2.5317E+03   1.0253E+05  0.000E+00  0.000E+00  0.000E+00  4.84071E+01  1.457E-01  2.000E+01  2.000E+04 -1.266E-01
   1   13    2     1     2    1.0253E+05 -3.6039E+03   1.0614E+05  0.000E+00  0.000E+00  0.000E+00  4.79325E+01  1.484E-01  2.000E+01  2.000E+04 -1.802E-01
   1   14    3     1     3    1.0614E+05 -6.2545E+02   1.0676E+05  0.000E+00  0.000E+00  0.000E+00  4.74570E+01  1.502E-01  2.000E+01  2.000E+04 -3.127E-02
   1   15    4     1     4    1.0676E+05 -5.9615E+02   1.0736E+05  0.000E+00  0.000E+00  0.000E+00  4.69802E+01  1.507E-01  2.000E+01  2.000E+04 -2.981E-02
   1   16    5     1     5    1.0736E+05 -2.1033E+03   1.0946E+05  0.000E+00  0.000E+00  0.000E+00  4.65041E+01  1.518E-01  2.000E+01  2.000E+04 -1.052E-01
   1   16    6     1     6    1.0946E+05 -1.3143E+03   1.1077E+05  0.000E+00  0.000E+00  0.000E+00  4.60283E+01  1.533E-01  2.000E+01  2.000E+04 -6.571E-02
   1   16    7     1     7    1.1077E+05 -1.2777E+03   1.1205E+05  0.000E+00  0.000E+00  0.000E+00  4.55521E+01  1.543E-01  2.000E+01  2.000E+04 -6.389E-02
   1   16    8     1     8    1.1205E+05 -1.2524E+03   1.1330E+05  0.000E+00  0.000E+00  0.000E+00  4.50758E+01  1.554E-01  2.000E+01  2.000E+04 -6.262E-02
   1   16    9     1     9    1.1330E+05 -1.2121E+03   1.1452E+05  0.000E+00  0.000E+00  0.000E+00  4.45996E+01  1.564E-01  2.000E+01  2.000E+04 -6.060E-02
   1   16   10     1    10    1.1452E+05 -1.1522E+03   1.1567E+05  0.000E+00  0.000E+00  0.000E+00  4.41233E+01  1.574E-01  2.000E+01  2.000E+04 -5.761E-02
   1   16   11     1    11    1.1567E+05 -1.0872E+03   1.1676E+05  0.000E+00  0.000E+00  0.000E+00  4.36469E+01  1.583E-01  2.000E+01  2.000E+04 -5.436E-02
   1   16   12     1    12    1.1676E+05 -1.6808E+03   1.1844E+05  0.000E+00  0.000E+00  0.000E+00  4.31708E+01  1.594E-01  2.000E+01  2.000E+04 -8.404E-02
   1   15   13     1    13    1.1844E+05 -1.3890E+03   1.1983E+05  0.000E+00  0.000E+00  0.000E+00  4.26948E+01  1.607E-01  2.000E+01  2.000E+04 -6.945E-02
   1   14   14     1    14    1.1983E+05  4.1267E+01   1.1978E+05  0.000E+00  0.000E+00  0.000E+00  4.22180E+01  1.612E-01  2.000E+01  2.000E+04  2.063E-03
   1   13   15     1    15    1.1978E+05 -3.9513E+02   1.2018E+05  0.000E+00  0.000E+00  0.000E+00  4.17409E+01  1.614E-01  2.000E+01  2.000E+04 -1.976E-02
   1   12   16     1    16    1.2018E+05 -3.0309E+03   1.2321E+05  0.000E+00  0.000E+00  0.000E+00  4.12650E+01  1.627E-01  2.000E+01  2.000E+04 -1.515E-01
   1   12   17     1    17    1.2321E+05 -2.0321E+03   1.2524E+05  0.000E+00  0.000E+00  0.000E+00  4.07898E+01  1.648E-01  2.000E+01  2.000E+04 -1.016E-01
   1   12   18     1    18    1.2524E+05 -1.8512E+03   1.2709E+05  0.000E+00  0.000E+00  0.000E+00  4.03140E+01  1.663E-01  2.000E+01  2.000E+04 -9.256E-02
   1   12   19     1    19    1.2709E+05 -1.9869E+03   1.2908E+05  0.000E+00  0.000E+00  0.000E+00  3.98383E+01  1.678E-01  2.000E+01  2.000E+04 -9.935E-02
   1   13   20     1    20    1.2908E+05 -1.0656E+03   1.3015E+05  0.000E+00  0.000E+00  0.000E+00  3.93622E+01  1.690E-01  2.000E+01  2.000E+04 -5.328E-02
   1   14   21     1    21    1.3015E+05 -9.9281E+02   1.3114E+05  0.000E+00  0.000E+00  0.000E+00  3.88857E+01  1.698E-01  2.000E+01  2.000E+04 -4.964E-02
   1   14   22     1    22    1.3114E+05  5.2271E+03   1.2591E+05  0.000E+00  0.000E+00  0.000E+00  3.84068E+01  1.682E-01  2.000E+01  2.000E+04  2.614E-01
   1    9   30     2     1    5.0000E+04  5.2521E+02   4.9475E+04  0.000E+00  0.000E+00  0.000E+00  4.02405E+01  1.155E-01  2.000E+01  2.000E+04  2.626E-02
   1    9   29     2     2    4.9475E+04  1.8990E+02   4.9285E+04  0.000E+00  0.000E+00  0.000E+00  3.99900E+01  1.150E-01  2.000E+01  2.000E+04  9.495E-03
   1    9   28     2     3    4.9285E+04 -3.6881E+02   4.9654E+04  0.000E+00  0.000E+00  0.000E+00  3.97401E+01  1.151E-01  2.000E+01  2.000E+04 -1.844E-02
   1    9   27     2     4    4.9654E+04 -1.9245E+03   5.1578E+04  0.000E+00  0.000E+00  0.000E+00  3.94917E+01  1.167E-01  2.000E+01  2.000E+04 -9.623E-02
   1   10   26     2     5    5.1578E+04 -2.2131E+02   5.1800E+04  0.000E+00  0.000E+00  0.000E+00  3.92432E+01  1.182E-01  2.000E+01  2.000E+04 -1.107E-02
   1   11   25     2     6    5.1800E+04  1.1437E+03   5.0656E+04  0.000E+00  0.000E+00  0.000E+00  3.89926E+01  1.176E-01  2.000E+01  2.000E+04  5.719E-02
   1   12   24     2     7    5.0656E+04  2.1406E+03   4.8515E+04  0.000E+00  0.000E+00  0.000E+00  3.87403E+01  1.153E-01  2.000E+01  2.000E+04  1.070E-01
   1   13   23     2     8    4.8515E+04  2.0664E+02   4.8309E+04  0.000E+00  0.000E+00  0.000E+00  3.84886E+01  1.136E-01  2.000E+01  2.000E+04  1.033E-02
   1   14   22     2     9    4.8309E+04  1.8351E+03   4.6473E+04  0.000E+00  0.000E+00  0.000E+00  3.82372E+01  1.122E-01  2.000E+01  2.000E+04  9.176E-02
   1   14   22     3     1    1.7239E+05 -8.4208E+03   1.8081E+05  0.000E+00  0.000E+00  0.000E+00  3.77244E+01  1.688E-01  2.000E+01  2.000E+04 -4.210E-01
   1   15   23     3     2    1.8081E+05 -4.9148E+02   1.8130E+05  0.000E+00  0.000E+00  0.000E+00  3.68381E+01  1.714E-01  2.000E+01  2.000E+04 -2.457E-02
   1   15   24     3     3    1.8130E+05 -2.8861E+02   1.8159E+05  0.000E+00  0.000E+00  0.000E+00  3.59494E+01  1.716E-01  2.000E+01  2.000E+04 -1.443E-02
   1   15   25     3     4    1.8159E+05 -2.7269E+02   1.8186E+05  0.000E+00  0.000E+00  0.000E+00  3.50607E+01  1.718E-01  2.000E+01  2.000E+04 -1.363E-02
   1   15   26     3     5    1.8186E+05 -1.9597E+02   1.8206E+05  0.000E+00  0.000E+00  0.000E+00  3.41719E+01  1.719E-01  2.000E+01  2.000E+04 -9.798E-03
   1   16   27     3     6    1.8206E+05 -1.5921E+02   1.8221E+05  0.000E+00  0.000E+00  0.000E+00  3.32831E+01  1.720E-01  2.000E+01  2.000E+04 -7.961E-03
   1   17   28     3     7    1.8221E+05 -4.8538E+02   1.8270E+05  0.000E+00  0.000E+00  0.000E+00  3.23944E+01  1.722E-01  2.000E+01  2.000E+04 -2.427E-02
   1   18   29     3     8    1.8270E+05 -2.6081E+03   1.8531E+05  0.000E+00  0.000E+00  0.000E+00  3.15064E+01  1.731E-01  2.000E+01  2.000E+04 -1.304E-01
   1   18   30     3     9    1.8531E+05 -2.7594E+03   1.8807E+05  0.000E+00  0.000E+00  0.000E+00  3.06190E+01  1.746E-01  2.000E+01  2.000E+04 -1.380E-01



1
              HEAD IN LAYER   1 AT END OF TIME STEP   1 IN STRESS PERIOD    4
  ---------------------------------------------------------------------------

          1      2      3      4      5      6      7      8      9     10
         11     12     13     14     15     16     17     18     19     20
         21     22     23     24     25     26     27     28     29     30
 .........................................................................
   1  ****** ****** ****** ****** ****** ****** ****** ****** ****** ******
      ****** ****** ****** ****** ****** ****** ****** ****** ****** ******
      ****** ****** ****** ****** ****** ****** ****** ****** ****** ******
   2  ****** ****** ****** ****** ****** ****** ****** ****** ****** ******
      ****** ****** ****** ****** ****** ****** ****** ****** ****** ******
      ****** ****** ****** ****** ****** ****** ****** ****** ****** ******
   3  ****** ****** ****** ****** ****** ****** ****** ****** ****** ******
      ****** ****** ****** ****** ****** ****** ****** ****** ****** ******
      ****** ****** ****** ****** ****** ****** ****** ****** ****** ******
   4  ****** ****** ****** ****** ****** ****** ****** ****** ****** ******
      ****** ****** ****** ****** ****** ****** ****** ****** ****** ******
      ****** ****** ****** ****** ****** ****** ****** ****** ****** ******
   5  ****** ****** ****** ****** ****** ****** ****** ****** ****** ******
      ****** ****** ****** ****** ****** ****** ****** ****** ****** ******
      ****** ****** ****** ****** ****** ****** ****** ****** ****** ******
   6  ****** ****** ****** ****** ****** ****** ****** ****** ****** ******
      ****** ****** ****** ****** ****** ****** ****** ****** ****** ******
      ****** ****** ****** ****** ****** ****** ****** ****** ****** ******
   7  ****** ****** ****** ****** ****** ****** ****** ****** ****** ******
      ****** ****** ****** ****** ****** ****** ****** ****** ****** ******
      ****** ****** ****** ****** ****** ****** ****** ****** ****** ******
   8  ****** ****** ****** ****** ****** ****** ****** ****** ****** ******
      ****** ****** ****** ****** ****** ****** ****** ****** ****** ******
      ****** ****** ****** ****** ****** ****** ****** ****** ****** ******
   9  ****** ****** ****** ****** ****** ****** ****** ****** ****** ******
      ****** ****** ****** ****** ****** ****** ****** ****** ****** ******
      ****** ****** ****** ****** ****** ****** ****** ****** ****** ******
  10  ****** ****** ****** ****** ****** ****** ****** ****** ****** ******
      ****** ****** ****** ****** ****** ****** ****** ****** ****** ******
      ****** ****** ****** ****** ****** ****** ****** ****** ****** ******
  11  ****** ****** ****** ****** ****** ****** ****** ****** ****** ******
      ****** ****** ****** ****** ****** ****** ****** ****** ****** ******
      ****** ****** ****** ****** ****** ****** ****** ****** ****** ******
  12  ****** ****** ****** ****** ****** ****** ****** ****** ****** ******
      ****** ****** ****** ****** ****** ****** ****** ****** ****** ******
      ****** ****** ****** ****** ****** ****** ****** ****** ****** ******
  13  ****** ****** ****** ****** ****** ****** ****** ****** ****** ******
      ****** ****** ****** ****** ****** ****** ****** ****** ****** ******
      ****** ****** ****** ****** ****** ****** ****** ****** ****** ******
  14  ****** ****** ****** ****** ****** ****** ****** ****** ****** ******
      ****** ****** ****** ****** ****** ****** ****** ****** ****** ******
      ****** ****** ****** ****** ****** ****** ****** ****** ****** ******
  15  ****** ****** ****** ****** ****** ****** ****** ****** ****** ******
      ****** ****** ****** ****** ****** ****** ****** ****** ****** ******
      ****** ****** ****** ****** ****** ****** ****** ****** ****** ******
  16  ****** ****** ****** ****** ****** ****** ****** ****** ****** ******
      ****** ****** ****** ****** ****** ****** ****** ****** ****** ******
      ****** ****** ****** ****** ****** ****** ****** ****** ****** ******
  17  ****** ****** ****** ****** ****** ****** ****** ****** ****** ******
      ****** ****** ****** ****** ****** ****** ****** ****** ****** ******
      ****** ****** ****** ****** ****** ****** ****** ****** ****** ******
  18  ****** ****** ****** ****** ****** ****** ****** ****** ****** ******
      ****** ****** ****** ****** ****** ****** ****** ****** ****** ******
      ****** ****** ****** ****** ****** ****** ****** ****** ****** ******
  19  ****** ****** ****** ****** ****** ****** ****** ****** ****** ******
      ****** ****** ****** ****** ****** ****** ****** ****** ****** ******
      ****** ****** ****** ****** ****** ****** ****** ****** ****** ******
  20  ****** ****** ****** ****** ****** ****** ****** ****** ****** ******
      ****** ****** ****** ****** ****** ****** ****** ****** ****** ******
      ****** ****** ****** ****** ****** ****** ****** ****** ****** ******
  21  ****** ****** ****** ****** ****** ****** ****** ****** ****** ******
      ****** ****** ****** ****** ****** ****** ****** ****** ****** ******
      ****** ****** ****** ****** ****** ****** ****** ****** ****** ******
  22  ****** ****** ****** ****** ****** ****** ****** ****** ****** ******
      ****** ****** ****** ****** ****** ****** ****** ****** ****** ******
      ****** ****** ****** ****** ****** ****** ****** ****** ****** ******
  23  ****** ****** ****** ****** ****** ****** ****** ****** ****** ******
      ****** ****** ****** ****** ****** ****** ****** ****** ****** ******
      ****** ****** ****** ****** ****** ****** ****** ****** ****** ******
  24  ****** ****** ****** ****** ****** ****** ****** ****** ****** ******
      ****** ****** ****** ****** ****** ****** ****** ****** ****** ******
      ****** ****** ****** ****** ****** ****** ****** ****** ****** ******
  25  ****** ****** ****** ****** ****** ****** ****** ****** ****** ******
      ****** ****** ****** ****** ****** ****** ****** ****** ****** ******
      ****** ****** ****** ****** ****** ****** ****** ****** ****** ******

 HEAD WILL BE SAVED ON UNIT   51 AT END OF TIME STEP    1, STRESS PERIOD    4
1
  VOLUMETRIC BUDGET FOR ENTIRE MODEL AT END OF TIME STEP    1, STRESS PERIOD   4
  ------------------------------------------------------------------------------

     CUMULATIVE VOLUMES      L**3       RATES FOR THIS TIME STEP      L**3/T
     ------------------                 ------------------------

           IN:                                      IN:
           ---                                      ---
             STORAGE =    29035610.0559               STORAGE =       18130.3599
       CONSTANT HEAD =     7546458.0947         CONSTANT HEAD =       27965.6659
               WELLS =           0.0000                 WELLS =           0.0000
            RECHARGE =     8804400.0000              RECHARGE =       27600.0000
      STREAM LEAKAGE =     3010894.4852        STREAM LEAKAGE =       11309.4995

            TOTAL IN =    48397362.6359              TOTAL IN =       85005.5254

          OUT:                                     OUT:
          ----                                     ----
             STORAGE =         539.5964               STORAGE =           5.9296
       CONSTANT HEAD =           0.0000         CONSTANT HEAD =           0.0000
               WELLS =    13002215.7291                 WELLS =       35622.5088
            RECHARGE =           0.0000              RECHARGE =           0.0000
      STREAM LEAKAGE =    35394609.2991        STREAM LEAKAGE =       49377.0877

           TOTAL OUT =    48397364.6246             TOTAL OUT =       85005.5262

            IN - OUT =          -1.9888              IN - OUT =      -7.8226E-04

 PERCENT DISCREPANCY =          -0.00     PERCENT DISCREPANCY =          -0.00






         TIME SUMMARY AT END OF TIME STEP    1 IN STRESS PERIOD    4
                    SECONDS     MINUTES      HOURS       DAYS        YEARS
                    -----------------------------------------------------------
   TIME STEP LENGTH 7.86240E+06 1.31040E+05  2184.0      91.000     0.24914    
 STRESS PERIOD TIME 7.86240E+06 1.31040E+05  2184.0      91.000     0.24914    
         TOTAL TIME 3.15360E+07 5.25600E+05  8760.0      365.00     0.99932    
1
1
                            STRESS PERIOD NO.    5, LENGTH =   92.00000    
                            -----------------------------------------------

                              NUMBER OF TIME STEPS =     1

                               MULTIPLIER FOR DELT =     1.500

                            INITIAL TIME STEP SIZE =   92.00000    

 WELL NO.  LAYER   ROW   COL   STRESS RATE         
 --------------------------------------------------
      1      1     14      6       0.000    
      2      1      3      9       0.000    
      3      1     20     10       0.000    
      4      1     14     20       0.000    
      5      1     21     19      -8385.    
      6      1     13     14      -6352.    
      7      1     11     23     -0.1199E+05
      8      1     12     29      -8894.    

      8 WELLS

                 RECHARGE =  5.000000E-04

 REUSING STREAM SEGMENT DATA FROM LAST STRESS PERIOD
 
 SOLVING FOR HEAD 


     7 CALLS TO PCG ROUTINE FOR TIME STEP   1 IN STRESS PERIOD    5
    26 TOTAL ITERATIONS

 OUTPUT CONTROL FOR STRESS PERIOD    5   TIME STEP    1
    SAVE BUDGET
    SAVE HEAD FOR ALL LAYERS
    PRINT HEAD FOR ALL LAYERS
 UBDSV2 SAVING "STREAMFLOW OUT  " ON UNIT  50 AT TIME STEP  1, STRESS PERIOD   5



 STREAM LISTING     PERIOD      5   STEP        1

 LAYER ROW COL. STREAM  RCH.  FLOW INTO     FLOW TO   FLOW OUT OF   OVRLND.     DIRECT     STREAM       STREAM     STREAM     STREAM   STREAMBED  STREAMBED
                SEG.NO.  NO.  STRM. RCH.    AQUIFER    STRM. RCH.    RUNOFF     PRECIP       ET          HEAD       DEPTH      WIDTH   CONDCTNC.   GRADIENT

   1   13    1     1     1    1.0000E+05 -2.1231E+03   1.0212E+05  0.000E+00  0.000E+00  0.000E+00  4.84069E+01  1.456E-01  2.000E+01  2.000E+04 -1.062E-01
   1   13    2     1     2    1.0212E+05 -3.1422E+03   1.0527E+05  0.000E+00  0.000E+00  0.000E+00  4.79319E+01  1.478E-01  2.000E+01  2.000E+04 -1.571E-01
   1   14    3     1     3    1.0527E+05 -5.0377E+02   1.0577E+05  0.000E+00  0.000E+00  0.000E+00  4.74562E+01  1.494E-01  2.000E+01  2.000E+04 -2.519E-02
   1   15    4     1     4    1.0577E+05 -4.6746E+02   1.0624E+05  0.000E+00  0.000E+00  0.000E+00  4.69793E+01  1.498E-01  2.000E+01  2.000E+04 -2.337E-02
   1   16    5     1     5    1.0624E+05 -1.6682E+03   1.0790E+05  0.000E+00  0.000E+00  0.000E+00  4.65030E+01  1.507E-01  2.000E+01  2.000E+04 -8.341E-02
   1   16    6     1     6    1.0790E+05 -1.0596E+03   1.0896E+05  0.000E+00  0.000E+00  0.000E+00  4.60269E+01  1.519E-01  2.000E+01  2.000E+04 -5.298E-02
   1   16    7     1     7    1.0896E+05 -1.0331E+03   1.1000E+05  0.000E+00  0.000E+00  0.000E+00  4.55505E+01  1.527E-01  2.000E+01  2.000E+04 -5.165E-02
   1   16    8     1     8    1.1000E+05 -1.0108E+03   1.1101E+05  0.000E+00  0.000E+00  0.000E+00  4.50740E+01  1.536E-01  2.000E+01  2.000E+04 -5.054E-02
   1   16    9     1     9    1.1101E+05 -9.7263E+02   1.1198E+05  0.000E+00  0.000E+00  0.000E+00  4.45976E+01  1.544E-01  2.000E+01  2.000E+04 -4.863E-02
   1   16   10     1    10    1.1198E+05 -9.1507E+02   1.1290E+05  0.000E+00  0.000E+00  0.000E+00  4.41211E+01  1.552E-01  2.000E+01  2.000E+04 -4.575E-02
   1   16   11     1    11    1.1290E+05 -8.4794E+02   1.1374E+05  0.000E+00  0.000E+00  0.000E+00  4.36446E+01  1.559E-01  2.000E+01  2.000E+04 -4.240E-02
   1   16   12     1    12    1.1374E+05 -1.2510E+03   1.1499E+05  0.000E+00  0.000E+00  0.000E+00  4.31682E+01  1.568E-01  2.000E+01  2.000E+04 -6.255E-02
   1   15   13     1    13    1.1499E+05 -9.4341E+02   1.1594E+05  0.000E+00  0.000E+00  0.000E+00  4.26918E+01  1.577E-01  2.000E+01  2.000E+04 -4.717E-02
   1   14   14     1    14    1.1594E+05  5.1003E+02   1.1543E+05  0.000E+00  0.000E+00  0.000E+00  4.22147E+01  1.579E-01  2.000E+01  2.000E+04  2.550E-02
   1   13   15     1    15    1.1543E+05  8.6080E+01   1.1534E+05  0.000E+00  0.000E+00  0.000E+00  4.17372E+01  1.576E-01  2.000E+01  2.000E+04  4.304E-03
   1   12   16     1    16    1.1534E+05 -2.5122E+03   1.1785E+05  0.000E+00  0.000E+00  0.000E+00  4.12609E+01  1.586E-01  2.000E+01  2.000E+04 -1.256E-01
   1   12   17     1    17    1.1785E+05 -1.6803E+03   1.1953E+05  0.000E+00  0.000E+00  0.000E+00  4.07853E+01  1.603E-01  2.000E+01  2.000E+04 -8.402E-02
   1   12   18     1    18    1.1953E+05 -1.5155E+03   1.2105E+05  0.000E+00  0.000E+00  0.000E+00  4.03093E+01  1.616E-01  2.000E+01  2.000E+04 -7.578E-02
   1   12   19     1    19    1.2105E+05 -1.5823E+03   1.2263E+05  0.000E+00  0.000E+00  0.000E+00  3.98333E+01  1.629E-01  2.000E+01  2.000E+04 -7.911E-02
   1   13   20     1    20    1.2263E+05 -7.0332E+02   1.2334E+05  0.000E+00  0.000E+00  0.000E+00  3.93570E+01  1.638E-01  2.000E+01  2.000E+04 -3.517E-02
   1   14   21     1    21    1.2334E+05 -5.9502E+02   1.2393E+05  0.000E+00  0.000E+00  0.000E+00  3.88802E+01  1.643E-01  2.000E+01  2.000E+04 -2.975E-02
   1   14   22     1    22    1.2393E+05  5.3115E+03   1.1862E+05  0.000E+00  0.000E+00  0.000E+00  3.84010E+01  1.624E-01  2.000E+01  2.000E+04  2.656E-01
   1    9   30     2     1    5.0000E+04  7.5629E+02   4.9244E+04  0.000E+00  0.000E+00  0.000E+00  4.02403E+01  1.153E-01  2.000E+01  2.000E+04  3.781E-02
   1    9   29     2     2    4.9244E+04  4.2427E+02   4.8819E+04  0.000E+00  0.000E+00  0.000E+00  3.99895E+01  1.145E-01  2.000E+01  2.000E+04  2.121E-02
   1    9   28     2     3    4.8819E+04 -1.2321E+02   4.8943E+04  0.000E+00  0.000E+00  0.000E+00  3.97393E+01  1.143E-01  2.000E+01  2.000E+04 -6.161E-03
   1    9   27     2     4    4.8943E+04 -1.5397E+03   5.0482E+04  0.000E+00  0.000E+00  0.000E+00  3.94905E+01  1.155E-01  2.000E+01  2.000E+04 -7.699E-02
   1   10   26     2     5    5.0482E+04  1.1575E+02   5.0367E+04  0.000E+00  0.000E+00  0.000E+00  3.92415E+01  1.165E-01  2.000E+01  2.000E+04  5.787E-03
   1   11   25     2     6    5.0367E+04  1.4531E+03   4.8913E+04  0.000E+00  0.000E+00  0.000E+00  3.89904E+01  1.154E-01  2.000E+01  2.000E+04  7.266E-02
   1   12   24     2     7    4.8913E+04  2.4226E+03   4.6491E+04  0.000E+00  0.000E+00  0.000E+00  3.87376E+01  1.126E-01  2.000E+01  2.000E+04  1.211E-01
   1   13   23     2     8    4.6491E+04  2.7479E+02   4.6216E+04  0.000E+00  0.000E+00  0.000E+00  3.84857E+01  1.107E-01  2.000E+01  2.000E+04  1.374E-02
   1   14   22     2     9    4.6216E+04  1.9728E+03   4.4243E+04  0.000E+00  0.000E+00  0.000E+00  3.82341E+01  1.091E-01  2.000E+01  2.000E+04  9.864E-02
   1   14   22     3     1    1.6286E+05 -8.3322E+03   1.7119E+05  0.000E+00  0.000E+00  0.000E+00  3.77189E+01  1.633E-01  2.000E+01  2.000E+04 -4.166E-01
   1   15   23     3     2    1.7119E+05 -3.8731E+02   1.7158E+05  0.000E+00  0.000E+00  0.000E+00  3.68325E+01  1.658E-01  2.000E+01  2.000E+04 -1.937E-02
   1   15   24     3     3    1.7158E+05 -2.1335E+02   1.7180E+05  0.000E+00  0.000E+00  0.000E+00  3.59438E+01  1.660E-01  2.000E+01  2.000E+04 -1.067E-02
   1   15   25     3     4    1.7180E+05 -1.9835E+02   1.7199E+05  0.000E+00  0.000E+00  0.000E+00  3.50550E+01  1.661E-01  2.000E+01  2.000E+04 -9.918E-03
   1   15   26     3     5    1.7199E+05 -1.2112E+02   1.7211E+05  0.000E+00  0.000E+00  0.000E+00  3.41662E+01  1.662E-01  2.000E+01  2.000E+04 -6.056E-03
   1   16   27     3     6    1.7211E+05 -6.4666E+01   1.7218E+05  0.000E+00  0.000E+00  0.000E+00  3.32774E+01  1.663E-01  2.000E+01  2.000E+04 -3.233E-03
   1   17   28     3     7    1.7218E+05 -2.0232E+02   1.7238E+05  0.000E+00  0.000E+00  0.000E+00  3.23886E+01  1.664E-01  2.000E+01  2.000E+04 -1.012E-02
   1   18   29     3     8    1.7238E+05 -2.2072E+03   1.7459E+05  0.000E+00  0.000E+00  0.000E+00  3.15004E+01  1.671E-01  2.000E+01  2.000E+04 -1.104E-01
   1   18   30     3     9    1.7459E+05 -2.4849E+03   1.7707E+05  0.000E+00  0.000E+00  0.000E+00  3.06129E+01  1.684E-01  2.000E+01  2.000E+04 -1.242E-01



1
              HEAD IN LAYER   1 AT END OF TIME STEP   1 IN STRESS PERIOD    5
  ---------------------------------------------------------------------------

          1      2      3      4      5      6      7      8      9     10
         11     12     13     14     15     16     17     18     19     20
         21     22     23     24     25     26     27     28     29     30
 .........................................................................
   1  ****** ****** ****** ****** ****** ****** ****** ****** ****** ******
      ****** ****** ****** ****** ****** ****** ****** ****** ****** ******
      ****** ****** ****** ****** ****** ****** ****** ****** ****** ******
   2  ****** ****** ****** ****** ****** ****** ****** ****** ****** ******
      ****** ****** ****** ****** ****** ****** ****** ****** ****** ******
      ****** ****** ****** ****** ****** ****** ****** ****** ****** ******
   3  ****** ****** ****** ****** ****** ****** ****** ****** ****** ******
      ****** ****** ****** ****** ****** ****** ****** ****** ****** ******
      ****** ****** ****** ****** ****** ****** ****** ****** ****** ******
   4  ****** ****** ****** ****** ****** ****** ****** ****** ****** ******
      ****** ****** ****** ****** ****** ****** ****** ****** ****** ******
      ****** ****** ****** ****** ****** ****** ****** ****** ****** ******
   5  ****** ****** ****** ****** ****** ****** ****** ****** ****** ******
      ****** ****** ****** ****** ****** ****** ****** ****** ****** ******
      ****** ****** ****** ****** ****** ****** ****** ****** ****** ******
   6  ****** ****** ****** ****** ****** ****** ****** ****** ****** ******
      ****** ****** ****** ****** ****** ****** ****** ****** ****** ******
      ****** ****** ****** ****** ****** ****** ****** ****** ****** ******
   7  ****** ****** ****** ****** ****** ****** ****** ****** ****** ******
      ****** ****** ****** ****** ****** ****** ****** ****** ****** ******
      ****** ****** ****** ****** ****** ****** ****** ****** ****** ******
   8  ****** ****** ****** ****** ****** ****** ****** ****** ****** ******
      ****** ****** ****** ****** ****** ****** ****** ****** ****** ******
      ****** ****** ****** ****** ****** ****** ****** ****** ****** ******
   9  ****** ****** ****** ****** ****** ****** ****** ****** ****** ******
      ****** ****** ****** ****** ****** ****** ****** ****** ****** ******
      ****** ****** ****** ****** ****** ****** ****** ****** ****** ******
  10  ****** ****** ****** ****** ****** ****** ****** ****** ****** ******
      ****** ****** ****** ****** ****** ****** ****** ****** ****** ******
      ****** ****** ****** ****** ****** ****** ****** ****** ****** ******
  11  ****** ****** ****** ****** ****** ****** ****** ****** ****** ******
      ****** ****** ****** ****** ****** ****** ****** ****** ****** ******
      ****** ****** ****** ****** ****** ****** ****** ****** ****** ******
  12  ****** ****** ****** ****** ****** ****** ****** ****** ****** ******
      ****** ****** ****** ****** ****** ****** ****** ****** ****** ******
      ****** ****** ****** ****** ****** ****** ****** ****** ****** ******
  13  ****** ****** ****** ****** ****** ****** ****** ****** ****** ******
      ****** ****** ****** ****** ****** ****** ****** ****** ****** ******
      ****** ****** ****** ****** ****** ****** ****** ****** ****** ******
  14  ****** ****** ****** ****** ****** ****** ****** ****** ****** ******
      ****** ****** ****** ****** ****** ****** ****** ****** ****** ******
      ****** ****** ****** ****** ****** ****** ****** ****** ****** ******
  15  ****** ****** ****** ****** ****** ****** ****** ****** ****** ******
      ****** ****** ****** ****** ****** ****** ****** ****** ****** ******
      ****** ****** ****** ****** ****** ****** ****** ****** ****** ******
  16  ****** ****** ****** ****** ****** ****** ****** ****** ****** ******
      ****** ****** ****** ****** ****** ****** ****** ****** ****** ******
      ****** ****** ****** ****** ****** ****** ****** ****** ****** ******
  17  ****** ****** ****** ****** ****** ****** ****** ****** ****** ******
      ****** ****** ****** ****** ****** ****** ****** ****** ****** ******
      ****** ****** ****** ****** ****** ****** ****** ****** ****** ******
  18  ****** ****** ****** ****** ****** ****** ****** ****** ****** ******
      ****** ****** ****** ****** ****** ****** ****** ****** ****** ******
      ****** ****** ****** ****** ****** ****** ****** ****** ****** ******
  19  ****** ****** ****** ****** ****** ****** ****** ****** ****** ******
      ****** ****** ****** ****** ****** ****** ****** ****** ****** ******
      ****** ****** ****** ****** ****** ****** ****** ****** ****** ******
  20  ****** ****** ****** ****** ****** ****** ****** ****** ****** ******
      ****** ****** ****** ****** ****** ****** ****** ****** ****** ******
      ****** ****** ****** ****** ****** ****** ****** ****** ****** ******
  21  ****** ****** ****** ****** ****** ****** ****** ****** ****** ******
      ****** ****** ****** ****** ****** ****** ****** ****** ****** ******
      ****** ****** ****** ****** ****** ****** ****** ****** ****** ******
  22  ****** ****** ****** ****** ****** ****** ****** ****** ****** ******
      ****** ****** ****** ****** ****** ****** ****** ****** ****** ******
      ****** ****** ****** ****** ****** ****** ****** ****** ****** ******
  23  ****** ****** ****** ****** ****** ****** ****** ****** ****** ******
      ****** ****** ****** ****** ****** ****** ****** ****** ****** ******
      ****** ****** ****** ****** ****** ****** ****** ****** ****** ******
  24  ****** ****** ****** ****** ****** ****** ****** ****** ****** ******
      ****** ****** ****** ****** ****** ****** ****** ****** ****** ******
      ****** ****** ****** ****** ****** ****** ****** ****** ****** ******
  25  ****** ****** ****** ****** ****** ****** ****** ****** ****** ******
      ****** ****** ****** ****** ****** ****** ****** ****** ****** ******
      ****** ****** ****** ****** ****** ****** ****** ****** ****** ******

 HEAD WILL BE SAVED ON UNIT   51 AT END OF TIME STEP    1, STRESS PERIOD    5
1
  VOLUMETRIC BUDGET FOR ENTIRE MODEL AT END OF TIME STEP    1, STRESS PERIOD   5
  ------------------------------------------------------------------------------

     CUMULATIVE VOLUMES      L**3       RATES FOR THIS TIME STEP      L**3/T
     ------------------                 ------------------------

           IN:                                      IN:
           ---                                      ---
             STORAGE =    30694887.4286               STORAGE =       18035.6236
       CONSTANT HEAD =    10385649.9324         CONSTANT HEAD =       30860.7808
               WELLS =           0.0000                 WELLS =           0.0000
            RECHARGE =    10074000.0000              RECHARGE =       13800.0000
      STREAM LEAKAGE =     4237003.8197        STREAM LEAKAGE =       13327.2754

            TOTAL IN =    55391541.1807              TOTAL IN =       76023.6798

          OUT:                                     OUT:
          ----                                     ----
             STORAGE =         539.5964               STORAGE =           0.0000
       CONSTANT HEAD =           0.0000         CONSTANT HEAD =           0.0000
               WELLS =    16279486.5431                 WELLS =       35622.5088
            RECHARGE =           0.0000              RECHARGE =           0.0000
      STREAM LEAKAGE =    39111517.3147        STREAM LEAKAGE =       40401.1741

           TOTAL OUT =    55391543.4542             TOTAL OUT =       76023.6829

            IN - OUT =          -2.2735              IN - OUT =      -3.0944E-03

 PERCENT DISCREPANCY =          -0.00     PERCENT DISCREPANCY =          -0.00






         TIME SUMMARY AT END OF TIME STEP    1 IN STRESS PERIOD    5
                    SECONDS     MINUTES      HOURS       DAYS        YEARS
                    -----------------------------------------------------------
   TIME STEP LENGTH 7.94880E+06 1.32480E+05  2208.0      92.000     0.25188    
 STRESS PERIOD TIME 7.94880E+06 1.32480E+05  2208.0      92.000     0.25188    
         TOTAL TIME 3.94848E+07 6.58080E+05  10968.      457.00      1.2512    
1
1
                            STRESS PERIOD NO.    6, LENGTH =   91.00000    
                            -----------------------------------------------

                              NUMBER OF TIME STEPS =     1

                               MULTIPLIER FOR DELT =     1.500

                            INITIAL TIME STEP SIZE =   91.00000    

 WELL NO.  LAYER   ROW   COL   STRESS RATE         
 --------------------------------------------------
      1      1     14      6       0.000    
      2      1      3      9       0.000    
      3      1     20     10       0.000    
      4      1     14     20       0.000    
      5      1     21     19      -8385.    
      6      1     13     14      -6352.    
      7      1     11     23     -0.1199E+05
      8      1     12     29      -8894.    

      8 WELLS

                 RECHARGE =  2.000000E-03

 REUSING STREAM SEGMENT DATA FROM LAST STRESS PERIOD
 
 SOLVING FOR HEAD 


     7 CALLS TO PCG ROUTINE FOR TIME STEP   1 IN STRESS PERIOD    6
    26 TOTAL ITERATIONS

 OUTPUT CONTROL FOR STRESS PERIOD    6   TIME STEP    1
    SAVE BUDGET
    SAVE HEAD FOR ALL LAYERS
    PRINT HEAD FOR ALL LAYERS
 UBDSV2 SAVING "STREAMFLOW OUT  " ON UNIT  50 AT TIME STEP  1, STRESS PERIOD   6



 STREAM LISTING     PERIOD      6   STEP        1

 LAYER ROW COL. STREAM  RCH.  FLOW INTO     FLOW TO   FLOW OUT OF   OVRLND.     DIRECT     STREAM       STREAM     STREAM     STREAM   STREAMBED  STREAMBED
                SEG.NO.  NO.  STRM. RCH.    AQUIFER    STRM. RCH.    RUNOFF     PRECIP       ET          HEAD       DEPTH      WIDTH   CONDCTNC.   GRADIENT

   1   13    1     1     1    1.0000E+05 -2.4437E+03   1.0244E+05  0.000E+00  0.000E+00  0.000E+00  4.84071E+01  1.457E-01  2.000E+01  2.000E+04 -1.222E-01
   1   13    2     1     2    1.0244E+05 -3.4936E+03   1.0594E+05  0.000E+00  0.000E+00  0.000E+00  4.79323E+01  1.483E-01  2.000E+01  2.000E+04 -1.747E-01
   1   14    3     1     3    1.0594E+05 -6.5932E+02   1.0660E+05  0.000E+00  0.000E+00  0.000E+00  4.74568E+01  1.500E-01  2.000E+01  2.000E+04 -3.297E-02
   1   15    4     1     4    1.0660E+05 -6.3411E+02   1.0723E+05  0.000E+00  0.000E+00  0.000E+00  4.69801E+01  1.506E-01  2.000E+01  2.000E+04 -3.171E-02
   1   16    5     1     5    1.0723E+05 -2.1623E+03   1.0939E+05  0.000E+00  0.000E+00  0.000E+00  4.65040E+01  1.518E-01  2.000E+01  2.000E+04 -1.081E-01
   1   16    6     1     6    1.0939E+05 -1.3496E+03   1.1074E+05  0.000E+00  0.000E+00  0.000E+00  4.60282E+01  1.532E-01  2.000E+01  2.000E+04 -6.748E-02
   1   16    7     1     7    1.1074E+05 -1.3078E+03   1.1205E+05  0.000E+00  0.000E+00  0.000E+00  4.55521E+01  1.543E-01  2.000E+01  2.000E+04 -6.539E-02
   1   16    8     1     8    1.1205E+05 -1.2807E+03   1.1333E+05  0.000E+00  0.000E+00  0.000E+00  4.50759E+01  1.554E-01  2.000E+01  2.000E+04 -6.404E-02
   1   16    9     1     9    1.1333E+05 -1.2417E+03   1.1457E+05  0.000E+00  0.000E+00  0.000E+00  4.45996E+01  1.564E-01  2.000E+01  2.000E+04 -6.208E-02
   1   16   10     1    10    1.1457E+05 -1.1851E+03   1.1576E+05  0.000E+00  0.000E+00  0.000E+00  4.41234E+01  1.574E-01  2.000E+01  2.000E+04 -5.926E-02
   1   16   11     1    11    1.1576E+05 -1.1204E+03   1.1688E+05  0.000E+00  0.000E+00  0.000E+00  4.36470E+01  1.584E-01  2.000E+01  2.000E+04 -5.602E-02
   1   16   12     1    12    1.1688E+05 -1.6899E+03   1.1857E+05  0.000E+00  0.000E+00  0.000E+00  4.31709E+01  1.595E-01  2.000E+01  2.000E+04 -8.449E-02
   1   15   13     1    13    1.1857E+05 -1.3960E+03   1.1996E+05  0.000E+00  0.000E+00  0.000E+00  4.26949E+01  1.608E-01  2.000E+01  2.000E+04 -6.980E-02
   1   14   14     1    14    1.1996E+05  5.9821E+01   1.1990E+05  0.000E+00  0.000E+00  0.000E+00  4.22181E+01  1.613E-01  2.000E+01  2.000E+04  2.991E-03
   1   13   15     1    15    1.1990E+05 -3.4742E+02   1.2025E+05  0.000E+00  0.000E+00  0.000E+00  4.17410E+01  1.614E-01  2.000E+01  2.000E+04 -1.737E-02
   1   12   16     1    16    1.2025E+05 -2.9044E+03   1.2316E+05  0.000E+00  0.000E+00  0.000E+00  4.12650E+01  1.627E-01  2.000E+01  2.000E+04 -1.452E-01
   1   12   17     1    17    1.2316E+05 -1.9969E+03   1.2515E+05  0.000E+00  0.000E+00  0.000E+00  4.07897E+01  1.647E-01  2.000E+01  2.000E+04 -9.984E-02
   1   12   18     1    18    1.2515E+05 -1.8352E+03   1.2699E+05  0.000E+00  0.000E+00  0.000E+00  4.03140E+01  1.662E-01  2.000E+01  2.000E+04 -9.176E-02
   1   12   19     1    19    1.2699E+05 -1.9805E+03   1.2897E+05  0.000E+00  0.000E+00  0.000E+00  3.98382E+01  1.677E-01  2.000E+01  2.000E+04 -9.903E-02
   1   13   20     1    20    1.2897E+05 -1.1230E+03   1.3009E+05  0.000E+00  0.000E+00  0.000E+00  3.93621E+01  1.689E-01  2.000E+01  2.000E+04 -5.615E-02
   1   14   21     1    21    1.3009E+05 -9.9818E+02   1.3109E+05  0.000E+00  0.000E+00  0.000E+00  3.88857E+01  1.698E-01  2.000E+01  2.000E+04 -4.991E-02
   1   14   22     1    22    1.3109E+05  5.2033E+03   1.2589E+05  0.000E+00  0.000E+00  0.000E+00  3.84068E+01  1.681E-01  2.000E+01  2.000E+04  2.602E-01
   1    9   30     2     1    5.0000E+04  3.9124E+02   4.9609E+04  0.000E+00  0.000E+00  0.000E+00  4.02406E+01  1.156E-01  2.000E+01  2.000E+04  1.956E-02
   1    9   29     2     2    4.9609E+04  6.3450E+01   4.9545E+04  0.000E+00  0.000E+00  0.000E+00  3.99903E+01  1.153E-01  2.000E+01  2.000E+04  3.172E-03
   1    9   28     2     3    4.9545E+04 -4.7763E+02   5.0023E+04  0.000E+00  0.000E+00  0.000E+00  3.97406E+01  1.156E-01  2.000E+01  2.000E+04 -2.388E-02
   1    9   27     2     4    5.0023E+04 -1.9896E+03   5.2013E+04  0.000E+00  0.000E+00  0.000E+00  3.94923E+01  1.173E-01  2.000E+01  2.000E+04 -9.948E-02
   1   10   26     2     5    5.2013E+04 -3.5731E+02   5.2370E+04  0.000E+00  0.000E+00  0.000E+00  3.92439E+01  1.189E-01  2.000E+01  2.000E+04 -1.787E-02
   1   11   25     2     6    5.2370E+04  9.9504E+02   5.1375E+04  0.000E+00  0.000E+00  0.000E+00  3.89934E+01  1.184E-01  2.000E+01  2.000E+04  4.975E-02
   1   12   24     2     7    5.1375E+04  2.0094E+03   4.9365E+04  0.000E+00  0.000E+00  0.000E+00  3.87414E+01  1.164E-01  2.000E+01  2.000E+04  1.005E-01
   1   13   23     2     8    4.9365E+04  1.3650E+02   4.9229E+04  0.000E+00  0.000E+00  0.000E+00  3.84899E+01  1.149E-01  2.000E+01  2.000E+04  6.825E-03
   1   14   22     2     9    4.9229E+04  1.8380E+03   4.7391E+04  0.000E+00  0.000E+00  0.000E+00  3.82385E+01  1.135E-01  2.000E+01  2.000E+04  9.190E-02
   1   14   22     3     1    1.7328E+05 -8.4337E+03   1.8171E+05  0.000E+00  0.000E+00  0.000E+00  3.77249E+01  1.694E-01  2.000E+01  2.000E+04 -4.217E-01
   1   15   23     3     2    1.8171E+05 -5.2208E+02   1.8223E+05  0.000E+00  0.000E+00  0.000E+00  3.68386E+01  1.719E-01  2.000E+01  2.000E+04 -2.610E-02
   1   15   24     3     3    1.8223E+05 -3.3388E+02   1.8257E+05  0.000E+00  0.000E+00  0.000E+00  3.59499E+01  1.722E-01  2.000E+01  2.000E+04 -1.669E-02
   1   15   25     3     4    1.8257E+05 -3.2352E+02   1.8289E+05  0.000E+00  0.000E+00  0.000E+00  3.50612E+01  1.723E-01  2.000E+01  2.000E+04 -1.618E-02
   1   15   26     3     5    1.8289E+05 -2.7153E+02   1.8316E+05  0.000E+00  0.000E+00  0.000E+00  3.41725E+01  1.725E-01  2.000E+01  2.000E+04 -1.358E-02
   1   16   27     3     6    1.8316E+05 -2.3183E+02   1.8339E+05  0.000E+00  0.000E+00  0.000E+00  3.32838E+01  1.726E-01  2.000E+01  2.000E+04 -1.159E-02
   1   17   28     3     7    1.8339E+05 -6.5959E+02   1.8405E+05  0.000E+00  0.000E+00  0.000E+00  3.23951E+01  1.729E-01  2.000E+01  2.000E+04 -3.298E-02
   1   18   29     3     8    1.8405E+05 -2.6363E+03   1.8669E+05  0.000E+00  0.000E+00  0.000E+00  3.15072E+01  1.738E-01  2.000E+01  2.000E+04 -1.318E-01
   1   18   30     3     9    1.8669E+05 -2.8346E+03   1.8952E+05  0.000E+00  0.000E+00  0.000E+00  3.06198E+01  1.754E-01  2.000E+01  2.000E+04 -1.417E-01



1
              HEAD IN LAYER   1 AT END OF TIME STEP   1 IN STRESS PERIOD    6
  ---------------------------------------------------------------------------

          1      2      3      4      5      6      7      8      9     10
         11     12     13     14     15     16     17     18     19     20
         21     22     23     24     25     26     27     28     29     30
 .........................................................................
   1  ****** ****** ****** ****** ****** ****** ****** ****** ****** ******
      ****** ****** ****** ****** ****** ****** ****** ****** ****** ******
      ****** ****** ****** ****** ****** ****** ****** ****** ****** ******
   2  ****** ****** ****** ****** ****** ****** ****** ****** ****** ******
      ****** ****** ****** ****** ****** ****** ****** ****** ****** ******
      ****** ****** ****** ****** ****** ****** ****** ****** ****** ******
   3  ****** ****** ****** ****** ****** ****** ****** ****** ****** ******
      ****** ****** ****** ****** ****** ****** ****** ****** ****** ******
      ****** ****** ****** ****** ****** ****** ****** ****** ****** ******
   4  ****** ****** ****** ****** ****** ****** ****** ****** ****** ******
      ****** ****** ****** ****** ****** ****** ****** ****** ****** ******
      ****** ****** ****** ****** ****** ****** ****** ****** ****** ******
   5  ****** ****** ****** ****** ****** ****** ****** ****** ****** ******
      ****** ****** ****** ****** ****** ****** ****** ****** ****** ******
      ****** ****** ****** ****** ****** ****** ****** ****** ****** ******
   6  ****** ****** ****** ****** ****** ****** ****** ****** ****** ******
      ****** ****** ****** ****** ****** ****** ****** ****** ****** ******
      ****** ****** ****** ****** ****** ****** ****** ****** ****** ******
   7  ****** ****** ****** ****** ****** ****** ****** ****** ****** ******
      ****** ****** ****** ****** ****** ****** ****** ****** ****** ******
      ****** ****** ****** ****** ****** ****** ****** ****** ****** ******
   8  ****** ****** ****** ****** ****** ****** ****** ****** ****** ******
      ****** ****** ****** ****** ****** ****** ****** ****** ****** ******
      ****** ****** ****** ****** ****** ****** ****** ****** ****** ******
   9  ****** ****** ****** ****** ****** ****** ****** ****** ****** ******
      ****** ****** ****** ****** ****** ****** ****** ****** ****** ******
      ****** ****** ****** ****** ****** ****** ****** ****** ****** ******
  10  ****** ****** ****** ****** ****** ****** ****** ****** ****** ******
      ****** ****** ****** ****** ****** ****** ****** ****** ****** ******
      ****** ****** ****** ****** ****** ****** ****** ****** ****** ******
  11  ****** ****** ****** ****** ****** ****** ****** ****** ****** ******
      ****** ****** ****** ****** ****** ****** ****** ****** ****** ******
      ****** ****** ****** ****** ****** ****** ****** ****** ****** ******
  12  ****** ****** ****** ****** ****** ****** ****** ****** ****** ******
      ****** ****** ****** ****** ****** ****** ****** ****** ****** ******
      ****** ****** ****** ****** ****** ****** ****** ****** ****** ******
  13  ****** ****** ****** ****** ****** ****** ****** ****** ****** ******
      ****** ****** ****** ****** ****** ****** ****** ****** ****** ******
      ****** ****** ****** ****** ****** ****** ****** ****** ****** ******
  14  ****** ****** ****** ****** ****** ****** ****** ****** ****** ******
      ****** ****** ****** ****** ****** ****** ****** ****** ****** ******
      ****** ****** ****** ****** ****** ****** ****** ****** ****** ******
  15  ****** ****** ****** ****** ****** ****** ****** ****** ****** ******
      ****** ****** ****** ****** ****** ****** ****** ****** ****** ******
      ****** ****** ****** ****** ****** ****** ****** ****** ****** ******
  16  ****** ****** ****** ****** ****** ****** ****** ****** ****** ******
      ****** ****** ****** ****** ****** ****** ****** ****** ****** ******
      ****** ****** ****** ****** ****** ****** ****** ****** ****** ******
  17  ****** ****** ****** ****** ****** ****** ****** ****** ****** ******
      ****** ****** ****** ****** ****** ****** ****** ****** ****** ******
      ****** ****** ****** ****** ****** ****** ****** ****** ****** ******
  18  ****** ****** ****** ****** ****** ****** ****** ****** ****** ******
      ****** ****** ****** ****** ****** ****** ****** ****** ****** ******
      ****** ****** ****** ****** ****** ****** ****** ****** ****** ******
  19  ****** ****** ****** ****** ****** ****** ****** ****** ****** ******
      ****** ****** ****** ****** ****** ****** ****** ****** ****** ******
      ****** ****** ****** ****** ****** ****** ****** ****** ****** ******
  20  ****** ****** ****** ****** ****** ****** ****** ****** ****** ******
      ****** ****** ****** ****** ****** ****** ****** ****** ****** ******
      ****** ****** ****** ****** ****** ****** ****** ****** ****** ******
  21  ****** ****** ****** ****** ****** ****** ****** ****** ****** ******
      ****** ****** ****** ****** ****** ****** ****** ****** ****** ******
      ****** ****** ****** ****** ****** ****** ****** ****** ****** ******
  22  ****** ****** ****** ****** ****** ****** ****** ****** ****** ******
      ****** ****** ****** ****** ****** ****** ****** ****** ****** ******
      ****** ****** ****** ****** ****** ****** ****** ****** ****** ******
  23  ****** ****** ****** ****** ****** ****** ****** ****** ****** ******
      ****** ****** ****** ****** ****** ****** ****** ****** ****** ******
      ****** ****** ****** ****** ****** ****** ****** ****** ****** ******
  24  ****** ****** ****** ****** ****** ****** ****** ****** ****** ******
      ****** ****** ****** ****** ****** ****** ****** ****** ****** ******
      ****** ****** ****** ****** ****** ****** ****** ****** ****** ******
  25  ****** ****** ****** ****** ****** ****** ****** ****** ****** ******
      ****** ****** ****** ****** ****** ****** ****** ****** ****** ******
      ****** ****** ****** ****** ****** ****** ****** ****** ****** ******

 HEAD WILL BE SAVED ON UNIT   51 AT END OF TIME STEP    1, STRESS PERIOD    6
1
  VOLUMETRIC BUDGET FOR ENTIRE MODEL AT END OF TIME STEP    1, STRESS PERIOD   6
  ------------------------------------------------------------------------------

     CUMULATIVE VOLUMES      L**3       RATES FOR THIS TIME STEP      L**3/T
     ------------------                 ------------------------

           IN:                                      IN:
           ---                                      ---
             STORAGE =    30694887.4286               STORAGE =           0.0000
       CONSTANT HEAD =    13018629.8660         CONSTANT HEAD =       28933.8454
               WELLS =           0.0000                 WELLS =           0.0000
            RECHARGE =    15097200.0000              RECHARGE =       55200.0000
      STREAM LEAKAGE =     5210408.6275        STREAM LEAKAGE =       10696.7561

            TOTAL IN =    64021125.9221              TOTAL IN =       94830.6016

          OUT:                                     OUT:
          ----                                     ----
             STORAGE =      818328.7402               STORAGE =        8986.6939
       CONSTANT HEAD =           0.0000         CONSTANT HEAD =           0.0000
               WELLS =    19521134.8481                 WELLS =       35622.5088
            RECHARGE =           0.0000              RECHARGE =           0.0000
      STREAM LEAKAGE =    43681664.3422        STREAM LEAKAGE =       50221.3959

           TOTAL OUT =    64021127.9305             TOTAL OUT =       94830.5986

            IN - OUT =          -2.0085              IN - OUT =       2.9118E-03

 PERCENT DISCREPANCY =          -0.00     PERCENT DISCREPANCY =           0.00






         TIME SUMMARY AT END OF TIME STEP    1 IN STRESS PERIOD    6
                    SECONDS     MINUTES      HOURS       DAYS        YEARS
                    -----------------------------------------------------------
   TIME STEP LENGTH 7.86240E+06 1.31040E+05  2184.0      91.000     0.24914    
 STRESS PERIOD TIME 7.86240E+06 1.31040E+05  2184.0      91.000     0.24914    
         TOTAL TIME 4.73472E+07 7.89120E+05  13152.      548.00      1.5003    
1
1
                            STRESS PERIOD NO.    7, LENGTH =   91.00000    
                            -----------------------------------------------

                              NUMBER OF TIME STEPS =     1

                               MULTIPLIER FOR DELT =     1.500

                            INITIAL TIME STEP SIZE =   91.00000    

 WELL NO.  LAYER   ROW   COL   STRESS RATE         
 --------------------------------------------------
      1      1     14      6       0.000    
      2      1      3      9       0.000    
      3      1     20     10       0.000    
      4      1     14     20       0.000    
      5      1     21     19      -8385.    
      6      1     13     14      -6352.    
      7      1     11     23     -0.1199E+05
      8      1     12     29      -8894.    

      8 WELLS

                 RECHARGE =   0.00000    

 REUSING STREAM SEGMENT DATA FROM LAST STRESS PERIOD
 
 SOLVING FOR HEAD 


     7 CALLS TO PCG ROUTINE FOR TIME STEP   1 IN STRESS PERIOD    7
    26 TOTAL ITERATIONS

 OUTPUT CONTROL FOR STRESS PERIOD    7   TIME STEP    1
    SAVE BUDGET
    SAVE HEAD FOR ALL LAYERS
    PRINT HEAD FOR ALL LAYERS
 UBDSV2 SAVING "STREAMFLOW OUT  " ON UNIT  50 AT TIME STEP  1, STRESS PERIOD   7



 STREAM LISTING     PERIOD      7   STEP        1

 LAYER ROW COL. STREAM  RCH.  FLOW INTO     FLOW TO   FLOW OUT OF   OVRLND.     DIRECT     STREAM       STREAM     STREAM     STREAM   STREAMBED  STREAMBED
                SEG.NO.  NO.  STRM. RCH.    AQUIFER    STRM. RCH.    RUNOFF     PRECIP       ET          HEAD       DEPTH      WIDTH   CONDCTNC.   GRADIENT

   1   13    1     1     1    1.0000E+05 -1.7828E+03   1.0178E+05  0.000E+00  0.000E+00  0.000E+00  4.84068E+01  1.454E-01  2.000E+01  2.000E+04 -8.914E-02
   1   13    2     1     2    1.0178E+05 -2.7543E+03   1.0454E+05  0.000E+00  0.000E+00  0.000E+00  4.79315E+01  1.474E-01  2.000E+01  2.000E+04 -1.377E-01
   1   14    3     1     3    1.0454E+05 -4.0805E+02   1.0495E+05  0.000E+00  0.000E+00  0.000E+00  4.74555E+01  1.487E-01  2.000E+01  2.000E+04 -2.040E-02
   1   15    4     1     4    1.0495E+05 -3.7181E+02   1.0532E+05  0.000E+00  0.000E+00  0.000E+00  4.69786E+01  1.491E-01  2.000E+01  2.000E+04 -1.859E-02
   1   16    5     1     5    1.0532E+05 -1.4077E+03   1.0672E+05  0.000E+00  0.000E+00  0.000E+00  4.65021E+01  1.498E-01  2.000E+01  2.000E+04 -7.039E-02
   1   16    6     1     6    1.0672E+05 -8.9476E+02   1.0762E+05  0.000E+00  0.000E+00  0.000E+00  4.60258E+01  1.508E-01  2.000E+01  2.000E+04 -4.474E-02
   1   16    7     1     7    1.0762E+05 -8.7134E+02   1.0849E+05  0.000E+00  0.000E+00  0.000E+00  4.55493E+01  1.515E-01  2.000E+01  2.000E+04 -4.357E-02
   1   16    8     1     8    1.0849E+05 -8.5002E+02   1.0934E+05  0.000E+00  0.000E+00  0.000E+00  4.50727E+01  1.523E-01  2.000E+01  2.000E+04 -4.250E-02
   1   16    9     1     9    1.0934E+05 -8.1388E+02   1.1015E+05  0.000E+00  0.000E+00  0.000E+00  4.45961E+01  1.530E-01  2.000E+01  2.000E+04 -4.069E-02
   1   16   10     1    10    1.1015E+05 -7.5945E+02   1.1091E+05  0.000E+00  0.000E+00  0.000E+00  4.41195E+01  1.536E-01  2.000E+01  2.000E+04 -3.797E-02
   1   16   11     1    11    1.1091E+05 -6.9298E+02   1.1161E+05  0.000E+00  0.000E+00  0.000E+00  4.36429E+01  1.542E-01  2.000E+01  2.000E+04 -3.465E-02
   1   16   12     1    12    1.1161E+05 -9.7107E+02   1.1258E+05  0.000E+00  0.000E+00  0.000E+00  4.31663E+01  1.549E-01  2.000E+01  2.000E+04 -4.855E-02
   1   15   13     1    13    1.1258E+05 -6.2770E+02   1.1321E+05  0.000E+00  0.000E+00  0.000E+00  4.26897E+01  1.556E-01  2.000E+01  2.000E+04 -3.138E-02
   1   14   14     1    14    1.1321E+05  8.5413E+02   1.1235E+05  0.000E+00  0.000E+00  0.000E+00  4.22123E+01  1.555E-01  2.000E+01  2.000E+04  4.271E-02
   1   13   15     1    15    1.1235E+05  4.4713E+02   1.1190E+05  0.000E+00  0.000E+00  0.000E+00  4.17345E+01  1.549E-01  2.000E+01  2.000E+04  2.236E-02
   1   12   16     1    16    1.1190E+05 -2.1192E+03   1.1402E+05  0.000E+00  0.000E+00  0.000E+00  4.12579E+01  1.556E-01  2.000E+01  2.000E+04 -1.060E-01
   1   12   17     1    17    1.1402E+05 -1.4238E+03   1.1545E+05  0.000E+00  0.000E+00  0.000E+00  4.07821E+01  1.571E-01  2.000E+01  2.000E+04 -7.119E-02
   1   12   18     1    18    1.1545E+05 -1.2755E+03   1.1672E+05  0.000E+00  0.000E+00  0.000E+00  4.03059E+01  1.582E-01  2.000E+01  2.000E+04 -6.378E-02
   1   12   19     1    19    1.1672E+05 -1.2973E+03   1.1802E+05  0.000E+00  0.000E+00  0.000E+00  3.98297E+01  1.592E-01  2.000E+01  2.000E+04 -6.486E-02
   1   13   20     1    20    1.1802E+05 -4.5337E+02   1.1847E+05  0.000E+00  0.000E+00  0.000E+00  3.93531E+01  1.600E-01  2.000E+01  2.000E+04 -2.267E-02
   1   14   21     1    21    1.1847E+05 -3.3355E+02   1.1881E+05  0.000E+00  0.000E+00  0.000E+00  3.88762E+01  1.603E-01  2.000E+01  2.000E+04 -1.668E-02
   1   14   22     1    22    1.1881E+05  5.3658E+03   1.1344E+05  0.000E+00  0.000E+00  0.000E+00  3.83969E+01  1.582E-01  2.000E+01  2.000E+04  2.683E-01
   1    9   30     2     1    5.0000E+04  9.0376E+02   4.9096E+04  0.000E+00  0.000E+00  0.000E+00  4.02402E+01  1.152E-01  2.000E+01  2.000E+04  4.519E-02
   1    9   29     2     2    4.9096E+04  5.7409E+02   4.8522E+04  0.000E+00  0.000E+00  0.000E+00  3.99892E+01  1.142E-01  2.000E+01  2.000E+04  2.870E-02
   1    9   28     2     3    4.8522E+04  3.4113E+01   4.8488E+04  0.000E+00  0.000E+00  0.000E+00  3.97388E+01  1.138E-01  2.000E+01  2.000E+04  1.706E-03
   1    9   27     2     4    4.8488E+04 -1.2953E+03   4.9783E+04  0.000E+00  0.000E+00  0.000E+00  3.94897E+01  1.147E-01  2.000E+01  2.000E+04 -6.477E-02
   1   10   26     2     5    4.9783E+04  3.3937E+02   4.9444E+04  0.000E+00  0.000E+00  0.000E+00  3.92403E+01  1.153E-01  2.000E+01  2.000E+04  1.697E-02
   1   11   25     2     6    4.9444E+04  1.6632E+03   4.7781E+04  0.000E+00  0.000E+00  0.000E+00  3.89889E+01  1.139E-01  2.000E+01  2.000E+04  8.316E-02
   1   12   24     2     7    4.7781E+04  2.6183E+03   4.5163E+04  0.000E+00  0.000E+00  0.000E+00  3.87359E+01  1.109E-01  2.000E+01  2.000E+04  1.309E-01
   1   13   23     2     8    4.5163E+04  3.2793E+02   4.4835E+04  0.000E+00  0.000E+00  0.000E+00  3.84838E+01  1.088E-01  2.000E+01  2.000E+04  1.640E-02
   1   14   22     2     9    4.4835E+04  2.0689E+03   4.2766E+04  0.000E+00  0.000E+00  0.000E+00  3.82320E+01  1.070E-01  2.000E+01  2.000E+04  1.034E-01
   1   14   22     3     1    1.5621E+05 -8.2735E+03   1.6448E+05  0.000E+00  0.000E+00  0.000E+00  3.77149E+01  1.593E-01  2.000E+01  2.000E+04 -4.137E-01
   1   15   23     3     2    1.6448E+05 -3.1476E+02   1.6480E+05  0.000E+00  0.000E+00  0.000E+00  3.68286E+01  1.619E-01  2.000E+01  2.000E+04 -1.574E-02
   1   15   24     3     3    1.6480E+05 -1.5976E+02   1.6496E+05  0.000E+00  0.000E+00  0.000E+00  3.59398E+01  1.620E-01  2.000E+01  2.000E+04 -7.988E-03
   1   15   25     3     4    1.6496E+05 -1.4639E+02   1.6510E+05  0.000E+00  0.000E+00  0.000E+00  3.50510E+01  1.621E-01  2.000E+01  2.000E+04 -7.320E-03
   1   15   26     3     5    1.6510E+05 -7.0038E+01   1.6517E+05  0.000E+00  0.000E+00  0.000E+00  3.41622E+01  1.622E-01  2.000E+01  2.000E+04 -3.502E-03
   1   16   27     3     6    1.6517E+05  1.0039E+00   1.6517E+05  0.000E+00  0.000E+00  0.000E+00  3.32733E+01  1.622E-01  2.000E+01  2.000E+04  5.019E-05
   1   17   28     3     7    1.6517E+05 -1.6305E+01   1.6519E+05  0.000E+00  0.000E+00  0.000E+00  3.23844E+01  1.622E-01  2.000E+01  2.000E+04 -8.153E-04
   1   18   29     3     8    1.6519E+05 -1.9464E+03   1.6713E+05  0.000E+00  0.000E+00  0.000E+00  3.14961E+01  1.628E-01  2.000E+01  2.000E+04 -9.732E-02
   1   18   30     3     9    1.6713E+05 -2.3038E+03   1.6944E+05  0.000E+00  0.000E+00  0.000E+00  3.06085E+01  1.640E-01  2.000E+01  2.000E+04 -1.152E-01



1
              HEAD IN LAYER   1 AT END OF TIME STEP   1 IN STRESS PERIOD    7
  ---------------------------------------------------------------------------

          1      2      3      4      5      6      7      8      9     10
         11     12     13     14     15     16     17     18     19     20
         21     22     23     24     25     26     27     28     29     30
 .........................................................................
   1  ****** ****** ****** ****** ****** ****** ****** ****** ****** ******
      ****** ****** ****** ****** ****** ****** ****** ****** ****** ******
      ****** ****** ****** ****** ****** ****** ****** ****** ****** ******
   2  ****** ****** ****** ****** ****** ****** ****** ****** ****** ******
      ****** ****** ****** ****** ****** ****** ****** ****** ****** ******
      ****** ****** ****** ****** ****** ****** ****** ****** ****** ******
   3  ****** ****** ****** ****** ****** ****** ****** ****** ****** ******
      ****** ****** ****** ****** ****** ****** ****** ****** ****** ******
      ****** ****** ****** ****** ****** ****** ****** ****** ****** ******
   4  ****** ****** ****** ****** ****** ****** ****** ****** ****** ******
      ****** ****** ****** ****** ****** ****** ****** ****** ****** ******
      ****** ****** ****** ****** ****** ****** ****** ****** ****** ******
   5  ****** ****** ****** ****** ****** ****** ****** ****** ****** ******
      ****** ****** ****** ****** ****** ****** ****** ****** ****** ******
      ****** ****** ****** ****** ****** ****** ****** ****** ****** ******
   6  ****** ****** ****** ****** ****** ****** ****** ****** ****** ******
      ****** ****** ****** ****** ****** ****** ****** ****** ****** ******
      ****** ****** ****** ****** ****** ****** ****** ****** ****** ******
   7  ****** ****** ****** ****** ****** ****** ****** ****** ****** ******
      ****** ****** ****** ****** ****** ****** ****** ****** ****** ******
      ****** ****** ****** ****** ****** ****** ****** ****** ****** ******
   8  ****** ****** ****** ****** ****** ****** ****** ****** ****** ******
      ****** ****** ****** ****** ****** ****** ****** ****** ****** ******
      ****** ****** ****** ****** ****** ****** ****** ****** ****** ******
   9  ****** ****** ****** ****** ****** ****** ****** ****** ****** ******
      ****** ****** ****** ****** ****** ****** ****** ****** ****** ******
      ****** ****** ****** ****** ****** ****** ****** ****** ****** ******
  10  ****** ****** ****** ****** ****** ****** ****** ****** ****** ******
      ****** ****** ****** ****** ****** ****** ****** ****** ****** ******
      ****** ****** ****** ****** ****** ****** ****** ****** ****** ******
  11  ****** ****** ****** ****** ****** ****** ****** ****** ****** ******
      ****** ****** ****** ****** ****** ****** ****** ****** ****** ******
      ****** ****** ****** ****** ****** ****** ****** ****** ****** ******
  12  ****** ****** ****** ****** ****** ****** ****** ****** ****** ******
      ****** ****** ****** ****** ****** ****** ****** ****** ****** ******
      ****** ****** ****** ****** ****** ****** ****** ****** ****** ******
  13  ****** ****** ****** ****** ****** ****** ****** ****** ****** ******
      ****** ****** ****** ****** ****** ****** ****** ****** ****** ******
      ****** ****** ****** ****** ****** ****** ****** ****** ****** ******
  14  ****** ****** ****** ****** ****** ****** ****** ****** ****** ******
      ****** ****** ****** ****** ****** ****** ****** ****** ****** ******
      ****** ****** ****** ****** ****** ****** ****** ****** ****** ******
  15  ****** ****** ****** ****** ****** ****** ****** ****** ****** ******
      ****** ****** ****** ****** ****** ****** ****** ****** ****** ******
      ****** ****** ****** ****** ****** ****** ****** ****** ****** ******
  16  ****** ****** ****** ****** ****** ****** ****** ****** ****** ******
      ****** ****** ****** ****** ****** ****** ****** ****** ****** ******
      ****** ****** ****** ****** ****** ****** ****** ****** ****** ******
  17  ****** ****** ****** ****** ****** ****** ****** ****** ****** ******
      ****** ****** ****** ****** ****** ****** ****** ****** ****** ******
      ****** ****** ****** ****** ****** ****** ****** ****** ****** ******
  18  ****** ****** ****** ****** ****** ****** ****** ****** ****** ******
      ****** ****** ****** ****** ****** ****** ****** ****** ****** ******
      ****** ****** ****** ****** ****** ****** ****** ****** ****** ******
  19  ****** ****** ****** ****** ****** ****** ****** ****** ****** ******
      ****** ****** ****** ****** ****** ****** ****** ****** ****** ******
      ****** ****** ****** ****** ****** ****** ****** ****** ****** ******
  20  ****** ****** ****** ****** ****** ****** ****** ****** ****** ******
      ****** ****** ****** ****** ****** ****** ****** ****** ****** ******
      ****** ****** ****** ****** ****** ****** ****** ****** ****** ******
  21  ****** ****** ****** ****** ****** ****** ****** ****** ****** ******
      ****** ****** ****** ****** ****** ****** ****** ****** ****** ******
      ****** ****** ****** ****** ****** ****** ****** ****** ****** ******
  22  ****** ****** ****** ****** ****** ****** ****** ****** ****** ******
      ****** ****** ****** ****** ****** ****** ****** ****** ****** ******
      ****** ****** ****** ****** ****** ****** ****** ****** ****** ******
  23  ****** ****** ****** ****** ****** ****** ****** ****** ****** ******
      ****** ****** ****** ****** ****** ****** ****** ****** ****** ******
      ****** ****** ****** ****** ****** ****** ****** ****** ****** ******
  24  ****** ****** ****** ****** ****** ****** ****** ****** ****** ******
      ****** ****** ****** ****** ****** ****** ****** ****** ****** ******
      ****** ****** ****** ****** ****** ****** ****** ****** ****** ******
  25  ****** ****** ****** ****** ****** ****** ****** ****** ****** ******
      ****** ****** ****** ****** ****** ****** ****** ****** ****** ******
      ****** ****** ****** ****** ****** ****** ****** ****** ****** ******

 HEAD WILL BE SAVED ON UNIT   51 AT END OF TIME STEP    1, STRESS PERIOD    7
1
  VOLUMETRIC BUDGET FOR ENTIRE MODEL AT END OF TIME STEP    1, STRESS PERIOD   7
  ------------------------------------------------------------------------------

     CUMULATIVE VOLUMES      L**3       RATES FOR THIS TIME STEP      L**3/T
     ------------------                 ------------------------

           IN:                                      IN:
           ---                                      ---
             STORAGE =    32716453.3034               STORAGE =       22215.0096
       CONSTANT HEAD =    16007507.9747         CONSTANT HEAD =       32844.8144
               WELLS =           0.0000                 WELLS =           0.0000
            RECHARGE =    15097200.0000              RECHARGE =           0.0000
      STREAM LEAKAGE =     6593399.2541        STREAM LEAKAGE =       15197.6992

            TOTAL IN =    70414560.5322              TOTAL IN =       70257.5232

          OUT:                                     OUT:
          ----                                     ----
             STORAGE =      818328.7402               STORAGE =           0.0000
       CONSTANT HEAD =           0.0000         CONSTANT HEAD =           0.0000
               WELLS =    22762783.1532                 WELLS =       35622.5088
            RECHARGE =           0.0000              RECHARGE =           0.0000
      STREAM LEAKAGE =    46833451.1481        STREAM LEAKAGE =       34635.0198

           TOTAL OUT =    70414563.0416             TOTAL OUT =       70257.5287

            IN - OUT =          -2.5094              IN - OUT =      -5.5043E-03

 PERCENT DISCREPANCY =          -0.00     PERCENT DISCREPANCY =          -0.00






         TIME SUMMARY AT END OF TIME STEP    1 IN STRESS PERIOD    7
                    SECONDS     MINUTES      HOURS       DAYS        YEARS
                    -----------------------------------------------------------
   TIME STEP LENGTH 7.86240E+06 1.31040E+05  2184.0      91.000     0.24914    
 STRESS PERIOD TIME 7.86240E+06 1.31040E+05  2184.0      91.000     0.24914    
         TOTAL TIME 5.52096E+07 9.20160E+05  15336.      639.00      1.7495    
1
1
                            STRESS PERIOD NO.    8, LENGTH =   91.00000    
                            -----------------------------------------------

                              NUMBER OF TIME STEPS =     1

                               MULTIPLIER FOR DELT =     1.500

                            INITIAL TIME STEP SIZE =   91.00000    

 WELL NO.  LAYER   ROW   COL   STRESS RATE         
 --------------------------------------------------
      1      1     14      6       0.000    
      2      1      3      9       0.000    
      3      1     20     10       0.000    
      4      1     14     20       0.000    
      5      1     21     19      -8385.    
      6      1     13     14      -6352.    
      7      1     11     23     -0.1199E+05
      8      1     12     29      -8894.    

      8 WELLS

                 RECHARGE =  1.000000E-03

 REUSING STREAM SEGMENT DATA FROM LAST STRESS PERIOD
 
 SOLVING FOR HEAD 


     6 CALLS TO PCG ROUTINE FOR TIME STEP   1 IN STRESS PERIOD    8
    22 TOTAL ITERATIONS

 OUTPUT CONTROL FOR STRESS PERIOD    8   TIME STEP    1
    SAVE BUDGET
    SAVE HEAD FOR ALL LAYERS
    PRINT HEAD FOR ALL LAYERS
 UBDSV2 SAVING "STREAMFLOW OUT  " ON UNIT  50 AT TIME STEP  1, STRESS PERIOD   8



 STREAM LISTING     PERIOD      8   STEP        1

 LAYER ROW COL. STREAM  RCH.  FLOW INTO     FLOW TO   FLOW OUT OF   OVRLND.     DIRECT     STREAM       STREAM     STREAM     STREAM   STREAMBED  STREAMBED
                SEG.NO.  NO.  STRM. RCH.    AQUIFER    STRM. RCH.    RUNOFF     PRECIP       ET          HEAD       DEPTH      WIDTH   CONDCTNC.   GRADIENT

   1   13    1     1     1    1.0000E+05 -1.8604E+03   1.0186E+05  0.000E+00  0.000E+00  0.000E+00  4.84068E+01  1.455E-01  2.000E+01  2.000E+04 -9.302E-02
   1   13    2     1     2    1.0186E+05 -2.8321E+03   1.0469E+05  0.000E+00  0.000E+00  0.000E+00  4.79316E+01  1.475E-01  2.000E+01  2.000E+04 -1.416E-01
   1   14    3     1     3    1.0469E+05 -4.7266E+02   1.0517E+05  0.000E+00  0.000E+00  0.000E+00  4.74557E+01  1.489E-01  2.000E+01  2.000E+04 -2.363E-02
   1   15    4     1     4    1.0517E+05 -4.4087E+02   1.0561E+05  0.000E+00  0.000E+00  0.000E+00  4.69788E+01  1.493E-01  2.000E+01  2.000E+04 -2.204E-02
   1   16    5     1     5    1.0561E+05 -1.5810E+03   1.0719E+05  0.000E+00  0.000E+00  0.000E+00  4.65024E+01  1.501E-01  2.000E+01  2.000E+04 -7.905E-02
   1   16    6     1     6    1.0719E+05 -1.0016E+03   1.0819E+05  0.000E+00  0.000E+00  0.000E+00  4.60262E+01  1.512E-01  2.000E+01  2.000E+04 -5.008E-02
   1   16    7     1     7    1.0819E+05 -9.7318E+02   1.0916E+05  0.000E+00  0.000E+00  0.000E+00  4.55498E+01  1.521E-01  2.000E+01  2.000E+04 -4.866E-02
   1   16    8     1     8    1.0916E+05 -9.5096E+02   1.1011E+05  0.000E+00  0.000E+00  0.000E+00  4.50733E+01  1.529E-01  2.000E+01  2.000E+04 -4.755E-02
   1   16    9     1     9    1.1011E+05 -9.1586E+02   1.1103E+05  0.000E+00  0.000E+00  0.000E+00  4.45968E+01  1.536E-01  2.000E+01  2.000E+04 -4.579E-02
   1   16   10     1    10    1.1103E+05 -8.6376E+02   1.1189E+05  0.000E+00  0.000E+00  0.000E+00  4.41203E+01  1.544E-01  2.000E+01  2.000E+04 -4.319E-02
   1   16   11     1    11    1.1189E+05 -8.0007E+02   1.1269E+05  0.000E+00  0.000E+00  0.000E+00  4.36437E+01  1.551E-01  2.000E+01  2.000E+04 -4.000E-02
   1   16   12     1    12    1.1269E+05 -1.1310E+03   1.1382E+05  0.000E+00  0.000E+00  0.000E+00  4.31672E+01  1.559E-01  2.000E+01  2.000E+04 -5.655E-02
   1   15   13     1    13    1.1382E+05 -7.9583E+02   1.1462E+05  0.000E+00  0.000E+00  0.000E+00  4.26908E+01  1.567E-01  2.000E+01  2.000E+04 -3.979E-02
   1   14   14     1    14    1.1462E+05  6.9216E+02   1.1393E+05  0.000E+00  0.000E+00  0.000E+00  4.22135E+01  1.567E-01  2.000E+01  2.000E+04  3.461E-02
   1   13   15     1    15    1.1393E+05  2.9726E+02   1.1363E+05  0.000E+00  0.000E+00  0.000E+00  4.17358E+01  1.563E-01  2.000E+01  2.000E+04  1.486E-02
   1   12   16     1    16    1.1363E+05 -2.2324E+03   1.1586E+05  0.000E+00  0.000E+00  0.000E+00  4.12594E+01  1.571E-01  2.000E+01  2.000E+04 -1.116E-01
   1   12   17     1    17    1.1586E+05 -1.5358E+03   1.1740E+05  0.000E+00  0.000E+00  0.000E+00  4.07836E+01  1.586E-01  2.000E+01  2.000E+04 -7.679E-02
   1   12   18     1    18    1.1740E+05 -1.3940E+03   1.1879E+05  0.000E+00  0.000E+00  0.000E+00  4.03076E+01  1.598E-01  2.000E+01  2.000E+04 -6.970E-02
   1   12   19     1    19    1.1879E+05 -1.4469E+03   1.2024E+05  0.000E+00  0.000E+00  0.000E+00  3.98314E+01  1.610E-01  2.000E+01  2.000E+04 -7.235E-02
   1   13   20     1    20    1.2024E+05 -6.3078E+02   1.2087E+05  0.000E+00  0.000E+00  0.000E+00  3.93550E+01  1.618E-01  2.000E+01  2.000E+04 -3.154E-02
   1   14   21     1    21    1.2087E+05 -4.8989E+02   1.2136E+05  0.000E+00  0.000E+00  0.000E+00  3.88782E+01  1.623E-01  2.000E+01  2.000E+04 -2.449E-02
   1   14   22     1    22    1.2136E+05  5.3172E+03   1.1604E+05  0.000E+00  0.000E+00  0.000E+00  3.83990E+01  1.603E-01  2.000E+01  2.000E+04  2.659E-01
   1    9   30     2     1    5.0000E+04  7.4027E+02   4.9260E+04  0.000E+00  0.000E+00  0.000E+00  4.02404E+01  1.154E-01  2.000E+01  2.000E+04  3.701E-02
   1    9   29     2     2    4.9260E+04  4.1337E+02   4.8846E+04  0.000E+00  0.000E+00  0.000E+00  3.99895E+01  1.145E-01  2.000E+01  2.000E+04  2.067E-02
   1    9   28     2     3    4.8846E+04 -1.2110E+02   4.8967E+04  0.000E+00  0.000E+00  0.000E+00  3.97393E+01  1.143E-01  2.000E+01  2.000E+04 -6.055E-03
   1    9   27     2     4    4.8967E+04 -1.4741E+03   5.0442E+04  0.000E+00  0.000E+00  0.000E+00  3.94905E+01  1.155E-01  2.000E+01  2.000E+04 -7.371E-02
   1   10   26     2     5    5.0442E+04  1.3362E+02   5.0308E+04  0.000E+00  0.000E+00  0.000E+00  3.92414E+01  1.164E-01  2.000E+01  2.000E+04  6.681E-03
   1   11   25     2     6    5.0308E+04  1.4590E+03   4.8849E+04  0.000E+00  0.000E+00  0.000E+00  3.89903E+01  1.153E-01  2.000E+01  2.000E+04  7.295E-02
   1   12   24     2     7    4.8849E+04  2.4330E+03   4.6416E+04  0.000E+00  0.000E+00  0.000E+00  3.87375E+01  1.125E-01  2.000E+01  2.000E+04  1.216E-01
   1   13   23     2     8    4.6416E+04  2.5363E+02   4.6162E+04  0.000E+00  0.000E+00  0.000E+00  3.84856E+01  1.106E-01  2.000E+01  2.000E+04  1.268E-02
   1   14   22     2     9    4.6162E+04  2.0178E+03   4.4145E+04  0.000E+00  0.000E+00  0.000E+00  3.82340E+01  1.090E-01  2.000E+01  2.000E+04  1.009E-01
   1   14   22     3     1    1.6019E+05 -8.3165E+03   1.6850E+05  0.000E+00  0.000E+00  0.000E+00  3.77173E+01  1.617E-01  2.000E+01  2.000E+04 -4.158E-01
   1   15   23     3     2    1.6850E+05 -3.7832E+02   1.6888E+05  0.000E+00  0.000E+00  0.000E+00  3.68309E+01  1.643E-01  2.000E+01  2.000E+04 -1.892E-02
   1   15   24     3     3    1.6888E+05 -2.1989E+02   1.6910E+05  0.000E+00  0.000E+00  0.000E+00  3.59422E+01  1.644E-01  2.000E+01  2.000E+04 -1.099E-02
   1   15   25     3     4    1.6910E+05 -2.0829E+02   1.6931E+05  0.000E+00  0.000E+00  0.000E+00  3.50535E+01  1.646E-01  2.000E+01  2.000E+04 -1.041E-02
   1   15   26     3     5    1.6931E+05 -1.4446E+02   1.6945E+05  0.000E+00  0.000E+00  0.000E+00  3.41647E+01  1.647E-01  2.000E+01  2.000E+04 -7.223E-03
   1   16   27     3     6    1.6945E+05 -8.0412E+01   1.6953E+05  0.000E+00  0.000E+00  0.000E+00  3.32758E+01  1.647E-01  2.000E+01  2.000E+04 -4.021E-03
   1   17   28     3     7    1.6953E+05 -2.1863E+02   1.6975E+05  0.000E+00  0.000E+00  0.000E+00  3.23870E+01  1.648E-01  2.000E+01  2.000E+04 -1.093E-02
   1   18   29     3     8    1.6975E+05 -2.1089E+03   1.7186E+05  0.000E+00  0.000E+00  0.000E+00  3.14988E+01  1.655E-01  2.000E+01  2.000E+04 -1.054E-01
   1   18   30     3     9    1.7186E+05 -2.4487E+03   1.7431E+05  0.000E+00  0.000E+00  0.000E+00  3.06113E+01  1.668E-01  2.000E+01  2.000E+04 -1.224E-01



1
              HEAD IN LAYER   1 AT END OF TIME STEP   1 IN STRESS PERIOD    8
  ---------------------------------------------------------------------------

          1      2      3      4      5      6      7      8      9     10
         11     12     13     14     15     16     17     18     19     20
         21     22     23     24     25     26     27     28     29     30
 .........................................................................
   1  ****** ****** ****** ****** ****** ****** ****** ****** ****** ******
      ****** ****** ****** ****** ****** ****** ****** ****** ****** ******
      ****** ****** ****** ****** ****** ****** ****** ****** ****** ******
   2  ****** ****** ****** ****** ****** ****** ****** ****** ****** ******
      ****** ****** ****** ****** ****** ****** ****** ****** ****** ******
      ****** ****** ****** ****** ****** ****** ****** ****** ****** ******
   3  ****** ****** ****** ****** ****** ****** ****** ****** ****** ******
      ****** ****** ****** ****** ****** ****** ****** ****** ****** ******
      ****** ****** ****** ****** ****** ****** ****** ****** ****** ******
   4  ****** ****** ****** ****** ****** ****** ****** ****** ****** ******
      ****** ****** ****** ****** ****** ****** ****** ****** ****** ******
      ****** ****** ****** ****** ****** ****** ****** ****** ****** ******
   5  ****** ****** ****** ****** ****** ****** ****** ****** ****** ******
      ****** ****** ****** ****** ****** ****** ****** ****** ****** ******
      ****** ****** ****** ****** ****** ****** ****** ****** ****** ******
   6  ****** ****** ****** ****** ****** ****** ****** ****** ****** ******
      ****** ****** ****** ****** ****** ****** ****** ****** ****** ******
      ****** ****** ****** ****** ****** ****** ****** ****** ****** ******
   7  ****** ****** ****** ****** ****** ****** ****** ****** ****** ******
      ****** ****** ****** ****** ****** ****** ****** ****** ****** ******
      ****** ****** ****** ****** ****** ****** ****** ****** ****** ******
   8  ****** ****** ****** ****** ****** ****** ****** ****** ****** ******
      ****** ****** ****** ****** ****** ****** ****** ****** ****** ******
      ****** ****** ****** ****** ****** ****** ****** ****** ****** ******
   9  ****** ****** ****** ****** ****** ****** ****** ****** ****** ******
      ****** ****** ****** ****** ****** ****** ****** ****** ****** ******
      ****** ****** ****** ****** ****** ****** ****** ****** ****** ******
  10  ****** ****** ****** ****** ****** ****** ****** ****** ****** ******
      ****** ****** ****** ****** ****** ****** ****** ****** ****** ******
      ****** ****** ****** ****** ****** ****** ****** ****** ****** ******
  11  ****** ****** ****** ****** ****** ****** ****** ****** ****** ******
      ****** ****** ****** ****** ****** ****** ****** ****** ****** ******
      ****** ****** ****** ****** ****** ****** ****** ****** ****** ******
  12  ****** ****** ****** ****** ****** ****** ****** ****** ****** ******
      ****** ****** ****** ****** ****** ****** ****** ****** ****** ******
      ****** ****** ****** ****** ****** ****** ****** ****** ****** ******
  13  ****** ****** ****** ****** ****** ****** ****** ****** ****** ******
      ****** ****** ****** ****** ****** ****** ****** ****** ****** ******
      ****** ****** ****** ****** ****** ****** ****** ****** ****** ******
  14  ****** ****** ****** ****** ****** ****** ****** ****** ****** ******
      ****** ****** ****** ****** ****** ****** ****** ****** ****** ******
      ****** ****** ****** ****** ****** ****** ****** ****** ****** ******
  15  ****** ****** ****** ****** ****** ****** ****** ****** ****** ******
      ****** ****** ****** ****** ****** ****** ****** ****** ****** ******
      ****** ****** ****** ****** ****** ****** ****** ****** ****** ******
  16  ****** ****** ****** ****** ****** ****** ****** ****** ****** ******
      ****** ****** ****** ****** ****** ****** ****** ****** ****** ******
      ****** ****** ****** ****** ****** ****** ****** ****** ****** ******
  17  ****** ****** ****** ****** ****** ****** ****** ****** ****** ******
      ****** ****** ****** ****** ****** ****** ****** ****** ****** ******
      ****** ****** ****** ****** ****** ****** ****** ****** ****** ******
  18  ****** ****** ****** ****** ****** ****** ****** ****** ****** ******
      ****** ****** ****** ****** ****** ****** ****** ****** ****** ******
      ****** ****** ****** ****** ****** ****** ****** ****** ****** ******
  19  ****** ****** ****** ****** ****** ****** ****** ****** ****** ******
      ****** ****** ****** ****** ****** ****** ****** ****** ****** ******
      ****** ****** ****** ****** ****** ****** ****** ****** ****** ******
  20  ****** ****** ****** ****** ****** ****** ****** ****** ****** ******
      ****** ****** ****** ****** ****** ****** ****** ****** ****** ******
      ****** ****** ****** ****** ****** ****** ****** ****** ****** ******
  21  ****** ****** ****** ****** ****** ****** ****** ****** ****** ******
      ****** ****** ****** ****** ****** ****** ****** ****** ****** ******
      ****** ****** ****** ****** ****** ****** ****** ****** ****** ******
  22  ****** ****** ****** ****** ****** ****** ****** ****** ****** ******
      ****** ****** ****** ****** ****** ****** ****** ****** ****** ******
      ****** ****** ****** ****** ****** ****** ****** ****** ****** ******
  23  ****** ****** ****** ****** ****** ****** ****** ****** ****** ******
      ****** ****** ****** ****** ****** ****** ****** ****** ****** ******
      ****** ****** ****** ****** ****** ****** ****** ****** ****** ******
  24  ****** ****** ****** ****** ****** ****** ****** ****** ****** ******
      ****** ****** ****** ****** ****** ****** ****** ****** ****** ******
      ****** ****** ****** ****** ****** ****** ****** ****** ****** ******
  25  ****** ****** ****** ****** ****** ****** ****** ****** ****** ******
      ****** ****** ****** ****** ****** ****** ****** ****** ****** ******
      ****** ****** ****** ****** ****** ****** ****** ****** ****** ******

 HEAD WILL BE SAVED ON UNIT   51 AT END OF TIME STEP    1, STRESS PERIOD    8
1
  VOLUMETRIC BUDGET FOR ENTIRE MODEL AT END OF TIME STEP    1, STRESS PERIOD   8
  ------------------------------------------------------------------------------

     CUMULATIVE VOLUMES      L**3       RATES FOR THIS TIME STEP      L**3/T
     ------------------                 ------------------------

           IN:                                      IN:
           ---                                      ---
             STORAGE =    32839083.1890               STORAGE =        1347.5812
       CONSTANT HEAD =    18968467.2925         CONSTANT HEAD =       32538.0145
               WELLS =           0.0000                 WELLS =           0.0000
            RECHARGE =    17608800.0000              RECHARGE =       27600.0000
      STREAM LEAKAGE =     7845317.5606        STREAM LEAKAGE =       13757.3440

            TOTAL IN =    77261668.0421              TOTAL IN =       75242.9397

          OUT:                                     OUT:
          ----                                     ----
             STORAGE =      959561.7884               STORAGE =        1552.0115
       CONSTANT HEAD =           0.0000         CONSTANT HEAD =           0.0000
               WELLS =    26004431.4583                 WELLS =       35622.5088
            RECHARGE =           0.0000              RECHARGE =           0.0000
      STREAM LEAKAGE =    50297676.5321        STREAM LEAKAGE =       38068.4108

           TOTAL OUT =    77261669.7788             TOTAL OUT =       75242.9312

            IN - OUT =          -1.7366              IN - OUT =       8.4917E-03

 PERCENT DISCREPANCY =          -0.00     PERCENT DISCREPANCY =           0.00






         TIME SUMMARY AT END OF TIME STEP    1 IN STRESS PERIOD    8
                    SECONDS     MINUTES      HOURS       DAYS        YEARS
                    -----------------------------------------------------------
   TIME STEP LENGTH 7.86240E+06 1.31040E+05  2184.0      91.000     0.24914    
 STRESS PERIOD TIME 7.86240E+06 1.31040E+05  2184.0      91.000     0.24914    
         TOTAL TIME 6.30720E+07 1.05120E+06  17520.      730.00      1.9986    
1
1
                            STRESS PERIOD NO.    9, LENGTH =   92.00000    
                            -----------------------------------------------

                              NUMBER OF TIME STEPS =     1

                               MULTIPLIER FOR DELT =     1.500

                            INITIAL TIME STEP SIZE =   92.00000    

 WELL NO.  LAYER   ROW   COL   STRESS RATE         
 --------------------------------------------------
      1      1     14      6       0.000    
      2      1      3      9       0.000    
      3      1     20     10       0.000    
      4      1     14     20       0.000    
      5      1     21     19      -8385.    
      6      1     13     14      -6352.    
      7      1     11     23     -0.1199E+05
      8      1     12     29      -8894.    

      8 WELLS

                 RECHARGE =  5.000000E-04

 REUSING STREAM SEGMENT DATA FROM LAST STRESS PERIOD
 
 SOLVING FOR HEAD 


     6 CALLS TO PCG ROUTINE FOR TIME STEP   1 IN STRESS PERIOD    9
    23 TOTAL ITERATIONS

 OUTPUT CONTROL FOR STRESS PERIOD    9   TIME STEP    1
    SAVE BUDGET
    SAVE HEAD FOR ALL LAYERS
    PRINT HEAD FOR ALL LAYERS
 UBDSV2 SAVING "STREAMFLOW OUT  " ON UNIT  50 AT TIME STEP  1, STRESS PERIOD   9



 STREAM LISTING     PERIOD      9   STEP        1

 LAYER ROW COL. STREAM  RCH.  FLOW INTO     FLOW TO   FLOW OUT OF   OVRLND.     DIRECT     STREAM       STREAM     STREAM     STREAM   STREAMBED  STREAMBED
                SEG.NO.  NO.  STRM. RCH.    AQUIFER    STRM. RCH.    RUNOFF     PRECIP       ET          HEAD       DEPTH      WIDTH   CONDCTNC.   GRADIENT

   1   13    1     1     1    1.0000E+05 -1.6491E+03   1.0165E+05  0.000E+00  0.000E+00  0.000E+00  4.84067E+01  1.454E-01  2.000E+01  2.000E+04 -8.245E-02
   1   13    2     1     2    1.0165E+05 -2.5930E+03   1.0424E+05  0.000E+00  0.000E+00  0.000E+00  4.79313E+01  1.472E-01  2.000E+01  2.000E+04 -1.296E-01
   1   14    3     1     3    1.0424E+05 -4.0232E+02   1.0464E+05  0.000E+00  0.000E+00  0.000E+00  4.74553E+01  1.485E-01  2.000E+01  2.000E+04 -2.012E-02
   1   15    4     1     4    1.0464E+05 -3.6938E+02   1.0501E+05  0.000E+00  0.000E+00  0.000E+00  4.69783E+01  1.488E-01  2.000E+01  2.000E+04 -1.847E-02
   1   16    5     1     5    1.0501E+05 -1.3884E+03   1.0640E+05  0.000E+00  0.000E+00  0.000E+00  4.65018E+01  1.496E-01  2.000E+01  2.000E+04 -6.942E-02
   1   16    6     1     6    1.0640E+05 -8.8171E+02   1.0728E+05  0.000E+00  0.000E+00  0.000E+00  4.60255E+01  1.505E-01  2.000E+01  2.000E+04 -4.409E-02
   1   16    7     1     7    1.0728E+05 -8.5705E+02   1.0814E+05  0.000E+00  0.000E+00  0.000E+00  4.55490E+01  1.512E-01  2.000E+01  2.000E+04 -4.285E-02
   1   16    8     1     8    1.0814E+05 -8.3634E+02   1.0898E+05  0.000E+00  0.000E+00  0.000E+00  4.50724E+01  1.520E-01  2.000E+01  2.000E+04 -4.182E-02
   1   16    9     1     9    1.0898E+05 -8.0277E+02   1.0978E+05  0.000E+00  0.000E+00  0.000E+00  4.45958E+01  1.526E-01  2.000E+01  2.000E+04 -4.014E-02
   1   16   10     1    10    1.0978E+05 -7.5256E+02   1.1053E+05  0.000E+00  0.000E+00  0.000E+00  4.41192E+01  1.533E-01  2.000E+01  2.000E+04 -3.763E-02
   1   16   11     1    11    1.1053E+05 -6.8970E+02   1.1122E+05  0.000E+00  0.000E+00  0.000E+00  4.36425E+01  1.539E-01  2.000E+01  2.000E+04 -3.448E-02
   1   16   12     1    12    1.1122E+05 -9.4214E+02   1.1216E+05  0.000E+00  0.000E+00  0.000E+00  4.31659E+01  1.546E-01  2.000E+01  2.000E+04 -4.711E-02
   1   15   13     1    13    1.1216E+05 -5.8668E+02   1.1275E+05  0.000E+00  0.000E+00  0.000E+00  4.26893E+01  1.552E-01  2.000E+01  2.000E+04 -2.933E-02
   1   14   14     1    14    1.1275E+05  9.1406E+02   1.1184E+05  0.000E+00  0.000E+00  0.000E+00  4.22119E+01  1.551E-01  2.000E+01  2.000E+04  4.570E-02
   1   13   15     1    15    1.1184E+05  5.2437E+02   1.1131E+05  0.000E+00  0.000E+00  0.000E+00  4.17340E+01  1.545E-01  2.000E+01  2.000E+04  2.622E-02
   1   12   16     1    16    1.1131E+05 -1.9982E+03   1.1331E+05  0.000E+00  0.000E+00  0.000E+00  4.12574E+01  1.551E-01  2.000E+01  2.000E+04 -9.991E-02
   1   12   17     1    17    1.1331E+05 -1.3743E+03   1.1469E+05  0.000E+00  0.000E+00  0.000E+00  4.07815E+01  1.565E-01  2.000E+01  2.000E+04 -6.872E-02
   1   12   18     1    18    1.1469E+05 -1.2397E+03   1.1592E+05  0.000E+00  0.000E+00  0.000E+00  4.03053E+01  1.576E-01  2.000E+01  2.000E+04 -6.199E-02
   1   12   19     1    19    1.1592E+05 -1.2613E+03   1.1719E+05  0.000E+00  0.000E+00  0.000E+00  3.98290E+01  1.586E-01  2.000E+01  2.000E+04 -6.307E-02
   1   13   20     1    20    1.1719E+05 -4.5734E+02   1.1764E+05  0.000E+00  0.000E+00  0.000E+00  3.93525E+01  1.593E-01  2.000E+01  2.000E+04 -2.287E-02
   1   14   21     1    21    1.1764E+05 -3.1740E+02   1.1796E+05  0.000E+00  0.000E+00  0.000E+00  3.88755E+01  1.596E-01  2.000E+01  2.000E+04 -1.587E-02
   1   14   22     1    22    1.1796E+05  5.3567E+03   1.1260E+05  0.000E+00  0.000E+00  0.000E+00  3.83962E+01  1.575E-01  2.000E+01  2.000E+04  2.678E-01
   1    9   30     2     1    5.0000E+04  8.6322E+02   4.9137E+04  0.000E+00  0.000E+00  0.000E+00  4.02403E+01  1.153E-01  2.000E+01  2.000E+04  4.316E-02
   1    9   29     2     2    4.9137E+04  5.3652E+02   4.8600E+04  0.000E+00  0.000E+00  0.000E+00  3.99893E+01  1.143E-01  2.000E+01  2.000E+04  2.683E-02
   1    9   28     2     3    4.8600E+04  3.8732E+00   4.8596E+04  0.000E+00  0.000E+00  0.000E+00  3.97389E+01  1.139E-01  2.000E+01  2.000E+04  1.937E-04
   1    9   27     2     4    4.8596E+04 -1.2986E+03   4.9895E+04  0.000E+00  0.000E+00  0.000E+00  3.94898E+01  1.148E-01  2.000E+01  2.000E+04 -6.493E-02
   1   10   26     2     5    4.9895E+04  3.0644E+02   4.9589E+04  0.000E+00  0.000E+00  0.000E+00  3.92405E+01  1.155E-01  2.000E+01  2.000E+04  1.532E-02
   1   11   25     2     6    4.9589E+04  1.6244E+03   4.7964E+04  0.000E+00  0.000E+00  0.000E+00  3.89892E+01  1.142E-01  2.000E+01  2.000E+04  8.122E-02
   1   12   24     2     7    4.7964E+04  2.5850E+03   4.5379E+04  0.000E+00  0.000E+00  0.000E+00  3.87362E+01  1.112E-01  2.000E+01  2.000E+04  1.292E-01
   1   13   23     2     8    4.5379E+04  3.0060E+02   4.5079E+04  0.000E+00  0.000E+00  0.000E+00  3.84841E+01  1.091E-01  2.000E+01  2.000E+04  1.503E-02
   1   14   22     2     9    4.5079E+04  2.0806E+03   4.2998E+04  0.000E+00  0.000E+00  0.000E+00  3.82324E+01  1.074E-01  2.000E+01  2.000E+04  1.040E-01
   1   14   22     3     1    1.5560E+05 -8.2760E+03   1.6388E+05  0.000E+00  0.000E+00  0.000E+00  3.77145E+01  1.590E-01  2.000E+01  2.000E+04 -4.138E-01
   1   15   23     3     2    1.6388E+05 -3.2548E+02   1.6420E+05  0.000E+00  0.000E+00  0.000E+00  3.68282E+01  1.615E-01  2.000E+01  2.000E+04 -1.627E-02
   1   15   24     3     3    1.6420E+05 -1.7673E+02   1.6438E+05  0.000E+00  0.000E+00  0.000E+00  3.59395E+01  1.617E-01  2.000E+01  2.000E+04 -8.836E-03
   1   15   25     3     4    1.6438E+05 -1.6489E+02   1.6455E+05  0.000E+00  0.000E+00  0.000E+00  3.50507E+01  1.618E-01  2.000E+01  2.000E+04 -8.244E-03
   1   15   26     3     5    1.6455E+05 -9.6785E+01   1.6464E+05  0.000E+00  0.000E+00  0.000E+00  3.41619E+01  1.619E-01  2.000E+01  2.000E+04 -4.839E-03
   1   16   27     3     6    1.6464E+05 -2.4255E+01   1.6467E+05  0.000E+00  0.000E+00  0.000E+00  3.32730E+01  1.619E-01  2.000E+01  2.000E+04 -1.213E-03
   1   17   28     3     7    1.6467E+05 -6.4546E+01   1.6473E+05  0.000E+00  0.000E+00  0.000E+00  3.23841E+01  1.619E-01  2.000E+01  2.000E+04 -3.227E-03
   1   18   29     3     8    1.6473E+05 -1.9317E+03   1.6666E+05  0.000E+00  0.000E+00  0.000E+00  3.14958E+01  1.625E-01  2.000E+01  2.000E+04 -9.659E-02
   1   18   30     3     9    1.6666E+05 -2.3158E+03   1.6898E+05  0.000E+00  0.000E+00  0.000E+00  3.06082E+01  1.638E-01  2.000E+01  2.000E+04 -1.158E-01



1
              HEAD IN LAYER   1 AT END OF TIME STEP   1 IN STRESS PERIOD    9
  ---------------------------------------------------------------------------

          1      2      3      4      5      6      7      8      9     10
         11     12     13     14     15     16     17     18     19     20
         21     22     23     24     25     26     27     28     29     30
 .........................................................................
   1  ****** ****** ****** ****** ****** ****** ****** ****** ****** ******
      ****** ****** ****** ****** ****** ****** ****** ****** ****** ******
      ****** ****** ****** ****** ****** ****** ****** ****** ****** ******
   2  ****** ****** ****** ****** ****** ****** ****** ****** ****** ******
      ****** ****** ****** ****** ****** ****** ****** ****** ****** ******
      ****** ****** ****** ****** ****** ****** ****** ****** ****** ******
   3  ****** ****** ****** ****** ****** ****** ****** ****** ****** ******
      ****** ****** ****** ****** ****** ****** ****** ****** ****** ******
      ****** ****** ****** ****** ****** ****** ****** ****** ****** ******
   4  ****** ****** ****** ****** ****** ****** ****** ****** ****** ******
      ****** ****** ****** ****** ****** ****** ****** ****** ****** ******
      ****** ****** ****** ****** ****** ****** ****** ****** ****** ******
   5  ****** ****** ****** ****** ****** ****** ****** ****** ****** ******
      ****** ****** ****** ****** ****** ****** ****** ****** ****** ******
      ****** ****** ****** ****** ****** ****** ****** ****** ****** ******
   6  ****** ****** ****** ****** ****** ****** ****** ****** ****** ******
      ****** ****** ****** ****** ****** ****** ****** ****** ****** ******
      ****** ****** ****** ****** ****** ****** ****** ****** ****** ******
   7  ****** ****** ****** ****** ****** ****** ****** ****** ****** ******
      ****** ****** ****** ****** ****** ****** ****** ****** ****** ******
      ****** ****** ****** ****** ****** ****** ****** ****** ****** ******
   8  ****** ****** ****** ****** ****** ****** ****** ****** ****** ******
      ****** ****** ****** ****** ****** ****** ****** ****** ****** ******
      ****** ****** ****** ****** ****** ****** ****** ****** ****** ******
   9  ****** ****** ****** ****** ****** ****** ****** ****** ****** ******
      ****** ****** ****** ****** ****** ****** ****** ****** ****** ******
      ****** ****** ****** ****** ****** ****** ****** ****** ****** ******
  10  ****** ****** ****** ****** ****** ****** ****** ****** ****** ******
      ****** ****** ****** ****** ****** ****** ****** ****** ****** ******
      ****** ****** ****** ****** ****** ****** ****** ****** ****** ******
  11  ****** ****** ****** ****** ****** ****** ****** ****** ****** ******
      ****** ****** ****** ****** ****** ****** ****** ****** ****** ******
      ****** ****** ****** ****** ****** ****** ****** ****** ****** ******
  12  ****** ****** ****** ****** ****** ****** ****** ****** ****** ******
      ****** ****** ****** ****** ****** ****** ****** ****** ****** ******
      ****** ****** ****** ****** ****** ****** ****** ****** ****** ******
  13  ****** ****** ****** ****** ****** ****** ****** ****** ****** ******
      ****** ****** ****** ****** ****** ****** ****** ****** ****** ******
      ****** ****** ****** ****** ****** ****** ****** ****** ****** ******
  14  ****** ****** ****** ****** ****** ****** ****** ****** ****** ******
      ****** ****** ****** ****** ****** ****** ****** ****** ****** ******
      ****** ****** ****** ****** ****** ****** ****** ****** ****** ******
  15  ****** ****** ****** ****** ****** ****** ****** ****** ****** ******
      ****** ****** ****** ****** ****** ****** ****** ****** ****** ******
      ****** ****** ****** ****** ****** ****** ****** ****** ****** ******
  16  ****** ****** ****** ****** ****** ****** ****** ****** ****** ******
      ****** ****** ****** ****** ****** ****** ****** ****** ****** ******
      ****** ****** ****** ****** ****** ****** ****** ****** ****** ******
  17  ****** ****** ****** ****** ****** ****** ****** ****** ****** ******
      ****** ****** ****** ****** ****** ****** ****** ****** ****** ******
      ****** ****** ****** ****** ****** ****** ****** ****** ****** ******
  18  ****** ****** ****** ****** ****** ****** ****** ****** ****** ******
      ****** ****** ****** ****** ****** ****** ****** ****** ****** ******
      ****** ****** ****** ****** ****** ****** ****** ****** ****** ******
  19  ****** ****** ****** ****** ****** ****** ****** ****** ****** ******
      ****** ****** ****** ****** ****** ****** ****** ****** ****** ******
      ****** ****** ****** ****** ****** ****** ****** ****** ****** ******
  20  ****** ****** ****** ****** ****** ****** ****** ****** ****** ******
      ****** ****** ****** ****** ****** ****** ****** ****** ****** ******
      ****** ****** ****** ****** ****** ****** ****** ****** ****** ******
  21  ****** ****** ****** ****** ****** ****** ****** ****** ****** ******
      ****** ****** ****** ****** ****** ****** ****** ****** ****** ******
      ****** ****** ****** ****** ****** ****** ****** ****** ****** ******
  22  ****** ****** ****** ****** ****** ****** ****** ****** ****** ******
      ****** ****** ****** ****** ****** ****** ****** ****** ****** ******
      ****** ****** ****** ****** ****** ****** ****** ****** ****** ******
  23  ****** ****** ****** ****** ****** ****** ****** ****** ****** ******
      ****** ****** ****** ****** ****** ****** ****** ****** ****** ******
      ****** ****** ****** ****** ****** ****** ****** ****** ****** ******
  24  ****** ****** ****** ****** ****** ****** ****** ****** ****** ******
      ****** ****** ****** ****** ****** ****** ****** ****** ****** ******
      ****** ****** ****** ****** ****** ****** ****** ****** ****** ******
  25  ****** ****** ****** ****** ****** ****** ****** ****** ****** ******
      ****** ****** ****** ****** ****** ****** ****** ****** ****** ******
      ****** ****** ****** ****** ****** ****** ****** ****** ****** ******

 HEAD WILL BE SAVED ON UNIT   51 AT END OF TIME STEP    1, STRESS PERIOD    9
1
  VOLUMETRIC BUDGET FOR ENTIRE MODEL AT END OF TIME STEP    1, STRESS PERIOD   9
  ------------------------------------------------------------------------------

     CUMULATIVE VOLUMES      L**3       RATES FOR THIS TIME STEP      L**3/T
     ------------------                 ------------------------

           IN:                                      IN:
           ---                                      ---
             STORAGE =    33492880.6799               STORAGE =        7106.4945
       CONSTANT HEAD =    22068357.5560         CONSTANT HEAD =       33694.4594
               WELLS =           0.0000                 WELLS =           0.0000
            RECHARGE =    18878400.0000              RECHARGE =       13800.0000
      STREAM LEAKAGE =     9234128.5157        STREAM LEAKAGE =       15095.7713

            TOTAL IN =    83673766.7515              TOTAL IN =       69696.7251

          OUT:                                     OUT:
          ----                                     ----
             STORAGE =      959561.7884               STORAGE =           0.0000
       CONSTANT HEAD =           0.0000         CONSTANT HEAD =           0.0000
               WELLS =    29281702.2722                 WELLS =       35622.5088
            RECHARGE =           0.0000              RECHARGE =           0.0000
      STREAM LEAKAGE =    53432504.4971        STREAM LEAKAGE =       34074.2170

           TOTAL OUT =    83673768.5576             TOTAL OUT =       69696.7259

            IN - OUT =          -1.8061              IN - OUT =      -7.5512E-04

 PERCENT DISCREPANCY =          -0.00     PERCENT DISCREPANCY =          -0.00






         TIME SUMMARY AT END OF TIME STEP    1 IN STRESS PERIOD    9
                    SECONDS     MINUTES      HOURS       DAYS        YEARS
                    -----------------------------------------------------------
   TIME STEP LENGTH 7.94880E+06 1.32480E+05  2208.0      92.000     0.25188    
 STRESS PERIOD TIME 7.94880E+06 1.32480E+05  2208.0      92.000     0.25188    
         TOTAL TIME 7.10208E+07 1.18368E+06  19728.      822.00      2.2505    
1
1
                            STRESS PERIOD NO.   10, LENGTH =   91.00000    
                            -----------------------------------------------

                              NUMBER OF TIME STEPS =     1

                               MULTIPLIER FOR DELT =     1.500

                            INITIAL TIME STEP SIZE =   91.00000    

 WELL NO.  LAYER   ROW   COL   STRESS RATE         
 --------------------------------------------------
      1      1     14      6       0.000    
      2      1      3      9       0.000    
      3      1     20     10       0.000    
      4      1     14     20       0.000    
      5      1     21     19      -8385.    
      6      1     13     14      -6352.    
      7      1     11     23     -0.1199E+05
      8      1     12     29      -8894.    

      8 WELLS

                 RECHARGE =  2.000000E-03

 REUSING STREAM SEGMENT DATA FROM LAST STRESS PERIOD
 
 SOLVING FOR HEAD 


     7 CALLS TO PCG ROUTINE FOR TIME STEP   1 IN STRESS PERIOD   10
    26 TOTAL ITERATIONS

 OUTPUT CONTROL FOR STRESS PERIOD   10   TIME STEP    1
    SAVE BUDGET
    SAVE HEAD FOR ALL LAYERS
    PRINT HEAD FOR ALL LAYERS
 UBDSV2 SAVING "STREAMFLOW OUT  " ON UNIT  50 AT TIME STEP  1, STRESS PERIOD  10



 STREAM LISTING     PERIOD     10   STEP        1

 LAYER ROW COL. STREAM  RCH.  FLOW INTO     FLOW TO   FLOW OUT OF   OVRLND.     DIRECT     STREAM       STREAM     STREAM     STREAM   STREAMBED  STREAMBED
                SEG.NO.  NO.  STRM. RCH.    AQUIFER    STRM. RCH.    RUNOFF     PRECIP       ET          HEAD       DEPTH      WIDTH   CONDCTNC.   GRADIENT

   1   13    1     1     1    1.0000E+05 -2.1039E+03   1.0210E+05  0.000E+00  0.000E+00  0.000E+00  4.84069E+01  1.456E-01  2.000E+01  2.000E+04 -1.052E-01
   1   13    2     1     2    1.0210E+05 -3.0972E+03   1.0520E+05  0.000E+00  0.000E+00  0.000E+00  4.79319E+01  1.478E-01  2.000E+01  2.000E+04 -1.549E-01
   1   14    3     1     3    1.0520E+05 -5.8922E+02   1.0579E+05  0.000E+00  0.000E+00  0.000E+00  4.74562E+01  1.494E-01  2.000E+01  2.000E+04 -2.946E-02
   1   15    4     1     4    1.0579E+05 -5.6909E+02   1.0636E+05  0.000E+00  0.000E+00  0.000E+00  4.69794E+01  1.499E-01  2.000E+01  2.000E+04 -2.845E-02
   1   16    5     1     5    1.0636E+05 -2.0074E+03   1.0837E+05  0.000E+00  0.000E+00  0.000E+00  4.65032E+01  1.510E-01  2.000E+01  2.000E+04 -1.004E-01
   1   16    6     1     6    1.0837E+05 -1.2441E+03   1.0961E+05  0.000E+00  0.000E+00  0.000E+00  4.60273E+01  1.523E-01  2.000E+01  2.000E+04 -6.220E-02
   1   16    7     1     7    1.0961E+05 -1.2017E+03   1.1081E+05  0.000E+00  0.000E+00  0.000E+00  4.55511E+01  1.533E-01  2.000E+01  2.000E+04 -6.008E-02
   1   16    8     1     8    1.1081E+05 -1.1755E+03   1.1199E+05  0.000E+00  0.000E+00  0.000E+00  4.50748E+01  1.543E-01  2.000E+01  2.000E+04 -5.877E-02
   1   16    9     1     9    1.1199E+05 -1.1403E+03   1.1313E+05  0.000E+00  0.000E+00  0.000E+00  4.45985E+01  1.553E-01  2.000E+01  2.000E+04 -5.702E-02
   1   16   10     1    10    1.1313E+05 -1.0902E+03   1.1422E+05  0.000E+00  0.000E+00  0.000E+00  4.41221E+01  1.562E-01  2.000E+01  2.000E+04 -5.451E-02
   1   16   11     1    11    1.1422E+05 -1.0307E+03   1.1525E+05  0.000E+00  0.000E+00  0.000E+00  4.36457E+01  1.571E-01  2.000E+01  2.000E+04 -5.153E-02
   1   16   12     1    12    1.1525E+05 -1.5114E+03   1.1676E+05  0.000E+00  0.000E+00  0.000E+00  4.31695E+01  1.581E-01  2.000E+01  2.000E+04 -7.557E-02
   1   15   13     1    13    1.1676E+05 -1.1737E+03   1.1793E+05  0.000E+00  0.000E+00  0.000E+00  4.26933E+01  1.592E-01  2.000E+01  2.000E+04 -5.868E-02
   1   14   14     1    14    1.1793E+05  3.1941E+02   1.1761E+05  0.000E+00  0.000E+00  0.000E+00  4.22164E+01  1.596E-01  2.000E+01  2.000E+04  1.597E-02
   1   13   15     1    15    1.1761E+05 -6.0682E+01   1.1768E+05  0.000E+00  0.000E+00  0.000E+00  4.17390E+01  1.595E-01  2.000E+01  2.000E+04 -3.034E-03
   1   12   16     1    16    1.1768E+05 -2.5625E+03   1.2024E+05  0.000E+00  0.000E+00  0.000E+00  4.12628E+01  1.605E-01  2.000E+01  2.000E+04 -1.281E-01
   1   12   17     1    17    1.2024E+05 -1.8010E+03   1.2204E+05  0.000E+00  0.000E+00  0.000E+00  4.07873E+01  1.623E-01  2.000E+01  2.000E+04 -9.005E-02
   1   12   18     1    18    1.2204E+05 -1.6621E+03   1.2370E+05  0.000E+00  0.000E+00  0.000E+00  4.03114E+01  1.637E-01  2.000E+01  2.000E+04 -8.310E-02
   1   12   19     1    19    1.2370E+05 -1.7811E+03   1.2548E+05  0.000E+00  0.000E+00  0.000E+00  3.98355E+01  1.651E-01  2.000E+01  2.000E+04 -8.905E-02
   1   13   20     1    20    1.2548E+05 -9.7890E+02   1.2646E+05  0.000E+00  0.000E+00  0.000E+00  3.93593E+01  1.661E-01  2.000E+01  2.000E+04 -4.894E-02
   1   14   21     1    21    1.2646E+05 -8.4214E+02   1.2730E+05  0.000E+00  0.000E+00  0.000E+00  3.88828E+01  1.669E-01  2.000E+01  2.000E+04 -4.211E-02
   1   14   22     1    22    1.2730E+05  5.2267E+03   1.2208E+05  0.000E+00  0.000E+00  0.000E+00  3.84038E+01  1.651E-01  2.000E+01  2.000E+04  2.613E-01
   1    9   30     2     1    5.0000E+04  4.4870E+02   4.9551E+04  0.000E+00  0.000E+00  0.000E+00  4.02406E+01  1.156E-01  2.000E+01  2.000E+04  2.243E-02
   1    9   29     2     2    4.9551E+04  1.2426E+02   4.9427E+04  0.000E+00  0.000E+00  0.000E+00  3.99902E+01  1.152E-01  2.000E+01  2.000E+04  6.213E-03
   1    9   28     2     3    4.9427E+04 -4.0762E+02   4.9835E+04  0.000E+00  0.000E+00  0.000E+00  3.97404E+01  1.154E-01  2.000E+01  2.000E+04 -2.038E-02
   1    9   27     2     4    4.9835E+04 -1.8523E+03   5.1687E+04  0.000E+00  0.000E+00  0.000E+00  3.94919E+01  1.169E-01  2.000E+01  2.000E+04 -9.261E-02
   1   10   26     2     5    5.1687E+04 -2.4715E+02   5.1934E+04  0.000E+00  0.000E+00  0.000E+00  3.92434E+01  1.184E-01  2.000E+01  2.000E+04 -1.236E-02
   1   11   25     2     6    5.1934E+04  1.0954E+03   5.0839E+04  0.000E+00  0.000E+00  0.000E+00  3.89928E+01  1.178E-01  2.000E+01  2.000E+04  5.477E-02
   1   12   24     2     7    5.0839E+04  2.1062E+03   4.8732E+04  0.000E+00  0.000E+00  0.000E+00  3.87406E+01  1.156E-01  2.000E+01  2.000E+04  1.053E-01
   1   13   23     2     8    4.8732E+04  1.5186E+02   4.8581E+04  0.000E+00  0.000E+00  0.000E+00  3.84890E+01  1.140E-01  2.000E+01  2.000E+04  7.593E-03
   1   14   22     2     9    4.8581E+04  1.9021E+03   4.6678E+04  0.000E+00  0.000E+00  0.000E+00  3.82375E+01  1.125E-01  2.000E+01  2.000E+04  9.511E-02
   1   14   22     3     1    1.6876E+05 -8.4026E+03   1.7716E+05  0.000E+00  0.000E+00  0.000E+00  3.77223E+01  1.667E-01  2.000E+01  2.000E+04 -4.201E-01
   1   15   23     3     2    1.7716E+05 -4.8786E+02   1.7765E+05  0.000E+00  0.000E+00  0.000E+00  3.68360E+01  1.693E-01  2.000E+01  2.000E+04 -2.439E-02
   1   15   24     3     3    1.7765E+05 -3.1381E+02   1.7796E+05  0.000E+00  0.000E+00  0.000E+00  3.59473E+01  1.695E-01  2.000E+01  2.000E+04 -1.569E-02
   1   15   25     3     4    1.7796E+05 -3.0539E+02   1.7826E+05  0.000E+00  0.000E+00  0.000E+00  3.50586E+01  1.697E-01  2.000E+01  2.000E+04 -1.527E-02
   1   15   26     3     5    1.7826E+05 -2.5897E+02   1.7852E+05  0.000E+00  0.000E+00  0.000E+00  3.41699E+01  1.699E-01  2.000E+01  2.000E+04 -1.295E-02
   1   16   27     3     6    1.7852E+05 -2.1001E+02   1.7873E+05  0.000E+00  0.000E+00  0.000E+00  3.32811E+01  1.700E-01  2.000E+01  2.000E+04 -1.050E-02
   1   17   28     3     7    1.7873E+05 -5.8485E+02   1.7932E+05  0.000E+00  0.000E+00  0.000E+00  3.23925E+01  1.702E-01  2.000E+01  2.000E+04 -2.924E-02
   1   18   29     3     8    1.7932E+05 -2.4824E+03   1.8180E+05  0.000E+00  0.000E+00  0.000E+00  3.15044E+01  1.711E-01  2.000E+01  2.000E+04 -1.241E-01
   1   18   30     3     9    1.8180E+05 -2.7407E+03   1.8454E+05  0.000E+00  0.000E+00  0.000E+00  3.06170E+01  1.726E-01  2.000E+01  2.000E+04 -1.370E-01



1
              HEAD IN LAYER   1 AT END OF TIME STEP   1 IN STRESS PERIOD   10
  ---------------------------------------------------------------------------

          1      2      3      4      5      6      7      8      9     10
         11     12     13     14     15     16     17     18     19     20
         21     22     23     24     25     26     27     28     29     30
 .........................................................................
   1  ****** ****** ****** ****** ****** ****** ****** ****** ****** ******
      ****** ****** ****** ****** ****** ****** ****** ****** ****** ******
      ****** ****** ****** ****** ****** ****** ****** ****** ****** ******
   2  ****** ****** ****** ****** ****** ****** ****** ****** ****** ******
      ****** ****** ****** ****** ****** ****** ****** ****** ****** ******
      ****** ****** ****** ****** ****** ****** ****** ****** ****** ******
   3  ****** ****** ****** ****** ****** ****** ****** ****** ****** ******
      ****** ****** ****** ****** ****** ****** ****** ****** ****** ******
      ****** ****** ****** ****** ****** ****** ****** ****** ****** ******
   4  ****** ****** ****** ****** ****** ****** ****** ****** ****** ******
      ****** ****** ****** ****** ****** ****** ****** ****** ****** ******
      ****** ****** ****** ****** ****** ****** ****** ****** ****** ******
   5  ****** ****** ****** ****** ****** ****** ****** ****** ****** ******
      ****** ****** ****** ****** ****** ****** ****** ****** ****** ******
      ****** ****** ****** ****** ****** ****** ****** ****** ****** ******
   6  ****** ****** ****** ****** ****** ****** ****** ****** ****** ******
      ****** ****** ****** ****** ****** ****** ****** ****** ****** ******
      ****** ****** ****** ****** ****** ****** ****** ****** ****** ******
   7  ****** ****** ****** ****** ****** ****** ****** ****** ****** ******
      ****** ****** ****** ****** ****** ****** ****** ****** ****** ******
      ****** ****** ****** ****** ****** ****** ****** ****** ****** ******
   8  ****** ****** ****** ****** ****** ****** ****** ****** ****** ******
      ****** ****** ****** ****** ****** ****** ****** ****** ****** ******
      ****** ****** ****** ****** ****** ****** ****** ****** ****** ******
   9  ****** ****** ****** ****** ****** ****** ****** ****** ****** ******
      ****** ****** ****** ****** ****** ****** ****** ****** ****** ******
      ****** ****** ****** ****** ****** ****** ****** ****** ****** ******
  10  ****** ****** ****** ****** ****** ****** ****** ****** ****** ******
      ****** ****** ****** ****** ****** ****** ****** ****** ****** ******
      ****** ****** ****** ****** ****** ****** ****** ****** ****** ******
  11  ****** ****** ****** ****** ****** ****** ****** ****** ****** ******
      ****** ****** ****** ****** ****** ****** ****** ****** ****** ******
      ****** ****** ****** ****** ****** ****** ****** ****** ****** ******
  12  ****** ****** ****** ****** ****** ****** ****** ****** ****** ******
      ****** ****** ****** ****** ****** ****** ****** ****** ****** ******
      ****** ****** ****** ****** ****** ****** ****** ****** ****** ******
  13  ****** ****** ****** ****** ****** ****** ****** ****** ****** ******
      ****** ****** ****** ****** ****** ****** ****** ****** ****** ******
      ****** ****** ****** ****** ****** ****** ****** ****** ****** ******
  14  ****** ****** ****** ****** ****** ****** ****** ****** ****** ******
      ****** ****** ****** ****** ****** ****** ****** ****** ****** ******
      ****** ****** ****** ****** ****** ****** ****** ****** ****** ******
  15  ****** ****** ****** ****** ****** ****** ****** ****** ****** ******
      ****** ****** ****** ****** ****** ****** ****** ****** ****** ******
      ****** ****** ****** ****** ****** ****** ****** ****** ****** ******
  16  ****** ****** ****** ****** ****** ****** ****** ****** ****** ******
      ****** ****** ****** ****** ****** ****** ****** ****** ****** ******
      ****** ****** ****** ****** ****** ****** ****** ****** ****** ******
  17  ****** ****** ****** ****** ****** ****** ****** ****** ****** ******
      ****** ****** ****** ****** ****** ****** ****** ****** ****** ******
      ****** ****** ****** ****** ****** ****** ****** ****** ****** ******
  18  ****** ****** ****** ****** ****** ****** ****** ****** ****** ******
      ****** ****** ****** ****** ****** ****** ****** ****** ****** ******
      ****** ****** ****** ****** ****** ****** ****** ****** ****** ******
  19  ****** ****** ****** ****** ****** ****** ****** ****** ****** ******
      ****** ****** ****** ****** ****** ****** ****** ****** ****** ******
      ****** ****** ****** ****** ****** ****** ****** ****** ****** ******
  20  ****** ****** ****** ****** ****** ****** ****** ****** ****** ******
      ****** ****** ****** ****** ****** ****** ****** ****** ****** ******
      ****** ****** ****** ****** ****** ****** ****** ****** ****** ******
  21  ****** ****** ****** ****** ****** ****** ****** ****** ****** ******
      ****** ****** ****** ****** ****** ****** ****** ****** ****** ******
      ****** ****** ****** ****** ****** ****** ****** ****** ****** ******
  22  ****** ****** ****** ****** ****** ****** ****** ****** ****** ******
      ****** ****** ****** ****** ****** ****** ****** ****** ****** ******
      ****** ****** ****** ****** ****** ****** ****** ****** ****** ******
  23  ****** ****** ****** ****** ****** ****** ****** ****** ****** ******
      ****** ****** ****** ****** ****** ****** ****** ****** ****** ******
      ****** ****** ****** ****** ****** ****** ****** ****** ****** ******
  24  ****** ****** ****** ****** ****** ****** ****** ****** ****** ******
      ****** ****** ****** ****** ****** ****** ****** ****** ****** ******
      ****** ****** ****** ****** ****** ****** ****** ****** ****** ******
  25  ****** ****** ****** ****** ****** ****** ****** ****** ****** ******
      ****** ****** ****** ****** ****** ****** ****** ****** ****** ******
      ****** ****** ****** ****** ****** ****** ****** ****** ****** ******

 HEAD WILL BE SAVED ON UNIT   51 AT END OF TIME STEP    1, STRESS PERIOD   10
1
  VOLUMETRIC BUDGET FOR ENTIRE MODEL AT END OF TIME STEP    1, STRESS PERIOD  10
  ------------------------------------------------------------------------------

     CUMULATIVE VOLUMES      L**3       RATES FOR THIS TIME STEP      L**3/T
     ------------------                 ------------------------

           IN:                                      IN:
           ---                                      ---
             STORAGE =    33492880.6799               STORAGE =           0.0000
       CONSTANT HEAD =    24865081.3645         CONSTANT HEAD =       30733.2287
               WELLS =           0.0000                 WELLS =           0.0000
            RECHARGE =    23901600.0000              RECHARGE =       55200.0000
      STREAM LEAKAGE =    10269223.8613        STREAM LEAKAGE =       11374.6741

            TOTAL IN =    92528785.9056              TOTAL IN =       97307.9028

          OUT:                                     OUT:
          ----                                     ----
             STORAGE =     2394559.1438               STORAGE =       15769.2017
       CONSTANT HEAD =           0.0000         CONSTANT HEAD =           0.0000
               WELLS =    32523350.5773                 WELLS =       35622.5088
            RECHARGE =           0.0000              RECHARGE =           0.0000
      STREAM LEAKAGE =    57610877.6591        STREAM LEAKAGE =       45916.1886

           TOTAL OUT =    92528787.3802             TOTAL OUT =       97307.8991

            IN - OUT =          -1.4745              IN - OUT =       3.6435E-03

 PERCENT DISCREPANCY =          -0.00     PERCENT DISCREPANCY =           0.00






         TIME SUMMARY AT END OF TIME STEP    1 IN STRESS PERIOD   10
                    SECONDS     MINUTES      HOURS       DAYS        YEARS
                    -----------------------------------------------------------
   TIME STEP LENGTH 7.86240E+06 1.31040E+05  2184.0      91.000     0.24914    
 STRESS PERIOD TIME 7.86240E+06 1.31040E+05  2184.0      91.000     0.24914    
         TOTAL TIME 7.88832E+07 1.31472E+06  21912.      913.00      2.4997    
1
1
                            STRESS PERIOD NO.   11, LENGTH =   91.00000    
                            -----------------------------------------------

                              NUMBER OF TIME STEPS =     1

                               MULTIPLIER FOR DELT =     1.500

                            INITIAL TIME STEP SIZE =   91.00000    

 WELL NO.  LAYER   ROW   COL   STRESS RATE         
 --------------------------------------------------
      1      1     14      6       0.000    
      2      1      3      9       0.000    
      3      1     20     10       0.000    
      4      1     14     20       0.000    
      5      1     21     19      -8385.    
      6      1     13     14      -6352.    
      7      1     11     23     -0.1199E+05
      8      1     12     29      -8894.    

      8 WELLS

                 RECHARGE =   0.00000    

 REUSING STREAM SEGMENT DATA FROM LAST STRESS PERIOD
 
 SOLVING FOR HEAD 


     7 CALLS TO PCG ROUTINE FOR TIME STEP   1 IN STRESS PERIOD   11
    26 TOTAL ITERATIONS

 OUTPUT CONTROL FOR STRESS PERIOD   11   TIME STEP    1
    SAVE BUDGET
    SAVE HEAD FOR ALL LAYERS
    PRINT HEAD FOR ALL LAYERS
 UBDSV2 SAVING "STREAMFLOW OUT  " ON UNIT  50 AT TIME STEP  1, STRESS PERIOD  11



 STREAM LISTING     PERIOD     11   STEP        1

 LAYER ROW COL. STREAM  RCH.  FLOW INTO     FLOW TO   FLOW OUT OF   OVRLND.     DIRECT     STREAM       STREAM     STREAM     STREAM   STREAMBED  STREAMBED
                SEG.NO.  NO.  STRM. RCH.    AQUIFER    STRM. RCH.    RUNOFF     PRECIP       ET          HEAD       DEPTH      WIDTH   CONDCTNC.   GRADIENT

   1   13    1     1     1    1.0000E+05 -1.5379E+03   1.0154E+05  0.000E+00  0.000E+00  0.000E+00  4.84067E+01  1.453E-01  2.000E+01  2.000E+04 -7.689E-02
   1   13    2     1     2    1.0154E+05 -2.4670E+03   1.0400E+05  0.000E+00  0.000E+00  0.000E+00  4.79311E+01  1.470E-01  2.000E+01  2.000E+04 -1.234E-01
   1   14    3     1     3    1.0400E+05 -3.5862E+02   1.0436E+05  0.000E+00  0.000E+00  0.000E+00  4.74551E+01  1.483E-01  2.000E+01  2.000E+04 -1.793E-02
   1   15    4     1     4    1.0436E+05 -3.2742E+02   1.0469E+05  0.000E+00  0.000E+00  0.000E+00  4.69781E+01  1.485E-01  2.000E+01  2.000E+04 -1.637E-02
   1   16    5     1     5    1.0469E+05 -1.3196E+03   1.0601E+05  0.000E+00  0.000E+00  0.000E+00  4.65015E+01  1.492E-01  2.000E+01  2.000E+04 -6.598E-02
   1   16    6     1     6    1.0601E+05 -8.2995E+02   1.0684E+05  0.000E+00  0.000E+00  0.000E+00  4.60252E+01  1.502E-01  2.000E+01  2.000E+04 -4.150E-02
   1   16    7     1     7    1.0684E+05 -8.0515E+02   1.0765E+05  0.000E+00  0.000E+00  0.000E+00  4.55486E+01  1.509E-01  2.000E+01  2.000E+04 -4.026E-02
   1   16    8     1     8    1.0765E+05 -7.8446E+02   1.0843E+05  0.000E+00  0.000E+00  0.000E+00  4.50720E+01  1.515E-01  2.000E+01  2.000E+04 -3.922E-02
   1   16    9     1     9    1.0843E+05 -7.5151E+02   1.0918E+05  0.000E+00  0.000E+00  0.000E+00  4.45953E+01  1.522E-01  2.000E+01  2.000E+04 -3.758E-02
   1   16   10     1    10    1.0918E+05 -7.0240E+02   1.0988E+05  0.000E+00  0.000E+00  0.000E+00  4.41187E+01  1.528E-01  2.000E+01  2.000E+04 -3.512E-02
   1   16   11     1    11    1.0988E+05 -6.4099E+02   1.1053E+05  0.000E+00  0.000E+00  0.000E+00  4.36420E+01  1.533E-01  2.000E+01  2.000E+04 -3.205E-02
   1   16   12     1    12    1.1053E+05 -8.6573E+02   1.1139E+05  0.000E+00  0.000E+00  0.000E+00  4.31653E+01  1.540E-01  2.000E+01  2.000E+04 -4.329E-02
   1   15   13     1    13    1.1139E+05 -4.8558E+02   1.1188E+05  0.000E+00  0.000E+00  0.000E+00  4.26886E+01  1.545E-01  2.000E+01  2.000E+04 -2.428E-02
   1   14   14     1    14    1.1188E+05  1.0249E+03   1.1085E+05  0.000E+00  0.000E+00  0.000E+00  4.22111E+01  1.543E-01  2.000E+01  2.000E+04  5.124E-02
   1   13   15     1    15    1.1085E+05  6.3889E+02   1.1021E+05  0.000E+00  0.000E+00  0.000E+00  4.17332E+01  1.536E-01  2.000E+01  2.000E+04  3.194E-02
   1   12   16     1    16    1.1021E+05 -1.8870E+03   1.1210E+05  0.000E+00  0.000E+00  0.000E+00  4.12564E+01  1.541E-01  2.000E+01  2.000E+04 -9.435E-02
   1   12   17     1    17    1.1210E+05 -1.2951E+03   1.1339E+05  0.000E+00  0.000E+00  0.000E+00  4.07804E+01  1.554E-01  2.000E+01  2.000E+04 -6.476E-02
   1   12   18     1    18    1.1339E+05 -1.1637E+03   1.1456E+05  0.000E+00  0.000E+00  0.000E+00  4.03042E+01  1.565E-01  2.000E+01  2.000E+04 -5.818E-02
   1   12   19     1    19    1.1456E+05 -1.1693E+03   1.1573E+05  0.000E+00  0.000E+00  0.000E+00  3.98279E+01  1.574E-01  2.000E+01  2.000E+04 -5.846E-02
   1   13   20     1    20    1.1573E+05 -3.6679E+02   1.1609E+05  0.000E+00  0.000E+00  0.000E+00  3.93512E+01  1.581E-01  2.000E+01  2.000E+04 -1.834E-02
   1   14   21     1    21    1.1609E+05 -2.4500E+02   1.1634E+05  0.000E+00  0.000E+00  0.000E+00  3.88742E+01  1.583E-01  2.000E+01  2.000E+04 -1.225E-02
   1   14   22     1    22    1.1634E+05  5.3771E+03   1.1096E+05  0.000E+00  0.000E+00  0.000E+00  3.83948E+01  1.562E-01  2.000E+01  2.000E+04  2.689E-01
   1    9   30     2     1    5.0000E+04  9.3654E+02   4.9063E+04  0.000E+00  0.000E+00  0.000E+00  4.02402E+01  1.152E-01  2.000E+01  2.000E+04  4.683E-02
   1    9   29     2     2    4.9063E+04  6.0903E+02   4.8454E+04  0.000E+00  0.000E+00  0.000E+00  3.99891E+01  1.141E-01  2.000E+01  2.000E+04  3.045E-02
   1    9   28     2     3    4.8454E+04  7.4906E+01   4.8380E+04  0.000E+00  0.000E+00  0.000E+00  3.97387E+01  1.137E-01  2.000E+01  2.000E+04  3.745E-03
   1    9   27     2     4    4.8380E+04 -1.2132E+03   4.9593E+04  0.000E+00  0.000E+00  0.000E+00  3.94895E+01  1.145E-01  2.000E+01  2.000E+04 -6.066E-02
   1   10   26     2     5    4.9593E+04  4.0650E+02   4.9186E+04  0.000E+00  0.000E+00  0.000E+00  3.92400E+01  1.150E-01  2.000E+01  2.000E+04  2.032E-02
   1   11   25     2     6    4.9186E+04  1.7252E+03   4.7461E+04  0.000E+00  0.000E+00  0.000E+00  3.89885E+01  1.135E-01  2.000E+01  2.000E+04  8.626E-02
   1   12   24     2     7    4.7461E+04  2.6789E+03   4.4782E+04  0.000E+00  0.000E+00  0.000E+00  3.87354E+01  1.104E-01  2.000E+01  2.000E+04  1.339E-01
   1   13   23     2     8    4.4782E+04  3.3757E+02   4.4444E+04  0.000E+00  0.000E+00  0.000E+00  3.84832E+01  1.082E-01  2.000E+01  2.000E+04  1.688E-02
   1   14   22     2     9    4.4444E+04  2.1088E+03   4.2336E+04  0.000E+00  0.000E+00  0.000E+00  3.82314E+01  1.064E-01  2.000E+01  2.000E+04  1.054E-01
   1   14   22     3     1    1.5330E+05 -8.2565E+03   1.6155E+05  0.000E+00  0.000E+00  0.000E+00  3.77132E+01  1.576E-01  2.000E+01  2.000E+04 -4.128E-01
   1   15   23     3     2    1.6155E+05 -2.9577E+02   1.6185E+05  0.000E+00  0.000E+00  0.000E+00  3.68268E+01  1.602E-01  2.000E+01  2.000E+04 -1.479E-02
   1   15   24     3     3    1.6185E+05 -1.4866E+02   1.6200E+05  0.000E+00  0.000E+00  0.000E+00  3.59381E+01  1.603E-01  2.000E+01  2.000E+04 -7.433E-03
   1   15   25     3     4    1.6200E+05 -1.3641E+02   1.6214E+05  0.000E+00  0.000E+00  0.000E+00  3.50493E+01  1.604E-01  2.000E+01  2.000E+04 -6.820E-03
   1   15   26     3     5    1.6214E+05 -6.3276E+01   1.6220E+05  0.000E+00  0.000E+00  0.000E+00  3.41604E+01  1.604E-01  2.000E+01  2.000E+04 -3.164E-03
   1   16   27     3     6    1.6220E+05  1.3014E+01   1.6219E+05  0.000E+00  0.000E+00  0.000E+00  3.32716E+01  1.604E-01  2.000E+01  2.000E+04  6.507E-04
   1   17   28     3     7    1.6219E+05  2.4948E+01   1.6216E+05  0.000E+00  0.000E+00  0.000E+00  3.23827E+01  1.604E-01  2.000E+01  2.000E+04  1.247E-03
   1   18   29     3     8    1.6216E+05 -1.8603E+03   1.6402E+05  0.000E+00  0.000E+00  0.000E+00  3.14943E+01  1.610E-01  2.000E+01  2.000E+04 -9.301E-02
   1   18   30     3     9    1.6402E+05 -2.2514E+03   1.6627E+05  0.000E+00  0.000E+00  0.000E+00  3.06066E+01  1.622E-01  2.000E+01  2.000E+04 -1.126E-01



1
              HEAD IN LAYER   1 AT END OF TIME STEP   1 IN STRESS PERIOD   11
  ---------------------------------------------------------------------------

          1      2      3      4      5      6      7      8      9     10
         11     12     13     14     15     16     17     18     19     20
         21     22     23     24     25     26     27     28     29     30
 .........................................................................
   1  ****** ****** ****** ****** ****** ****** ****** ****** ****** ******
      ****** ****** ****** ****** ****** ****** ****** ****** ****** ******
      ****** ****** ****** ****** ****** ****** ****** ****** ****** ******
   2  ****** ****** ****** ****** ****** ****** ****** ****** ****** ******
      ****** ****** ****** ****** ****** ****** ****** ****** ****** ******
      ****** ****** ****** ****** ****** ****** ****** ****** ****** ******
   3  ****** ****** ****** ****** ****** ****** ****** ****** ****** ******
      ****** ****** ****** ****** ****** ****** ****** ****** ****** ******
      ****** ****** ****** ****** ****** ****** ****** ****** ****** ******
   4  ****** ****** ****** ****** ****** ****** ****** ****** ****** ******
      ****** ****** ****** ****** ****** ****** ****** ****** ****** ******
      ****** ****** ****** ****** ****** ****** ****** ****** ****** ******
   5  ****** ****** ****** ****** ****** ****** ****** ****** ****** ******
      ****** ****** ****** ****** ****** ****** ****** ****** ****** ******
      ****** ****** ****** ****** ****** ****** ****** ****** ****** ******
   6  ****** ****** ****** ****** ****** ****** ****** ****** ****** ******
      ****** ****** ****** ****** ****** ****** ****** ****** ****** ******
      ****** ****** ****** ****** ****** ****** ****** ****** ****** ******
   7  ****** ****** ****** ****** ****** ****** ****** ****** ****** ******
      ****** ****** ****** ****** ****** ****** ****** ****** ****** ******
      ****** ****** ****** ****** ****** ****** ****** ****** ****** ******
   8  ****** ****** ****** ****** ****** ****** ****** ****** ****** ******
      ****** ****** ****** ****** ****** ****** ****** ****** ****** ******
      ****** ****** ****** ****** ****** ****** ****** ****** ****** ******
   9  ****** ****** ****** ****** ****** ****** ****** ****** ****** ******
      ****** ****** ****** ****** ****** ****** ****** ****** ****** ******
      ****** ****** ****** ****** ****** ****** ****** ****** ****** ******
  10  ****** ****** ****** ****** ****** ****** ****** ****** ****** ******
      ****** ****** ****** ****** ****** ****** ****** ****** ****** ******
      ****** ****** ****** ****** ****** ****** ****** ****** ****** ******
  11  ****** ****** ****** ****** ****** ****** ****** ****** ****** ******
      ****** ****** ****** ****** ****** ****** ****** ****** ****** ******
      ****** ****** ****** ****** ****** ****** ****** ****** ****** ******
  12  ****** ****** ****** ****** ****** ****** ****** ****** ****** ******
      ****** ****** ****** ****** ****** ****** ****** ****** ****** ******
      ****** ****** ****** ****** ****** ****** ****** ****** ****** ******
  13  ****** ****** ****** ****** ****** ****** ****** ****** ****** ******
      ****** ****** ****** ****** ****** ****** ****** ****** ****** ******
      ****** ****** ****** ****** ****** ****** ****** ****** ****** ******
  14  ****** ****** ****** ****** ****** ****** ****** ****** ****** ******
      ****** ****** ****** ****** ****** ****** ****** ****** ****** ******
      ****** ****** ****** ****** ****** ****** ****** ****** ****** ******
  15  ****** ****** ****** ****** ****** ****** ****** ****** ****** ******
      ****** ****** ****** ****** ****** ****** ****** ****** ****** ******
      ****** ****** ****** ****** ****** ****** ****** ****** ****** ******
  16  ****** ****** ****** ****** ****** ****** ****** ****** ****** ******
      ****** ****** ****** ****** ****** ****** ****** ****** ****** ******
      ****** ****** ****** ****** ****** ****** ****** ****** ****** ******
  17  ****** ****** ****** ****** ****** ****** ****** ****** ****** ******
      ****** ****** ****** ****** ****** ****** ****** ****** ****** ******
      ****** ****** ****** ****** ****** ****** ****** ****** ****** ******
  18  ****** ****** ****** ****** ****** ****** ****** ****** ****** ******
      ****** ****** ****** ****** ****** ****** ****** ****** ****** ******
      ****** ****** ****** ****** ****** ****** ****** ****** ****** ******
  19  ****** ****** ****** ****** ****** ****** ****** ****** ****** ******
      ****** ****** ****** ****** ****** ****** ****** ****** ****** ******
      ****** ****** ****** ****** ****** ****** ****** ****** ****** ******
  20  ****** ****** ****** ****** ****** ****** ****** ****** ****** ******
      ****** ****** ****** ****** ****** ****** ****** ****** ****** ******
      ****** ****** ****** ****** ****** ****** ****** ****** ****** ******
  21  ****** ****** ****** ****** ****** ****** ****** ****** ****** ******
      ****** ****** ****** ****** ****** ****** ****** ****** ****** ******
      ****** ****** ****** ****** ****** ****** ****** ****** ****** ******
  22  ****** ****** ****** ****** ****** ****** ****** ****** ****** ******
      ****** ****** ****** ****** ****** ****** ****** ****** ****** ******
      ****** ****** ****** ****** ****** ****** ****** ****** ****** ******
  23  ****** ****** ****** ****** ****** ****** ****** ****** ****** ******
      ****** ****** ****** ****** ****** ****** ****** ****** ****** ******
      ****** ****** ****** ****** ****** ****** ****** ****** ****** ******
  24  ****** ****** ****** ****** ****** ****** ****** ****** ****** ******
      ****** ****** ****** ****** ****** ****** ****** ****** ****** ******
      ****** ****** ****** ****** ****** ****** ****** ****** ****** ******
  25  ****** ****** ****** ****** ****** ****** ****** ****** ****** ******
      ****** ****** ****** ****** ****** ****** ****** ****** ****** ******
      ****** ****** ****** ****** ****** ****** ****** ****** ****** ******

 HEAD WILL BE SAVED ON UNIT   51 AT END OF TIME STEP    1, STRESS PERIOD   11
1
  VOLUMETRIC BUDGET FOR ENTIRE MODEL AT END OF TIME STEP    1, STRESS PERIOD  11
  ------------------------------------------------------------------------------

     CUMULATIVE VOLUMES      L**3       RATES FOR THIS TIME STEP      L**3/T
     ------------------                 ------------------------

           IN:                                      IN:
           ---                                      ---
             STORAGE =    35120128.1242               STORAGE =       17881.8400
       CONSTANT HEAD =    27960248.4262         CONSTANT HEAD =       34012.8249
               WELLS =           0.0000                 WELLS =           0.0000
            RECHARGE =    23901600.0000              RECHARGE =           0.0000
      STREAM LEAKAGE =    11721257.1887        STREAM LEAKAGE =       15956.4102

            TOTAL IN =    98703233.7391              TOTAL IN =       67851.0751

          OUT:                                     OUT:
          ----                                     ----
             STORAGE =     2394559.1438               STORAGE =           0.0000
       CONSTANT HEAD =           0.0000         CONSTANT HEAD =           0.0000
               WELLS =    35764998.8823                 WELLS =       35622.5088
            RECHARGE =           0.0000              RECHARGE =           0.0000
      STREAM LEAKAGE =    60543677.6304        STREAM LEAKAGE =       32228.5711

           TOTAL OUT =    98703235.6566             TOTAL OUT =       67851.0800

            IN - OUT =          -1.9175              IN - OUT =      -4.8675E-03

 PERCENT DISCREPANCY =          -0.00     PERCENT DISCREPANCY =          -0.00






         TIME SUMMARY AT END OF TIME STEP    1 IN STRESS PERIOD   11
                    SECONDS     MINUTES      HOURS       DAYS        YEARS
                    -----------------------------------------------------------
   TIME STEP LENGTH 7.86240E+06 1.31040E+05  2184.0      91.000     0.24914    
 STRESS PERIOD TIME 7.86240E+06 1.31040E+05  2184.0      91.000     0.24914    
         TOTAL TIME 8.67456E+07 1.44576E+06  24096.      1004.0      2.7488    
1
1
                            STRESS PERIOD NO.   12, LENGTH =   91.00000    
                            -----------------------------------------------

                              NUMBER OF TIME STEPS =     1

                               MULTIPLIER FOR DELT =     1.500

                            INITIAL TIME STEP SIZE =   91.00000    

 WELL NO.  LAYER   ROW   COL   STRESS RATE         
 --------------------------------------------------
      1      1     14      6       0.000    
      2      1      3      9       0.000    
      3      1     20     10       0.000    
      4      1     14     20       0.000    
      5      1     21     19      -8385.    
      6      1     13     14      -6352.    
      7      1     11     23     -0.1199E+05
      8      1     12     29      -8894.    

      8 WELLS

                 RECHARGE =  1.000000E-03

 REUSING STREAM SEGMENT DATA FROM LAST STRESS PERIOD
 
 SOLVING FOR HEAD 


     7 CALLS TO PCG ROUTINE FOR TIME STEP   1 IN STRESS PERIOD   12
    24 TOTAL ITERATIONS

 OUTPUT CONTROL FOR STRESS PERIOD   12   TIME STEP    1
    SAVE BUDGET
    SAVE HEAD FOR ALL LAYERS
    PRINT HEAD FOR ALL LAYERS
 UBDSV2 SAVING "STREAMFLOW OUT  " ON UNIT  50 AT TIME STEP  1, STRESS PERIOD  12



 STREAM LISTING     PERIOD     12   STEP        1

 LAYER ROW COL. STREAM  RCH.  FLOW INTO     FLOW TO   FLOW OUT OF   OVRLND.     DIRECT     STREAM       STREAM     STREAM     STREAM   STREAMBED  STREAMBED
                SEG.NO.  NO.  STRM. RCH.    AQUIFER    STRM. RCH.    RUNOFF     PRECIP       ET          HEAD       DEPTH      WIDTH   CONDCTNC.   GRADIENT

   1   13    1     1     1    1.0000E+05 -1.6834E+03   1.0168E+05  0.000E+00  0.000E+00  0.000E+00  4.84067E+01  1.454E-01  2.000E+01  2.000E+04 -8.417E-02
   1   13    2     1     2    1.0168E+05 -2.6236E+03   1.0431E+05  0.000E+00  0.000E+00  0.000E+00  4.79313E+01  1.472E-01  2.000E+01  2.000E+04 -1.312E-01
   1   14    3     1     3    1.0431E+05 -4.3740E+02   1.0474E+05  0.000E+00  0.000E+00  0.000E+00  4.74554E+01  1.485E-01  2.000E+01  2.000E+04 -2.187E-02
   1   15    4     1     4    1.0474E+05 -4.0995E+02   1.0515E+05  0.000E+00  0.000E+00  0.000E+00  4.69785E+01  1.489E-01  2.000E+01  2.000E+04 -2.050E-02
   1   16    5     1     5    1.0515E+05 -1.5295E+03   1.0668E+05  0.000E+00  0.000E+00  0.000E+00  4.65020E+01  1.497E-01  2.000E+01  2.000E+04 -7.647E-02
   1   16    6     1     6    1.0668E+05 -9.6054E+02   1.0764E+05  0.000E+00  0.000E+00  0.000E+00  4.60258E+01  1.508E-01  2.000E+01  2.000E+04 -4.803E-02
   1   16    7     1     7    1.0764E+05 -9.3067E+02   1.0858E+05  0.000E+00  0.000E+00  0.000E+00  4.55493E+01  1.516E-01  2.000E+01  2.000E+04 -4.653E-02
   1   16    8     1     8    1.0858E+05 -9.0894E+02   1.0948E+05  0.000E+00  0.000E+00  0.000E+00  4.50728E+01  1.524E-01  2.000E+01  2.000E+04 -4.545E-02
   1   16    9     1     9    1.0948E+05 -8.7638E+02   1.1036E+05  0.000E+00  0.000E+00  0.000E+00  4.45963E+01  1.531E-01  2.000E+01  2.000E+04 -4.382E-02
   1   16   10     1    10    1.1036E+05 -8.2854E+02   1.1119E+05  0.000E+00  0.000E+00  0.000E+00  4.41197E+01  1.538E-01  2.000E+01  2.000E+04 -4.143E-02
   1   16   11     1    11    1.1119E+05 -7.6929E+02   1.1196E+05  0.000E+00  0.000E+00  0.000E+00  4.36431E+01  1.545E-01  2.000E+01  2.000E+04 -3.846E-02
   1   16   12     1    12    1.1196E+05 -1.0675E+03   1.1303E+05  0.000E+00  0.000E+00  0.000E+00  4.31666E+01  1.552E-01  2.000E+01  2.000E+04 -5.337E-02
   1   15   13     1    13    1.1303E+05 -7.0293E+02   1.1373E+05  0.000E+00  0.000E+00  0.000E+00  4.26901E+01  1.560E-01  2.000E+01  2.000E+04 -3.515E-02
   1   14   14     1    14    1.1373E+05  8.0671E+02   1.1292E+05  0.000E+00  0.000E+00  0.000E+00  4.22127E+01  1.559E-01  2.000E+01  2.000E+04  4.034E-02
   1   13   15     1    15    1.1292E+05  4.2783E+02   1.1249E+05  0.000E+00  0.000E+00  0.000E+00  4.17350E+01  1.554E-01  2.000E+01  2.000E+04  2.139E-02
   1   12   16     1    16    1.1249E+05 -2.0719E+03   1.1457E+05  0.000E+00  0.000E+00  0.000E+00  4.12584E+01  1.561E-01  2.000E+01  2.000E+04 -1.036E-01
   1   12   17     1    17    1.1457E+05 -1.4493E+03   1.1602E+05  0.000E+00  0.000E+00  0.000E+00  4.07825E+01  1.575E-01  2.000E+01  2.000E+04 -7.247E-02
   1   12   18     1    18    1.1602E+05 -1.3199E+03   1.1734E+05  0.000E+00  0.000E+00  0.000E+00  4.03064E+01  1.587E-01  2.000E+01  2.000E+04 -6.600E-02
   1   12   19     1    19    1.1734E+05 -1.3624E+03   1.1870E+05  0.000E+00  0.000E+00  0.000E+00  3.98302E+01  1.598E-01  2.000E+01  2.000E+04 -6.812E-02
   1   13   20     1    20    1.1870E+05 -5.7743E+02   1.1928E+05  0.000E+00  0.000E+00  0.000E+00  3.93537E+01  1.606E-01  2.000E+01  2.000E+04 -2.887E-02
   1   14   21     1    21    1.1928E+05 -4.3908E+02   1.1971E+05  0.000E+00  0.000E+00  0.000E+00  3.88769E+01  1.610E-01  2.000E+01  2.000E+04 -2.195E-02
   1   14   22     1    22    1.1971E+05  5.3228E+03   1.1439E+05  0.000E+00  0.000E+00  0.000E+00  3.83976E+01  1.590E-01  2.000E+01  2.000E+04  2.661E-01
   1    9   30     2     1    5.0000E+04  7.5997E+02   4.9240E+04  0.000E+00  0.000E+00  0.000E+00  4.02403E+01  1.153E-01  2.000E+01  2.000E+04  3.800E-02
   1    9   29     2     2    4.9240E+04  4.3449E+02   4.8806E+04  0.000E+00  0.000E+00  0.000E+00  3.99895E+01  1.145E-01  2.000E+01  2.000E+04  2.172E-02
   1    9   28     2     3    4.8806E+04 -9.6142E+01   4.8902E+04  0.000E+00  0.000E+00  0.000E+00  3.97393E+01  1.143E-01  2.000E+01  2.000E+04 -4.807E-03
   1    9   27     2     4    4.8902E+04 -1.4227E+03   5.0324E+04  0.000E+00  0.000E+00  0.000E+00  3.94903E+01  1.153E-01  2.000E+01  2.000E+04 -7.114E-02
   1   10   26     2     5    5.0324E+04  1.7632E+02   5.0148E+04  0.000E+00  0.000E+00  0.000E+00  3.92412E+01  1.162E-01  2.000E+01  2.000E+04  8.816E-03
   1   11   25     2     6    5.0148E+04  1.4990E+03   4.8649E+04  0.000E+00  0.000E+00  0.000E+00  3.89900E+01  1.150E-01  2.000E+01  2.000E+04  7.495E-02
   1   12   24     2     7    4.8649E+04  2.4725E+03   4.6177E+04  0.000E+00  0.000E+00  0.000E+00  3.87372E+01  1.122E-01  2.000E+01  2.000E+04  1.236E-01
   1   13   23     2     8    4.6177E+04  2.5992E+02   4.5917E+04  0.000E+00  0.000E+00  0.000E+00  3.84853E+01  1.103E-01  2.000E+01  2.000E+04  1.300E-02
   1   14   22     2     9    4.5917E+04  2.0427E+03   4.3874E+04  0.000E+00  0.000E+00  0.000E+00  3.82336E+01  1.086E-01  2.000E+01  2.000E+04  1.021E-01
   1   14   22     3     1    1.5827E+05 -8.3070E+03   1.6657E+05  0.000E+00  0.000E+00  0.000E+00  3.77161E+01  1.606E-01  2.000E+01  2.000E+04 -4.154E-01
   1   15   23     3     2    1.6657E+05 -3.6776E+02   1.6694E+05  0.000E+00  0.000E+00  0.000E+00  3.68298E+01  1.631E-01  2.000E+01  2.000E+04 -1.839E-02
   1   15   24     3     3    1.6694E+05 -2.1372E+02   1.6715E+05  0.000E+00  0.000E+00  0.000E+00  3.59411E+01  1.633E-01  2.000E+01  2.000E+04 -1.069E-02
   1   15   25     3     4    1.6715E+05 -2.0274E+02   1.6736E+05  0.000E+00  0.000E+00  0.000E+00  3.50523E+01  1.634E-01  2.000E+01  2.000E+04 -1.014E-02
   1   15   26     3     5    1.6736E+05 -1.4074E+02   1.6750E+05  0.000E+00  0.000E+00  0.000E+00  3.41635E+01  1.635E-01  2.000E+01  2.000E+04 -7.037E-03
   1   16   27     3     6    1.6750E+05 -7.3737E+01   1.6757E+05  0.000E+00  0.000E+00  0.000E+00  3.32747E+01  1.636E-01  2.000E+01  2.000E+04 -3.687E-03
   1   17   28     3     7    1.6757E+05 -1.9567E+02   1.6777E+05  0.000E+00  0.000E+00  0.000E+00  3.23859E+01  1.637E-01  2.000E+01  2.000E+04 -9.784E-03
   1   18   29     3     8    1.6777E+05 -2.0607E+03   1.6983E+05  0.000E+00  0.000E+00  0.000E+00  3.14977E+01  1.643E-01  2.000E+01  2.000E+04 -1.030E-01
   1   18   30     3     9    1.6983E+05 -2.4194E+03   1.7225E+05  0.000E+00  0.000E+00  0.000E+00  3.06101E+01  1.656E-01  2.000E+01  2.000E+04 -1.210E-01



1
              HEAD IN LAYER   1 AT END OF TIME STEP   1 IN STRESS PERIOD   12
  ---------------------------------------------------------------------------

          1      2      3      4      5      6      7      8      9     10
         11     12     13     14     15     16     17     18     19     20
         21     22     23     24     25     26     27     28     29     30
 .........................................................................
   1  ****** ****** ****** ****** ****** ****** ****** ****** ****** ******
      ****** ****** ****** ****** ****** ****** ****** ****** ****** ******
      ****** ****** ****** ****** ****** ****** ****** ****** ****** ******
   2  ****** ****** ****** ****** ****** ****** ****** ****** ****** ******
      ****** ****** ****** ****** ****** ****** ****** ****** ****** ******
      ****** ****** ****** ****** ****** ****** ****** ****** ****** ******
   3  ****** ****** ****** ****** ****** ****** ****** ****** ****** ******
      ****** ****** ****** ****** ****** ****** ****** ****** ****** ******
      ****** ****** ****** ****** ****** ****** ****** ****** ****** ******
   4  ****** ****** ****** ****** ****** ****** ****** ****** ****** ******
      ****** ****** ****** ****** ****** ****** ****** ****** ****** ******
      ****** ****** ****** ****** ****** ****** ****** ****** ****** ******
   5  ****** ****** ****** ****** ****** ****** ****** ****** ****** ******
      ****** ****** ****** ****** ****** ****** ****** ****** ****** ******
      ****** ****** ****** ****** ****** ****** ****** ****** ****** ******
   6  ****** ****** ****** ****** ****** ****** ****** ****** ****** ******
      ****** ****** ****** ****** ****** ****** ****** ****** ****** ******
      ****** ****** ****** ****** ****** ****** ****** ****** ****** ******
   7  ****** ****** ****** ****** ****** ****** ****** ****** ****** ******
      ****** ****** ****** ****** ****** ****** ****** ****** ****** ******
      ****** ****** ****** ****** ****** ****** ****** ****** ****** ******
   8  ****** ****** ****** ****** ****** ****** ****** ****** ****** ******
      ****** ****** ****** ****** ****** ****** ****** ****** ****** ******
      ****** ****** ****** ****** ****** ****** ****** ****** ****** ******
   9  ****** ****** ****** ****** ****** ****** ****** ****** ****** ******
      ****** ****** ****** ****** ****** ****** ****** ****** ****** ******
      ****** ****** ****** ****** ****** ****** ****** ****** ****** ******
  10  ****** ****** ****** ****** ****** ****** ****** ****** ****** ******
      ****** ****** ****** ****** ****** ****** ****** ****** ****** ******
      ****** ****** ****** ****** ****** ****** ****** ****** ****** ******
  11  ****** ****** ****** ****** ****** ****** ****** ****** ****** ******
      ****** ****** ****** ****** ****** ****** ****** ****** ****** ******
      ****** ****** ****** ****** ****** ****** ****** ****** ****** ******
  12  ****** ****** ****** ****** ****** ****** ****** ****** ****** ******
      ****** ****** ****** ****** ****** ****** ****** ****** ****** ******
      ****** ****** ****** ****** ****** ****** ****** ****** ****** ******
  13  ****** ****** ****** ****** ****** ****** ****** ****** ****** ******
      ****** ****** ****** ****** ****** ****** ****** ****** ****** ******
      ****** ****** ****** ****** ****** ****** ****** ****** ****** ******
  14  ****** ****** ****** ****** ****** ****** ****** ****** ****** ******
      ****** ****** ****** ****** ****** ****** ****** ****** ****** ******
      ****** ****** ****** ****** ****** ****** ****** ****** ****** ******
  15  ****** ****** ****** ****** ****** ****** ****** ****** ****** ******
      ****** ****** ****** ****** ****** ****** ****** ****** ****** ******
      ****** ****** ****** ****** ****** ****** ****** ****** ****** ******
  16  ****** ****** ****** ****** ****** ****** ****** ****** ****** ******
      ****** ****** ****** ****** ****** ****** ****** ****** ****** ******
      ****** ****** ****** ****** ****** ****** ****** ****** ****** ******
  17  ****** ****** ****** ****** ****** ****** ****** ****** ****** ******
      ****** ****** ****** ****** ****** ****** ****** ****** ****** ******
      ****** ****** ****** ****** ****** ****** ****** ****** ****** ******
  18  ****** ****** ****** ****** ****** ****** ****** ****** ****** ******
      ****** ****** ****** ****** ****** ****** ****** ****** ****** ******
      ****** ****** ****** ****** ****** ****** ****** ****** ****** ******
  19  ****** ****** ****** ****** ****** ****** ****** ****** ****** ******
      ****** ****** ****** ****** ****** ****** ****** ****** ****** ******
      ****** ****** ****** ****** ****** ****** ****** ****** ****** ******
  20  ****** ****** ****** ****** ****** ****** ****** ****** ****** ******
      ****** ****** ****** ****** ****** ****** ****** ****** ****** ******
      ****** ****** ****** ****** ****** ****** ****** ****** ****** ******
  21  ****** ****** ****** ****** ****** ****** ****** ****** ****** ******
      ****** ****** ****** ****** ****** ****** ****** ****** ****** ******
      ****** ****** ****** ****** ****** ****** ****** ****** ****** ******
  22  ****** ****** ****** ****** ****** ****** ****** ****** ****** ******
      ****** ****** ****** ****** ****** ****** ****** ****** ****** ******
      ****** ****** ****** ****** ****** ****** ****** ****** ****** ******
  23  ****** ****** ****** ****** ****** ****** ****** ****** ****** ******
      ****** ****** ****** ****** ****** ****** ****** ****** ****** ******
      ****** ****** ****** ****** ****** ****** ****** ****** ****** ******
  24  ****** ****** ****** ****** ****** ****** ****** ****** ****** ******
      ****** ****** ****** ****** ****** ****** ****** ****** ****** ******
      ****** ****** ****** ****** ****** ****** ****** ****** ****** ******
  25  ****** ****** ****** ****** ****** ****** ****** ****** ****** ******
      ****** ****** ****** ****** ****** ****** ****** ****** ****** ******
      ****** ****** ****** ****** ****** ****** ****** ****** ****** ******

 HEAD WILL BE SAVED ON UNIT   51 AT END OF TIME STEP    1, STRESS PERIOD   12
1
  VOLUMETRIC BUDGET FOR ENTIRE MODEL AT END OF TIME STEP    1, STRESS PERIOD  12
  ------------------------------------------------------------------------------

     CUMULATIVE VOLUMES      L**3       RATES FOR THIS TIME STEP      L**3/T
     ------------------                 ------------------------

           IN:                                      IN:
           ---                                      ---
             STORAGE =    35120749.2197               STORAGE =           6.8252
       CONSTANT HEAD =    30991656.0222         CONSTANT HEAD =       33312.1714
               WELLS =           0.0000                 WELLS =           0.0000
            RECHARGE =    26413200.0000              RECHARGE =       27600.0000
      STREAM LEAKAGE =    13013650.5062        STREAM LEAKAGE =       14202.1244

            TOTAL IN =   105539255.7482              TOTAL IN =       75121.1210

          OUT:                                     OUT:
          ----                                     ----
             STORAGE =     2672065.4726               STORAGE =        3049.5201
       CONSTANT HEAD =           0.0000         CONSTANT HEAD =           0.0000
               WELLS =    39006647.1874                 WELLS =       35622.5088
            RECHARGE =           0.0000              RECHARGE =           0.0000
      STREAM LEAKAGE =    63860544.9217        STREAM LEAKAGE =       36449.0911

           TOTAL OUT =   105539257.5817             TOTAL OUT =       75121.1201

            IN - OUT =          -1.8336              IN - OUT =       9.2211E-04

 PERCENT DISCREPANCY =          -0.00     PERCENT DISCREPANCY =           0.00






         TIME SUMMARY AT END OF TIME STEP    1 IN STRESS PERIOD   12
                    SECONDS     MINUTES      HOURS       DAYS        YEARS
                    -----------------------------------------------------------
   TIME STEP LENGTH 7.86240E+06 1.31040E+05  2184.0      91.000     0.24914    
 STRESS PERIOD TIME 7.86240E+06 1.31040E+05  2184.0      91.000     0.24914    
         TOTAL TIME 9.46080E+07 1.57680E+06  26280.      1095.0      2.9979    
1

 Run end date and time (yyyy/mm/dd hh:mm:ss): 2019/02/14 22:03:51
 Elapsed run time:  0.114 Seconds

