                                  MODFLOW-2005     
      U.S. GEOLOGICAL SURVEY MODULAR FINITE-DIFFERENCE GROUND-WATER FLOW MODEL
                            VERSION 1.11.00 8/8/2013

 LIST FILE: supply2.lst
                         UNIT   10

 OPENING ..\data\supply.dis
 FILE TYPE:DIS   UNIT   11   STATUS:OLD    
 FORMAT:FORMATTED              ACCESS:SEQUENTIAL          

 OPENING ..\data\supply.ba6
 FILE TYPE:BAS6   UNIT   12   STATUS:OLD    
 FORMAT:FORMATTED              ACCESS:SEQUENTIAL          

 OPENING ..\data\supply_het.bc6
 FILE TYPE:BCF6   UNIT   13   STATUS:OLD    
 FORMAT:FORMATTED              ACCESS:SEQUENTIAL          

 OPENING ..\data\supply.rch
 FILE TYPE:RCH   UNIT   15   STATUS:OLD    
 FORMAT:FORMATTED              ACCESS:SEQUENTIAL          

 OPENING ..\data\supply2.sfr
 FILE TYPE:SFR   UNIT   16   STATUS:OLD    
 FORMAT:FORMATTED              ACCESS:SEQUENTIAL          

 OPENING ..\data\supply.oc
 FILE TYPE:OC   UNIT   17   STATUS:OLD    
 FORMAT:FORMATTED              ACCESS:SEQUENTIAL          

 OPENING ..\data\supply.pcg
 FILE TYPE:PCG   UNIT   18   STATUS:OLD    
 FORMAT:FORMATTED              ACCESS:SEQUENTIAL          

 OPENING supply2.wel
 FILE TYPE:WEL   UNIT   19   STATUS:OLD    
 FORMAT:FORMATTED              ACCESS:SEQUENTIAL          

 OPENING supply2sf.cbc
 FILE TYPE:DATA(BINARY)   UNIT   50   STATUS:UNKNOWN
 FORMAT:BINARY                 ACCESS:SEQUENTIAL          

 OPENING supply2hd.bhd
 FILE TYPE:DATA(BINARY)   UNIT   51   STATUS:UNKNOWN
 FORMAT:BINARY                 ACCESS:SEQUENTIAL          

 BAS -- BASIC PACKAGE, VERSION 7, 5/2/2005 INPUT READ FROM UNIT   12
 
 MODFLOW was compiled using uniform precision
 Precision of REAL and DOUBLE PRECISION variables:          15

 DISCRETIZATION INPUT DATA READ FROM UNIT   11
    1 LAYERS        25 ROWS        30 COLUMNS
   12 STRESS PERIOD(S) IN SIMULATION
 MODEL TIME UNIT IS DAYS
 MODEL LENGTH UNIT IS UNDEFINED
  Confining bed flag for each layer:
   0

                     DELR =   200.000    

                     DELC =   200.000    

 TOP ELEVATION OF LAYER 1 =  100.0000    

   MODEL LAYER BOTTOM EL. =   0.00000     FOR LAYER   1


 STRESS PERIOD     LENGTH       TIME STEPS     MULTIPLIER FOR DELT    SS FLAG
 ----------------------------------------------------------------------------
        1         92.00000          1                    1.500         TR
        2         91.00000          1                    1.500         TR
        3         91.00000          1                    1.500         TR
        4         91.00000          1                    1.500         TR
        5         92.00000          1                    1.500         TR
        6         91.00000          1                    1.500         TR
        7         91.00000          1                    1.500         TR
        8         91.00000          1                    1.500         TR
        9         92.00000          1                    1.500         TR
       10         91.00000          1                    1.500         TR
       11         91.00000          1                    1.500         TR
       12         91.00000          1                    1.500         TR

 TRANSIENT SIMULATION



 
 #MODOFC transient water supply sample problem                                   
 #                                                                               
 THE FREE FORMAT OPTION HAS BEEN SELECTED



                     BOUNDARY ARRAY FOR LAYER   1
 READING ON UNIT   12 WITH FORMAT: (20I4)              

 AQUIFER HEAD WILL BE SET TO   0.0000     AT ALL NO-FLOW NODES (IBOUND=0).



                       INITIAL HEAD FOR LAYER   1
 READING ON UNIT   12 WITH FORMAT: (10F13.0)           

 OUTPUT CONTROL IS SPECIFIED ONLY AT TIME STEPS FOR WHICH OUTPUT IS DESIRED
 COMPACT CELL-BY-CELL BUDGET FILES WILL BE WRITTEN
 HEAD PRINT FORMAT CODE IS  18    DRAWDOWN PRINT FORMAT CODE IS   0
 HEADS WILL BE SAVED ON UNIT   51    DRAWDOWNS WILL BE SAVED ON UNIT    0

 BCF -- BLOCK-CENTERED FLOW PACKAGE, VERSION 7, 5/2/2005
         INPUT READ FROM UNIT 13
 TRANSIENT SIMULATION
 HEAD AT CELLS THAT CONVERT TO DRY=   0.0000    
 WETTING CAPABILITY IS NOT ACTIVE
      LAYER  LAYER-TYPE CODE     INTERBLOCK T
      --------------------------------------------
         1            0          0 -- HARMONIC    

 COLUMN TO ROW ANISOTROPY =  1.000000    

     PRIMARY STORAGE COEF =  5.000000E-02 FOR LAYER   1



               TRANSMIS. ALONG ROWS FOR LAYER   1
 READING ON UNIT   13 WITH FORMAT: (FREE)              

 WEL -- WELL PACKAGE, VERSION 7, 5/2/2005 INPUT READ FROM UNIT   19
 # Well package input file written by MMProc
 No named parameters
 MAXIMUM OF      8 ACTIVE WELLS AT ONE TIME


     0 Well parameters

 RCH -- RECHARGE PACKAGE, VERSION 7, 5/2/2005 INPUT READ FROM UNIT   15
 No named parameters
 OPTION 1 -- RECHARGE TO TOP LAYER


     0 Recharge parameters

 SFR7 -- STREAMFLOW ROUTING PACKAGE, VERSION 1.0.7, 2013-01-15
         INPUT READ FROM UNIT  16
 #  Supply2 test problem for GWM-VI
 #  The eighth entry in the first data line is ISTCB2 -
 #    Setting this to a negative number indicates that
 #    streamflows out of the reach will be saved to a
 #    binary file.  The absolute value of ISTCB2 is the
 #    unit to which unformatted flows will be written.
 #
 No named parameters
 Segment information will not be 
 read by reach
 No named parameters
 No specifed inflow files


 NUMBER OF STREAM REACHES IS   40

 NUMBER OF STREAM SEGMENTS IS    3

 NUMBER OF STREAM PARAMETERS IS    0

 NUMBER OF STREAM SEGMENTS DEFINED USING PARAMETERS IS              0

 MAXIMUM ERROR FOR STREAM LEAKAGE RATES IS  1.00E-04

 CONSTANT FOR MANNINGS EQUATION IS  1.2839E+05





   STREAM NETWORK DESCRIPTION: 

   LAYER    ROW    COL   SEGMENT   REACH     LENGTH
                          NUMBER   NUMBER    IN CELL        
   --------------------------------------------------
      1     13      1       1        1    2.0000E+02
      1     13      2       1        2    2.0000E+02
      1     14      3       1        3    2.0000E+02
      1     15      4       1        4    2.0000E+02
      1     16      5       1        5    2.0000E+02
      1     16      6       1        6    2.0000E+02
      1     16      7       1        7    2.0000E+02
      1     16      8       1        8    2.0000E+02
      1     16      9       1        9    2.0000E+02
      1     16     10       1       10    2.0000E+02
      1     16     11       1       11    2.0000E+02
      1     16     12       1       12    2.0000E+02
      1     15     13       1       13    2.0000E+02
      1     14     14       1       14    2.0000E+02
      1     13     15       1       15    2.0000E+02
      1     12     16       1       16    2.0000E+02
      1     12     17       1       17    2.0000E+02
      1     12     18       1       18    2.0000E+02
      1     12     19       1       19    2.0000E+02
      1     13     20       1       20    2.0000E+02
      1     14     21       1       21    2.0000E+02
      1     14     22       1       22    2.0000E+02
      1      9     30       2        1    2.0000E+02
      1      9     29       2        2    2.0000E+02
      1      9     28       2        3    2.0000E+02
      1      9     27       2        4    2.0000E+02
      1     10     26       2        5    2.0000E+02
      1     11     25       2        6    2.0000E+02
      1     12     24       2        7    2.0000E+02
      1     13     23       2        8    2.0000E+02
      1     14     22       2        9    2.0000E+02
      1     14     22       3        1    2.0000E+02
      1     15     23       3        2    2.0000E+02
      1     15     24       3        3    2.0000E+02
      1     15     25       3        4    2.0000E+02
      1     15     26       3        5    2.0000E+02
      1     16     27       3        6    2.0000E+02
      1     17     28       3        7    2.0000E+02
      1     18     29       3        8    2.0000E+02
      1     18     30       3        9    2.0000E+02




 PCG -- CONJUGATE-GRADIENT SOLUTION PACKAGE, VERSION 7, 5/2/2005
 MAXIMUM OF    500 CALLS OF SOLUTION ROUTINE
 MAXIMUM OF      5 INTERNAL ITERATIONS PER CALL TO SOLUTION ROUTINE
 MATRIX PRECONDITIONING TYPE :    1



                                    SOLUTION BY THE CONJUGATE-GRADIENT METHOD
                                   -------------------------------------------
                    MAXIMUM NUMBER OF CALLS TO PCG ROUTINE =      500
                        MAXIMUM ITERATIONS PER CALL TO PCG =        5
                               MATRIX PRECONDITIONING TYPE =        1
        RELAXATION FACTOR (ONLY USED WITH PRECOND. TYPE 1) =    0.10000E+01
 PARAMETER OF POLYNOMIAL PRECOND. = 2 (2) OR IS CALCULATED :        0
                         HEAD CHANGE CRITERION FOR CLOSURE =    0.10000E-05
                     RESIDUAL CHANGE CRITERION FOR CLOSURE =    0.10000E+01
            PCG HEAD AND RESIDUAL CHANGE PRINTOUT INTERVAL =        1
     PRINTING FROM SOLVER IS LIMITED(1) OR SUPPRESSED (>1) =        1
                            STEADY-STATE DAMPING PARAMETER =    0.10000E+01
                               TRANSIENT DAMPING PARAMETER =    0.10000E+01
1
                            STRESS PERIOD NO.    1, LENGTH =   92.00000    
                            -----------------------------------------------

                              NUMBER OF TIME STEPS =     1

                               MULTIPLIER FOR DELT =     1.500

                            INITIAL TIME STEP SIZE =   92.00000    

 WELL NO.  LAYER   ROW   COL   STRESS RATE         
 --------------------------------------------------
      1      1     14      6       0.000    
      2      1      3      9       0.000    
      3      1     20     10       0.000    
      4      1     14     20       0.000    
      5      1     16     16      -9666.    
      6      1      6     22      -5938.    
      7      1     19     13      -8939.    
      8      1      6     21      -5885.    

      8 WELLS

                 RECHARGE =  5.000000E-04



 CLASSIFICATION & COUNT OF STREAM SEGMENTS BASED ON SOURCE OF INFLOW:

                HEADWATER     DIVERSION     RECEIVES TRIBUTARY FLOW
                ---------     ---------     -----------------------
                     2              0               1



                    INPUT DATA FOR EACH STREAM SEGMENT
 ---------------------------------------------------------------------------------------------

 SEGMENT    SEG.     INFLOW   OVERLAND   STREAM    STREAM   ICALC  OUTFLOW  DIVERSION PRIORITY
    NO.    LENGTH     RATE     RUNOFF      ET       PPT.    METH.  TO SEG.  FROM SEG.    NO.

      1  4.400E+03 1.000E+05 0.000E+00 0.000E+00 0.000E+00    1        3        0        0
      2  1.800E+03 5.000E+04 0.000E+00 0.000E+00 0.000E+00    1        3        0        0
      3  1.800E+03 0.000E+00 0.000E+00 0.000E+00 0.000E+00    1        0        0        0


         STREAMBED PROPERTIES AND STREAM DIMENSIONS

 SEGMENT     BED HYD. COND.      BED THICKNESS     ELEV.-TOP OF BED     WIDTH OF STREAM     DEPTH OF STREAM    STREAM ROUGHNESS
    No.     UPPER     LOWER     UPPER     LOWER     UPPER     LOWER     UPPER     LOWER     UPPER     LOWER   CHANNEL      BANK

     1  5.000E+00 5.000E+00 1.000E+00 1.000E+00 4.850E+01 3.800E+01 2.000E+01 2.000E+01                     5.000E-02
     2  5.000E+00 5.000E+00 1.000E+00 1.000E+00 4.025E+01 3.800E+01 2.000E+01 2.000E+01                     5.000E-02
     3  5.000E+00 5.000E+00 1.000E+00 1.000E+00 3.800E+01 3.000E+01 2.000E+01 2.000E+01                     5.000E-02



 
 SOLVING FOR HEAD 


     9 CALLS TO PCG ROUTINE FOR TIME STEP   1 IN STRESS PERIOD    1
    36 TOTAL ITERATIONS

 OUTPUT CONTROL FOR STRESS PERIOD    1   TIME STEP    1
    SAVE BUDGET
    SAVE HEAD FOR ALL LAYERS
    PRINT HEAD FOR ALL LAYERS
 UBDSV2 SAVING "STREAMFLOW OUT  " ON UNIT  50 AT TIME STEP  1, STRESS PERIOD   1



 STREAM LISTING     PERIOD      1   STEP        1

 LAYER ROW COL. STREAM  RCH.  FLOW INTO     FLOW TO   FLOW OUT OF   OVRLND.     DIRECT     STREAM       STREAM     STREAM     STREAM   STREAMBED  STREAMBED
                SEG.NO.  NO.  STRM. RCH.    AQUIFER    STRM. RCH.    RUNOFF     PRECIP       ET          HEAD       DEPTH      WIDTH   CONDCTNC.   GRADIENT

   1   13    1     1     1    1.0000E+05 -6.1091E+03   1.0611E+05  0.000E+00  0.000E+00  0.000E+00  4.84087E+01  1.473E-01  2.000E+01  2.000E+04 -3.055E-01
   1   13    2     1     2    1.0611E+05 -7.5792E+03   1.1369E+05  0.000E+00  0.000E+00  0.000E+00  4.79372E+01  1.531E-01  2.000E+01  2.000E+04 -3.790E-01
   1   14    3     1     3    1.1369E+05 -2.1946E+03   1.1588E+05  0.000E+00  0.000E+00  0.000E+00  4.74639E+01  1.571E-01  2.000E+01  2.000E+04 -1.097E-01
   1   15    4     1     4    1.1588E+05 -2.2616E+03   1.1814E+05  0.000E+00  0.000E+00  0.000E+00  4.69885E+01  1.590E-01  2.000E+01  2.000E+04 -1.131E-01
   1   16    5     1     5    1.1814E+05 -7.0832E+03   1.2523E+05  0.000E+00  0.000E+00  0.000E+00  4.65150E+01  1.627E-01  2.000E+01  2.000E+04 -3.542E-01
   1   16    6     1     6    1.2523E+05 -4.2122E+03   1.2944E+05  0.000E+00  0.000E+00  0.000E+00  4.60422E+01  1.672E-01  2.000E+01  2.000E+04 -2.106E-01
   1   16    7     1     7    1.2944E+05 -4.0113E+03   1.3345E+05  0.000E+00  0.000E+00  0.000E+00  4.55682E+01  1.704E-01  2.000E+01  2.000E+04 -2.006E-01
   1   16    8     1     8    1.3345E+05 -3.9125E+03   1.3736E+05  0.000E+00  0.000E+00  0.000E+00  4.50940E+01  1.735E-01  2.000E+01  2.000E+04 -1.956E-01
   1   16    9     1     9    1.3736E+05 -3.8105E+03   1.4117E+05  0.000E+00  0.000E+00  0.000E+00  4.46196E+01  1.765E-01  2.000E+01  2.000E+04 -1.905E-01
   1   16   10     1    10    1.4117E+05 -3.6627E+03   1.4484E+05  0.000E+00  0.000E+00  0.000E+00  4.41452E+01  1.793E-01  2.000E+01  2.000E+04 -1.831E-01
   1   16   11     1    11    1.4484E+05 -3.4520E+03   1.4829E+05  0.000E+00  0.000E+00  0.000E+00  4.36706E+01  1.819E-01  2.000E+01  2.000E+04 -1.726E-01
   1   16   12     1    12    1.4829E+05 -5.2928E+03   1.5358E+05  0.000E+00  0.000E+00  0.000E+00  4.31965E+01  1.852E-01  2.000E+01  2.000E+04 -2.646E-01
   1   15   13     1    13    1.5358E+05 -5.8242E+03   1.5941E+05  0.000E+00  0.000E+00  0.000E+00  4.27233E+01  1.892E-01  2.000E+01  2.000E+04 -2.912E-01
   1   14   14     1    14    1.5941E+05 -6.4345E+03   1.6584E+05  0.000E+00  0.000E+00  0.000E+00  4.22505E+01  1.937E-01  2.000E+01  2.000E+04 -3.217E-01
   1   13   15     1    15    1.6584E+05 -7.1344E+03   1.7297E+05  0.000E+00  0.000E+00  0.000E+00  4.17780E+01  1.985E-01  2.000E+01  2.000E+04 -3.567E-01
   1   12   16     1    16    1.7297E+05 -8.3062E+03   1.8128E+05  0.000E+00  0.000E+00  0.000E+00  4.13061E+01  2.038E-01  2.000E+01  2.000E+04 -4.153E-01
   1   12   17     1    17    1.8128E+05 -5.7199E+03   1.8700E+05  0.000E+00  0.000E+00  0.000E+00  4.08336E+01  2.086E-01  2.000E+01  2.000E+04 -2.860E-01
   1   12   18     1    18    1.8700E+05 -5.5909E+03   1.9259E+05  0.000E+00  0.000E+00  0.000E+00  4.03602E+01  2.125E-01  2.000E+01  2.000E+04 -2.795E-01
   1   12   19     1    19    1.9259E+05 -7.1059E+03   1.9970E+05  0.000E+00  0.000E+00  0.000E+00  3.98872E+01  2.167E-01  2.000E+01  2.000E+04 -3.553E-01
   1   13   20     1    20    1.9970E+05 -6.1900E+03   2.0589E+05  0.000E+00  0.000E+00  0.000E+00  3.94143E+01  2.211E-01  2.000E+01  2.000E+04 -3.095E-01
   1   14   21     1    21    2.0589E+05 -5.8490E+03   2.1174E+05  0.000E+00  0.000E+00  0.000E+00  3.89409E+01  2.250E-01  2.000E+01  2.000E+04 -2.924E-01
   1   14   22     1    22    2.1174E+05  3.7107E+03   2.0803E+05  0.000E+00  0.000E+00  0.000E+00  3.84643E+01  2.257E-01  2.000E+01  2.000E+04  1.855E-01
   1    9   30     2     1    5.0000E+04 -4.7316E+03   5.4732E+04  0.000E+00  0.000E+00  0.000E+00  4.02441E+01  1.191E-01  2.000E+01  2.000E+04 -2.366E-01
   1    9   29     2     2    5.4732E+04 -5.0048E+03   5.9736E+04  0.000E+00  0.000E+00  0.000E+00  4.00007E+01  1.257E-01  2.000E+01  2.000E+04 -2.502E-01
   1    9   28     2     3    5.9736E+04 -5.2325E+03   6.4969E+04  0.000E+00  0.000E+00  0.000E+00  3.97573E+01  1.323E-01  2.000E+01  2.000E+04 -2.616E-01
   1    9   27     2     4    6.4969E+04 -7.7581E+03   7.2727E+04  0.000E+00  0.000E+00  0.000E+00  3.95154E+01  1.404E-01  2.000E+01  2.000E+04 -3.879E-01
   1   10   26     2     5    7.2727E+04 -6.8427E+03   7.9570E+04  0.000E+00  0.000E+00  0.000E+00  3.92741E+01  1.491E-01  2.000E+01  2.000E+04 -3.421E-01
   1   11   25     2     6    7.9570E+04 -6.3467E+03   8.5916E+04  0.000E+00  0.000E+00  0.000E+00  3.90318E+01  1.568E-01  2.000E+01  2.000E+04 -3.173E-01
   1   12   24     2     7    8.5916E+04 -5.9139E+03   9.1830E+04  0.000E+00  0.000E+00  0.000E+00  3.87886E+01  1.636E-01  2.000E+01  2.000E+04 -2.957E-01
   1   13   23     2     8    9.1830E+04 -1.5990E+03   9.3429E+04  0.000E+00  0.000E+00  0.000E+00  3.85427E+01  1.677E-01  2.000E+01  2.000E+04 -7.995E-02
   1   14   22     2     9    9.3429E+04  2.9310E+02   9.3136E+04  0.000E+00  0.000E+00  0.000E+00  3.82934E+01  1.684E-01  2.000E+01  2.000E+04  1.465E-02
   1   14   22     3     1    3.0116E+05 -9.7679E+03   3.1093E+05  0.000E+00  0.000E+00  0.000E+00  3.77904E+01  2.348E-01  2.000E+01  2.000E+04 -4.884E-01
   1   15   23     3     2    3.1093E+05 -1.9305E+03   3.1286E+05  0.000E+00  0.000E+00  0.000E+00  3.69042E+01  2.375E-01  2.000E+01  2.000E+04 -9.652E-02
   1   15   24     3     3    3.1286E+05 -1.5212E+03   3.1438E+05  0.000E+00  0.000E+00  0.000E+00  3.60161E+01  2.383E-01  2.000E+01  2.000E+04 -7.606E-02
   1   15   25     3     4    3.1438E+05 -1.5755E+03   3.1596E+05  0.000E+00  0.000E+00  0.000E+00  3.51279E+01  2.390E-01  2.000E+01  2.000E+04 -7.878E-02
   1   15   26     3     5    3.1596E+05 -1.8812E+03   3.1784E+05  0.000E+00  0.000E+00  0.000E+00  3.42398E+01  2.398E-01  2.000E+01  2.000E+04 -9.406E-02
   1   16   27     3     6    3.1784E+05 -2.1616E+03   3.2000E+05  0.000E+00  0.000E+00  0.000E+00  3.33518E+01  2.407E-01  2.000E+01  2.000E+04 -1.081E-01
   1   17   28     3     7    3.2000E+05 -6.5660E+03   3.2657E+05  0.000E+00  0.000E+00  0.000E+00  3.24649E+01  2.427E-01  2.000E+01  2.000E+04 -3.283E-01
   1   18   29     3     8    3.2657E+05 -7.9615E+03   3.3453E+05  0.000E+00  0.000E+00  0.000E+00  3.15793E+01  2.459E-01  2.000E+01  2.000E+04 -3.981E-01
   1   18   30     3     9    3.3453E+05 -7.1559E+03   3.4168E+05  0.000E+00  0.000E+00  0.000E+00  3.06937E+01  2.493E-01  2.000E+01  2.000E+04 -3.578E-01



1
              HEAD IN LAYER   1 AT END OF TIME STEP   1 IN STRESS PERIOD    1
  ---------------------------------------------------------------------------

          1      2      3      4      5      6      7      8      9     10
         11     12     13     14     15     16     17     18     19     20
         21     22     23     24     25     26     27     28     29     30
 .........................................................................
   1  ****** ****** ****** ****** ****** ****** ****** ****** ****** ******
      ****** ****** ****** ****** ****** ****** ****** ****** ****** ******
      ****** ****** ****** ****** ****** ****** ****** ****** ****** ******
   2  ****** ****** ****** ****** ****** ****** ****** ****** ****** ******
      ****** ****** ****** ****** ****** ****** ****** ****** ****** ******
      ****** ****** ****** ****** ****** ****** ****** ****** ****** ******
   3  ****** ****** ****** ****** ****** ****** ****** ****** ****** ******
      ****** ****** ****** ****** ****** ****** ****** ****** ****** ******
      ****** ****** ****** ****** ****** ****** ****** ****** ****** ******
   4  ****** ****** ****** ****** ****** ****** ****** ****** ****** ******
      ****** ****** ****** ****** ****** ****** ****** ****** ****** ******
      ****** ****** ****** ****** ****** ****** ****** ****** ****** ******
   5  ****** ****** ****** ****** ****** ****** ****** ****** ****** ******
      ****** ****** ****** ****** ****** ****** ****** ****** ****** ******
      ****** ****** ****** ****** ****** ****** ****** ****** ****** ******
   6  ****** ****** ****** ****** ****** ****** ****** ****** ****** ******
      ****** ****** ****** ****** ****** ****** ****** ****** ****** ******
      ****** ****** ****** ****** ****** ****** ****** ****** ****** ******
   7  ****** ****** ****** ****** ****** ****** ****** ****** ****** ******
      ****** ****** ****** ****** ****** ****** ****** ****** ****** ******
      ****** ****** ****** ****** ****** ****** ****** ****** ****** ******
   8  ****** ****** ****** ****** ****** ****** ****** ****** ****** ******
      ****** ****** ****** ****** ****** ****** ****** ****** ****** ******
      ****** ****** ****** ****** ****** ****** ****** ****** ****** ******
   9  ****** ****** ****** ****** ****** ****** ****** ****** ****** ******
      ****** ****** ****** ****** ****** ****** ****** ****** ****** ******
      ****** ****** ****** ****** ****** ****** ****** ****** ****** ******
  10  ****** ****** ****** ****** ****** ****** ****** ****** ****** ******
      ****** ****** ****** ****** ****** ****** ****** ****** ****** ******
      ****** ****** ****** ****** ****** ****** ****** ****** ****** ******
  11  ****** ****** ****** ****** ****** ****** ****** ****** ****** ******
      ****** ****** ****** ****** ****** ****** ****** ****** ****** ******
      ****** ****** ****** ****** ****** ****** ****** ****** ****** ******
  12  ****** ****** ****** ****** ****** ****** ****** ****** ****** ******
      ****** ****** ****** ****** ****** ****** ****** ****** ****** ******
      ****** ****** ****** ****** ****** ****** ****** ****** ****** ******
  13  ****** ****** ****** ****** ****** ****** ****** ****** ****** ******
      ****** ****** ****** ****** ****** ****** ****** ****** ****** ******
      ****** ****** ****** ****** ****** ****** ****** ****** ****** ******
  14  ****** ****** ****** ****** ****** ****** ****** ****** ****** ******
      ****** ****** ****** ****** ****** ****** ****** ****** ****** ******
      ****** ****** ****** ****** ****** ****** ****** ****** ****** ******
  15  ****** ****** ****** ****** ****** ****** ****** ****** ****** ******
      ****** ****** ****** ****** ****** ****** ****** ****** ****** ******
      ****** ****** ****** ****** ****** ****** ****** ****** ****** ******
  16  ****** ****** ****** ****** ****** ****** ****** ****** ****** ******
      ****** ****** ****** ****** ****** ****** ****** ****** ****** ******
      ****** ****** ****** ****** ****** ****** ****** ****** ****** ******
  17  ****** ****** ****** ****** ****** ****** ****** ****** ****** ******
      ****** ****** ****** ****** ****** ****** ****** ****** ****** ******
      ****** ****** ****** ****** ****** ****** ****** ****** ****** ******
  18  ****** ****** ****** ****** ****** ****** ****** ****** ****** ******
      ****** ****** ****** ****** ****** ****** ****** ****** ****** ******
      ****** ****** ****** ****** ****** ****** ****** ****** ****** ******
  19  ****** ****** ****** ****** ****** ****** ****** ****** ****** ******
      ****** ****** ****** ****** ****** ****** ****** ****** ****** ******
      ****** ****** ****** ****** ****** ****** ****** ****** ****** ******
  20  ****** ****** ****** ****** ****** ****** ****** ****** ****** ******
      ****** ****** ****** ****** ****** ****** ****** ****** ****** ******
      ****** ****** ****** ****** ****** ****** ****** ****** ****** ******
  21  ****** ****** ****** ****** ****** ****** ****** ****** ****** ******
      ****** ****** ****** ****** ****** ****** ****** ****** ****** ******
      ****** ****** ****** ****** ****** ****** ****** ****** ****** ******
  22  ****** ****** ****** ****** ****** ****** ****** ****** ****** ******
      ****** ****** ****** ****** ****** ****** ****** ****** ****** ******
      ****** ****** ****** ****** ****** ****** ****** ****** ****** ******
  23  ****** ****** ****** ****** ****** ****** ****** ****** ****** ******
      ****** ****** ****** ****** ****** ****** ****** ****** ****** ******
      ****** ****** ****** ****** ****** ****** ****** ****** ****** ******
  24  ****** ****** ****** ****** ****** ****** ****** ****** ****** ******
      ****** ****** ****** ****** ****** ****** ****** ****** ****** ******
      ****** ****** ****** ****** ****** ****** ****** ****** ****** ******
  25  ****** ****** ****** ****** ****** ****** ****** ****** ****** ******
      ****** ****** ****** ****** ****** ****** ****** ****** ****** ******
      ****** ****** ****** ****** ****** ****** ****** ****** ****** ******

 HEAD WILL BE SAVED ON UNIT   51 AT END OF TIME STEP    1, STRESS PERIOD    1
1
  VOLUMETRIC BUDGET FOR ENTIRE MODEL AT END OF TIME STEP    1, STRESS PERIOD   1
  ------------------------------------------------------------------------------

     CUMULATIVE VOLUMES      L**3       RATES FOR THIS TIME STEP      L**3/T
     ------------------                 ------------------------

           IN:                                      IN:
           ---                                      ---
             STORAGE =    17978744.1900               STORAGE =      195421.1325
       CONSTANT HEAD =     1186002.5067         CONSTANT HEAD =       12891.3316
               WELLS =           0.0000                 WELLS =           0.0000
            RECHARGE =     1269600.0000              RECHARGE =       13800.0000
      STREAM LEAKAGE =      368351.4262        STREAM LEAKAGE =        4003.8198

            TOTAL IN =    20802698.1229              TOTAL IN =      226116.2839

          OUT:                                     OUT:
          ----                                     ----
             STORAGE =           0.0000               STORAGE =           0.0000
       CONSTANT HEAD =           0.0000         CONSTANT HEAD =           0.0000
               WELLS =     2799481.3872                 WELLS =       30429.1455
            RECHARGE =           0.0000              RECHARGE =           0.0000
      STREAM LEAKAGE =    18003217.0291        STREAM LEAKAGE =      195687.1416

           TOTAL OUT =    20802698.4163             TOTAL OUT =      226116.2871

            IN - OUT =          -0.2934              IN - OUT =      -3.1892E-03

 PERCENT DISCREPANCY =          -0.00     PERCENT DISCREPANCY =          -0.00






         TIME SUMMARY AT END OF TIME STEP    1 IN STRESS PERIOD    1
                    SECONDS     MINUTES      HOURS       DAYS        YEARS
                    -----------------------------------------------------------
   TIME STEP LENGTH 7.94880E+06 1.32480E+05  2208.0      92.000     0.25188    
 STRESS PERIOD TIME 7.94880E+06 1.32480E+05  2208.0      92.000     0.25188    
         TOTAL TIME 7.94880E+06 1.32480E+05  2208.0      92.000     0.25188    
1
1
                            STRESS PERIOD NO.    2, LENGTH =   91.00000    
                            -----------------------------------------------

                              NUMBER OF TIME STEPS =     1

                               MULTIPLIER FOR DELT =     1.500

                            INITIAL TIME STEP SIZE =   91.00000    

 WELL NO.  LAYER   ROW   COL   STRESS RATE         
 --------------------------------------------------
      1      1     14      6       0.000    
      2      1      3      9       0.000    
      3      1     20     10       0.000    
      4      1     14     20       0.000    
      5      1     16     16      -9666.    
      6      1      6     22      -5938.    
      7      1     19     13      -8939.    
      8      1      6     21      -5885.    

      8 WELLS

                 RECHARGE =  2.000000E-03

 REUSING STREAM SEGMENT DATA FROM LAST STRESS PERIOD
 
 SOLVING FOR HEAD 


     7 CALLS TO PCG ROUTINE FOR TIME STEP   1 IN STRESS PERIOD    2
    27 TOTAL ITERATIONS

 OUTPUT CONTROL FOR STRESS PERIOD    2   TIME STEP    1
    SAVE BUDGET
    SAVE HEAD FOR ALL LAYERS
    PRINT HEAD FOR ALL LAYERS
 UBDSV2 SAVING "STREAMFLOW OUT  " ON UNIT  50 AT TIME STEP  1, STRESS PERIOD   2



 STREAM LISTING     PERIOD      2   STEP        1

 LAYER ROW COL. STREAM  RCH.  FLOW INTO     FLOW TO   FLOW OUT OF   OVRLND.     DIRECT     STREAM       STREAM     STREAM     STREAM   STREAMBED  STREAMBED
                SEG.NO.  NO.  STRM. RCH.    AQUIFER    STRM. RCH.    RUNOFF     PRECIP       ET          HEAD       DEPTH      WIDTH   CONDCTNC.   GRADIENT

   1   13    1     1     1    1.0000E+05 -3.9780E+03   1.0398E+05  0.000E+00  0.000E+00  0.000E+00  4.84077E+01  1.464E-01  2.000E+01  2.000E+04 -1.989E-01
   1   13    2     1     2    1.0398E+05 -5.2413E+03   1.0922E+05  0.000E+00  0.000E+00  0.000E+00  4.79344E+01  1.503E-01  2.000E+01  2.000E+04 -2.621E-01
   1   14    3     1     3    1.0922E+05 -1.1066E+03   1.1033E+05  0.000E+00  0.000E+00  0.000E+00  4.74598E+01  1.530E-01  2.000E+01  2.000E+04 -5.533E-02
   1   15    4     1     4    1.1033E+05 -1.1261E+03   1.1145E+05  0.000E+00  0.000E+00  0.000E+00  4.69835E+01  1.539E-01  2.000E+01  2.000E+04 -5.630E-02
   1   16    5     1     5    1.1145E+05 -4.0601E+03   1.1551E+05  0.000E+00  0.000E+00  0.000E+00  4.65083E+01  1.561E-01  2.000E+01  2.000E+04 -2.030E-01
   1   16    6     1     6    1.1551E+05 -2.3493E+03   1.1786E+05  0.000E+00  0.000E+00  0.000E+00  4.60337E+01  1.587E-01  2.000E+01  2.000E+04 -1.175E-01
   1   16    7     1     7    1.1786E+05 -2.2059E+03   1.2007E+05  0.000E+00  0.000E+00  0.000E+00  4.55583E+01  1.605E-01  2.000E+01  2.000E+04 -1.103E-01
   1   16    8     1     8    1.2007E+05 -2.0982E+03   1.2217E+05  0.000E+00  0.000E+00  0.000E+00  4.50827E+01  1.623E-01  2.000E+01  2.000E+04 -1.049E-01
   1   16    9     1     9    1.2217E+05 -1.9584E+03   1.2412E+05  0.000E+00  0.000E+00  0.000E+00  4.46071E+01  1.639E-01  2.000E+01  2.000E+04 -9.792E-02
   1   16   10     1    10    1.2412E+05 -1.7519E+03   1.2588E+05  0.000E+00  0.000E+00  0.000E+00  4.41313E+01  1.654E-01  2.000E+01  2.000E+04 -8.760E-02
   1   16   11     1    11    1.2588E+05 -1.4576E+03   1.2733E+05  0.000E+00  0.000E+00  0.000E+00  4.36553E+01  1.666E-01  2.000E+01  2.000E+04 -7.288E-02
   1   16   12     1    12    1.2733E+05 -1.9457E+03   1.2928E+05  0.000E+00  0.000E+00  0.000E+00  4.31793E+01  1.680E-01  2.000E+01  2.000E+04 -9.729E-02
   1   15   13     1    13    1.2928E+05 -2.2316E+03   1.3151E+05  0.000E+00  0.000E+00  0.000E+00  4.27037E+01  1.696E-01  2.000E+01  2.000E+04 -1.116E-01
   1   14   14     1    14    1.3151E+05 -2.7791E+03   1.3429E+05  0.000E+00  0.000E+00  0.000E+00  4.22284E+01  1.716E-01  2.000E+01  2.000E+04 -1.390E-01
   1   13   15     1    15    1.3429E+05 -3.5533E+03   1.3784E+05  0.000E+00  0.000E+00  0.000E+00  4.17536E+01  1.740E-01  2.000E+01  2.000E+04 -1.777E-01
   1   12   16     1    16    1.3784E+05 -4.9939E+03   1.4284E+05  0.000E+00  0.000E+00  0.000E+00  4.12795E+01  1.773E-01  2.000E+01  2.000E+04 -2.497E-01
   1   12   17     1    17    1.4284E+05 -3.0422E+03   1.4588E+05  0.000E+00  0.000E+00  0.000E+00  4.08053E+01  1.803E-01  2.000E+01  2.000E+04 -1.521E-01
   1   12   18     1    18    1.4588E+05 -2.8977E+03   1.4878E+05  0.000E+00  0.000E+00  0.000E+00  4.03302E+01  1.825E-01  2.000E+01  2.000E+04 -1.449E-01
   1   12   19     1    19    1.4878E+05 -3.7449E+03   1.5252E+05  0.000E+00  0.000E+00  0.000E+00  3.98554E+01  1.850E-01  2.000E+01  2.000E+04 -1.872E-01
   1   13   20     1    20    1.5252E+05 -2.8393E+03   1.5536E+05  0.000E+00  0.000E+00  0.000E+00  3.93806E+01  1.874E-01  2.000E+01  2.000E+04 -1.420E-01
   1   14   21     1    21    1.5536E+05 -2.8793E+03   1.5824E+05  0.000E+00  0.000E+00  0.000E+00  3.89054E+01  1.895E-01  2.000E+01  2.000E+04 -1.440E-01
   1   14   22     1    22    1.5824E+05  4.5047E+03   1.5374E+05  0.000E+00  0.000E+00  0.000E+00  3.84275E+01  1.889E-01  2.000E+01  2.000E+04  2.252E-01
   1    9   30     2     1    5.0000E+04 -1.9288E+03   5.1929E+04  0.000E+00  0.000E+00  0.000E+00  4.02422E+01  1.172E-01  2.000E+01  2.000E+04 -9.644E-02
   1    9   29     2     2    5.1929E+04 -2.2063E+03   5.4135E+04  0.000E+00  0.000E+00  0.000E+00  3.99950E+01  1.200E-01  2.000E+01  2.000E+04 -1.103E-01
   1    9   28     2     3    5.4135E+04 -2.4276E+03   5.6563E+04  0.000E+00  0.000E+00  0.000E+00  3.97482E+01  1.232E-01  2.000E+01  2.000E+04 -1.214E-01
   1    9   27     2     4    5.6563E+04 -4.0389E+03   6.0602E+04  0.000E+00  0.000E+00  0.000E+00  3.95024E+01  1.274E-01  2.000E+01  2.000E+04 -2.019E-01
   1   10   26     2     5    6.0602E+04 -3.0345E+03   6.3636E+04  0.000E+00  0.000E+00  0.000E+00  3.92570E+01  1.320E-01  2.000E+01  2.000E+04 -1.517E-01
   1   11   25     2     6    6.3636E+04 -2.7237E+03   6.6360E+04  0.000E+00  0.000E+00  0.000E+00  3.90106E+01  1.356E-01  2.000E+01  2.000E+04 -1.362E-01
   1   12   24     2     7    6.6360E+04 -2.6677E+03   6.9027E+04  0.000E+00  0.000E+00  0.000E+00  3.87640E+01  1.390E-01  2.000E+01  2.000E+04 -1.334E-01
   1   13   23     2     8    6.9027E+04 -5.3416E+02   6.9562E+04  0.000E+00  0.000E+00  0.000E+00  3.85159E+01  1.409E-01  2.000E+01  2.000E+04 -2.671E-02
   1   14   22     2     9    6.9562E+04  1.2640E+03   6.8298E+04  0.000E+00  0.000E+00  0.000E+00  3.82655E+01  1.405E-01  2.000E+01  2.000E+04  6.320E-02
   1   14   22     3     1    2.2203E+05 -9.0133E+03   2.3105E+05  0.000E+00  0.000E+00  0.000E+00  3.77516E+01  1.961E-01  2.000E+01  2.000E+04 -4.507E-01
   1   15   23     3     2    2.3105E+05 -9.5566E+02   2.3200E+05  0.000E+00  0.000E+00  0.000E+00  3.68653E+01  1.986E-01  2.000E+01  2.000E+04 -4.778E-02
   1   15   24     3     3    2.3200E+05 -6.4676E+02   2.3265E+05  0.000E+00  0.000E+00  0.000E+00  3.59768E+01  1.990E-01  2.000E+01  2.000E+04 -3.234E-02
   1   15   25     3     4    2.3265E+05 -6.6191E+02   2.3331E+05  0.000E+00  0.000E+00  0.000E+00  3.50883E+01  1.994E-01  2.000E+01  2.000E+04 -3.310E-02
   1   15   26     3     5    2.3331E+05 -7.6852E+02   2.3408E+05  0.000E+00  0.000E+00  0.000E+00  3.41998E+01  1.998E-01  2.000E+01  2.000E+04 -3.843E-02
   1   16   27     3     6    2.3408E+05 -8.9085E+02   2.3497E+05  0.000E+00  0.000E+00  0.000E+00  3.33113E+01  2.002E-01  2.000E+01  2.000E+04 -4.454E-02
   1   17   28     3     7    2.3497E+05 -3.2237E+03   2.3819E+05  0.000E+00  0.000E+00  0.000E+00  3.24235E+01  2.012E-01  2.000E+01  2.000E+04 -1.612E-01
   1   18   29     3     8    2.3819E+05 -4.9757E+03   2.4317E+05  0.000E+00  0.000E+00  0.000E+00  3.15366E+01  2.033E-01  2.000E+01  2.000E+04 -2.488E-01
   1   18   30     3     9    2.4317E+05 -4.6383E+03   2.4781E+05  0.000E+00  0.000E+00  0.000E+00  3.06502E+01  2.057E-01  2.000E+01  2.000E+04 -2.319E-01



1
              HEAD IN LAYER   1 AT END OF TIME STEP   1 IN STRESS PERIOD    2
  ---------------------------------------------------------------------------

          1      2      3      4      5      6      7      8      9     10
         11     12     13     14     15     16     17     18     19     20
         21     22     23     24     25     26     27     28     29     30
 .........................................................................
   1  ****** ****** ****** ****** ****** ****** ****** ****** ****** ******
      ****** ****** ****** ****** ****** ****** ****** ****** ****** ******
      ****** ****** ****** ****** ****** ****** ****** ****** ****** ******
   2  ****** ****** ****** ****** ****** ****** ****** ****** ****** ******
      ****** ****** ****** ****** ****** ****** ****** ****** ****** ******
      ****** ****** ****** ****** ****** ****** ****** ****** ****** ******
   3  ****** ****** ****** ****** ****** ****** ****** ****** ****** ******
      ****** ****** ****** ****** ****** ****** ****** ****** ****** ******
      ****** ****** ****** ****** ****** ****** ****** ****** ****** ******
   4  ****** ****** ****** ****** ****** ****** ****** ****** ****** ******
      ****** ****** ****** ****** ****** ****** ****** ****** ****** ******
      ****** ****** ****** ****** ****** ****** ****** ****** ****** ******
   5  ****** ****** ****** ****** ****** ****** ****** ****** ****** ******
      ****** ****** ****** ****** ****** ****** ****** ****** ****** ******
      ****** ****** ****** ****** ****** ****** ****** ****** ****** ******
   6  ****** ****** ****** ****** ****** ****** ****** ****** ****** ******
      ****** ****** ****** ****** ****** ****** ****** ****** ****** ******
      ****** ****** ****** ****** ****** ****** ****** ****** ****** ******
   7  ****** ****** ****** ****** ****** ****** ****** ****** ****** ******
      ****** ****** ****** ****** ****** ****** ****** ****** ****** ******
      ****** ****** ****** ****** ****** ****** ****** ****** ****** ******
   8  ****** ****** ****** ****** ****** ****** ****** ****** ****** ******
      ****** ****** ****** ****** ****** ****** ****** ****** ****** ******
      ****** ****** ****** ****** ****** ****** ****** ****** ****** ******
   9  ****** ****** ****** ****** ****** ****** ****** ****** ****** ******
      ****** ****** ****** ****** ****** ****** ****** ****** ****** ******
      ****** ****** ****** ****** ****** ****** ****** ****** ****** ******
  10  ****** ****** ****** ****** ****** ****** ****** ****** ****** ******
      ****** ****** ****** ****** ****** ****** ****** ****** ****** ******
      ****** ****** ****** ****** ****** ****** ****** ****** ****** ******
  11  ****** ****** ****** ****** ****** ****** ****** ****** ****** ******
      ****** ****** ****** ****** ****** ****** ****** ****** ****** ******
      ****** ****** ****** ****** ****** ****** ****** ****** ****** ******
  12  ****** ****** ****** ****** ****** ****** ****** ****** ****** ******
      ****** ****** ****** ****** ****** ****** ****** ****** ****** ******
      ****** ****** ****** ****** ****** ****** ****** ****** ****** ******
  13  ****** ****** ****** ****** ****** ****** ****** ****** ****** ******
      ****** ****** ****** ****** ****** ****** ****** ****** ****** ******
      ****** ****** ****** ****** ****** ****** ****** ****** ****** ******
  14  ****** ****** ****** ****** ****** ****** ****** ****** ****** ******
      ****** ****** ****** ****** ****** ****** ****** ****** ****** ******
      ****** ****** ****** ****** ****** ****** ****** ****** ****** ******
  15  ****** ****** ****** ****** ****** ****** ****** ****** ****** ******
      ****** ****** ****** ****** ****** ****** ****** ****** ****** ******
      ****** ****** ****** ****** ****** ****** ****** ****** ****** ******
  16  ****** ****** ****** ****** ****** ****** ****** ****** ****** ******
      ****** ****** ****** ****** ****** ****** ****** ****** ****** ******
      ****** ****** ****** ****** ****** ****** ****** ****** ****** ******
  17  ****** ****** ****** ****** ****** ****** ****** ****** ****** ******
      ****** ****** ****** ****** ****** ****** ****** ****** ****** ******
      ****** ****** ****** ****** ****** ****** ****** ****** ****** ******
  18  ****** ****** ****** ****** ****** ****** ****** ****** ****** ******
      ****** ****** ****** ****** ****** ****** ****** ****** ****** ******
      ****** ****** ****** ****** ****** ****** ****** ****** ****** ******
  19  ****** ****** ****** ****** ****** ****** ****** ****** ****** ******
      ****** ****** ****** ****** ****** ****** ****** ****** ****** ******
      ****** ****** ****** ****** ****** ****** ****** ****** ****** ******
  20  ****** ****** ****** ****** ****** ****** ****** ****** ****** ******
      ****** ****** ****** ****** ****** ****** ****** ****** ****** ******
      ****** ****** ****** ****** ****** ****** ****** ****** ****** ******
  21  ****** ****** ****** ****** ****** ****** ****** ****** ****** ******
      ****** ****** ****** ****** ****** ****** ****** ****** ****** ******
      ****** ****** ****** ****** ****** ****** ****** ****** ****** ******
  22  ****** ****** ****** ****** ****** ****** ****** ****** ****** ******
      ****** ****** ****** ****** ****** ****** ****** ****** ****** ******
      ****** ****** ****** ****** ****** ****** ****** ****** ****** ******
  23  ****** ****** ****** ****** ****** ****** ****** ****** ****** ******
      ****** ****** ****** ****** ****** ****** ****** ****** ****** ******
      ****** ****** ****** ****** ****** ****** ****** ****** ****** ******
  24  ****** ****** ****** ****** ****** ****** ****** ****** ****** ******
      ****** ****** ****** ****** ****** ****** ****** ****** ****** ******
      ****** ****** ****** ****** ****** ****** ****** ****** ****** ******
  25  ****** ****** ****** ****** ****** ****** ****** ****** ****** ******
      ****** ****** ****** ****** ****** ****** ****** ****** ****** ******
      ****** ****** ****** ****** ****** ****** ****** ****** ****** ******

 HEAD WILL BE SAVED ON UNIT   51 AT END OF TIME STEP    1, STRESS PERIOD    2
1
  VOLUMETRIC BUDGET FOR ENTIRE MODEL AT END OF TIME STEP    1, STRESS PERIOD   2
  ------------------------------------------------------------------------------

     CUMULATIVE VOLUMES      L**3       RATES FOR THIS TIME STEP      L**3/T
     ------------------                 ------------------------

           IN:                                      IN:
           ---                                      ---
             STORAGE =    23012565.5346               STORAGE =       55316.7181
       CONSTANT HEAD =     2798563.6377         CONSTANT HEAD =       17720.4520
               WELLS =           0.0000                 WELLS =           0.0000
            RECHARGE =     6292800.0000              RECHARGE =       55200.0000
      STREAM LEAKAGE =      893299.4827        STREAM LEAKAGE =        5768.6600

            TOTAL IN =    32997228.6549              TOTAL IN =      134005.8300

          OUT:                                     OUT:
          ----                                     ----
             STORAGE =           0.0000               STORAGE =           0.0000
       CONSTANT HEAD =           0.0000         CONSTANT HEAD =           0.0000
               WELLS =     5568533.6288                 WELLS =       30429.1455
            RECHARGE =           0.0000              RECHARGE =           0.0000
      STREAM LEAKAGE =    27428696.2824        STREAM LEAKAGE =      103576.6951

           TOTAL OUT =    32997229.9112             TOTAL OUT =      134005.8406

            IN - OUT =          -1.2563              IN - OUT =      -1.0581E-02

 PERCENT DISCREPANCY =          -0.00     PERCENT DISCREPANCY =          -0.00






         TIME SUMMARY AT END OF TIME STEP    1 IN STRESS PERIOD    2
                    SECONDS     MINUTES      HOURS       DAYS        YEARS
                    -----------------------------------------------------------
   TIME STEP LENGTH 7.86240E+06 1.31040E+05  2184.0      91.000     0.24914    
 STRESS PERIOD TIME 7.86240E+06 1.31040E+05  2184.0      91.000     0.24914    
         TOTAL TIME 1.58112E+07 2.63520E+05  4392.0      183.00     0.50103    
1
1
                            STRESS PERIOD NO.    3, LENGTH =   91.00000    
                            -----------------------------------------------

                              NUMBER OF TIME STEPS =     1

                               MULTIPLIER FOR DELT =     1.500

                            INITIAL TIME STEP SIZE =   91.00000    

 WELL NO.  LAYER   ROW   COL   STRESS RATE         
 --------------------------------------------------
      1      1     14      6       0.000    
      2      1      3      9       0.000    
      3      1     20     10       0.000    
      4      1     14     20       0.000    
      5      1     16     16      -9666.    
      6      1      6     22      -5938.    
      7      1     19     13      -8939.    
      8      1      6     21      -5885.    

      8 WELLS

                 RECHARGE =   0.00000    

 REUSING STREAM SEGMENT DATA FROM LAST STRESS PERIOD
 
 SOLVING FOR HEAD 


     7 CALLS TO PCG ROUTINE FOR TIME STEP   1 IN STRESS PERIOD    3
    27 TOTAL ITERATIONS

 OUTPUT CONTROL FOR STRESS PERIOD    3   TIME STEP    1
    SAVE BUDGET
    SAVE HEAD FOR ALL LAYERS
    PRINT HEAD FOR ALL LAYERS
 UBDSV2 SAVING "STREAMFLOW OUT  " ON UNIT  50 AT TIME STEP  1, STRESS PERIOD   3



 STREAM LISTING     PERIOD      3   STEP        1

 LAYER ROW COL. STREAM  RCH.  FLOW INTO     FLOW TO   FLOW OUT OF   OVRLND.     DIRECT     STREAM       STREAM     STREAM     STREAM   STREAMBED  STREAMBED
                SEG.NO.  NO.  STRM. RCH.    AQUIFER    STRM. RCH.    RUNOFF     PRECIP       ET          HEAD       DEPTH      WIDTH   CONDCTNC.   GRADIENT

   1   13    1     1     1    1.0000E+05 -2.7184E+03   1.0272E+05  0.000E+00  0.000E+00  0.000E+00  4.84072E+01  1.458E-01  2.000E+01  2.000E+04 -1.359E-01
   1   13    2     1     2    1.0272E+05 -3.8291E+03   1.0655E+05  0.000E+00  0.000E+00  0.000E+00  4.79327E+01  1.486E-01  2.000E+01  2.000E+04 -1.915E-01
   1   14    3     1     3    1.0655E+05 -6.4211E+02   1.0719E+05  0.000E+00  0.000E+00  0.000E+00  4.74574E+01  1.505E-01  2.000E+01  2.000E+04 -3.211E-02
   1   15    4     1     4    1.0719E+05 -6.1470E+02   1.0780E+05  0.000E+00  0.000E+00  0.000E+00  4.69806E+01  1.511E-01  2.000E+01  2.000E+04 -3.073E-02
   1   16    5     1     5    1.0780E+05 -2.2070E+03   1.1001E+05  0.000E+00  0.000E+00  0.000E+00  4.65045E+01  1.523E-01  2.000E+01  2.000E+04 -1.104E-01
   1   16    6     1     6    1.1001E+05 -1.3095E+03   1.1132E+05  0.000E+00  0.000E+00  0.000E+00  4.60287E+01  1.537E-01  2.000E+01  2.000E+04 -6.547E-02
   1   16    7     1     7    1.1132E+05 -1.2207E+03   1.1254E+05  0.000E+00  0.000E+00  0.000E+00  4.55525E+01  1.548E-01  2.000E+01  2.000E+04 -6.103E-02
   1   16    8     1     8    1.1254E+05 -1.1249E+03   1.1367E+05  0.000E+00  0.000E+00  0.000E+00  4.50762E+01  1.557E-01  2.000E+01  2.000E+04 -5.624E-02
   1   16    9     1     9    1.1367E+05 -9.8155E+02   1.1465E+05  0.000E+00  0.000E+00  0.000E+00  4.45998E+01  1.566E-01  2.000E+01  2.000E+04 -4.908E-02
   1   16   10     1    10    1.1465E+05 -7.6546E+02   1.1541E+05  0.000E+00  0.000E+00  0.000E+00  4.41232E+01  1.573E-01  2.000E+01  2.000E+04 -3.827E-02
   1   16   11     1    11    1.1541E+05 -4.5100E+02   1.1586E+05  0.000E+00  0.000E+00  0.000E+00  4.36465E+01  1.578E-01  2.000E+01  2.000E+04 -2.255E-02
   1   16   12     1    12    1.1586E+05 -1.8034E+02   1.1604E+05  0.000E+00  0.000E+00  0.000E+00  4.31695E+01  1.581E-01  2.000E+01  2.000E+04 -9.017E-03
   1   15   13     1    13    1.1604E+05 -4.6563E+02   1.1651E+05  0.000E+00  0.000E+00  0.000E+00  4.26924E+01  1.584E-01  2.000E+01  2.000E+04 -2.328E-02
   1   14   14     1    14    1.1651E+05 -9.8374E+02   1.1749E+05  0.000E+00  0.000E+00  0.000E+00  4.22158E+01  1.589E-01  2.000E+01  2.000E+04 -4.919E-02
   1   13   15     1    15    1.1749E+05 -1.7683E+03   1.1926E+05  0.000E+00  0.000E+00  0.000E+00  4.17396E+01  1.601E-01  2.000E+01  2.000E+04 -8.841E-02
   1   12   16     1    16    1.1926E+05 -3.1563E+03   1.2242E+05  0.000E+00  0.000E+00  0.000E+00  4.12643E+01  1.621E-01  2.000E+01  2.000E+04 -1.578E-01
   1   12   17     1    17    1.2242E+05 -1.6946E+03   1.2411E+05  0.000E+00  0.000E+00  0.000E+00  4.07890E+01  1.640E-01  2.000E+01  2.000E+04 -8.473E-02
   1   12   18     1    18    1.2411E+05 -1.5637E+03   1.2568E+05  0.000E+00  0.000E+00  0.000E+00  4.03130E+01  1.653E-01  2.000E+01  2.000E+04 -7.819E-02
   1   12   19     1    19    1.2568E+05 -2.0653E+03   1.2774E+05  0.000E+00  0.000E+00  0.000E+00  3.98372E+01  1.667E-01  2.000E+01  2.000E+04 -1.033E-01
   1   13   20     1    20    1.2774E+05 -1.2947E+03   1.2904E+05  0.000E+00  0.000E+00  0.000E+00  3.93612E+01  1.681E-01  2.000E+01  2.000E+04 -6.474E-02
   1   14   21     1    21    1.2904E+05 -1.3031E+03   1.3034E+05  0.000E+00  0.000E+00  0.000E+00  3.88850E+01  1.691E-01  2.000E+01  2.000E+04 -6.516E-02
   1   14   22     1    22    1.3034E+05  4.8757E+03   1.2546E+05  0.000E+00  0.000E+00  0.000E+00  3.84063E+01  1.677E-01  2.000E+01  2.000E+04  2.438E-01
   1    9   30     2     1    5.0000E+04 -6.8524E+02   5.0685E+04  0.000E+00  0.000E+00  0.000E+00  4.02413E+01  1.163E-01  2.000E+01  2.000E+04 -3.426E-02
   1    9   29     2     2    5.0685E+04 -9.6114E+02   5.1646E+04  0.000E+00  0.000E+00  0.000E+00  3.99925E+01  1.175E-01  2.000E+01  2.000E+04 -4.806E-02
   1    9   28     2     3    5.1646E+04 -1.1607E+03   5.2807E+04  0.000E+00  0.000E+00  0.000E+00  3.97439E+01  1.189E-01  2.000E+01  2.000E+04 -5.803E-02
   1    9   27     2     4    5.2807E+04 -2.1842E+03   5.4991E+04  0.000E+00  0.000E+00  0.000E+00  3.94962E+01  1.212E-01  2.000E+01  2.000E+04 -1.092E-01
   1   10   26     2     5    5.4991E+04 -1.3230E+03   5.6314E+04  0.000E+00  0.000E+00  0.000E+00  3.92486E+01  1.236E-01  2.000E+01  2.000E+04 -6.615E-02
   1   11   25     2     6    5.6314E+04 -1.1367E+03   5.7451E+04  0.000E+00  0.000E+00  0.000E+00  3.90002E+01  1.252E-01  2.000E+01  2.000E+04 -5.683E-02
   1   12   24     2     7    5.7451E+04 -1.2487E+03   5.8700E+04  0.000E+00  0.000E+00  0.000E+00  3.87518E+01  1.268E-01  2.000E+01  2.000E+04 -6.243E-02
   1   13   23     2     8    5.8700E+04 -1.8895E+02   5.8889E+04  0.000E+00  0.000E+00  0.000E+00  3.85027E+01  1.277E-01  2.000E+01  2.000E+04 -9.448E-03
   1   14   22     2     9    5.8889E+04  1.7827E+03   5.7106E+04  0.000E+00  0.000E+00  0.000E+00  3.82517E+01  1.267E-01  2.000E+01  2.000E+04  8.913E-02
   1   14   22     3     1    1.8257E+05 -8.6456E+03   1.9122E+05  0.000E+00  0.000E+00  0.000E+00  3.77302E+01  1.747E-01  2.000E+01  2.000E+04 -4.323E-01
   1   15   23     3     2    1.9122E+05 -5.4683E+02   1.9176E+05  0.000E+00  0.000E+00  0.000E+00  3.68439E+01  1.773E-01  2.000E+01  2.000E+04 -2.734E-02
   1   15   24     3     3    1.9176E+05 -3.1924E+02   1.9208E+05  0.000E+00  0.000E+00  0.000E+00  3.59553E+01  1.775E-01  2.000E+01  2.000E+04 -1.596E-02
   1   15   25     3     4    1.9208E+05 -3.1981E+02   1.9240E+05  0.000E+00  0.000E+00  0.000E+00  3.50666E+01  1.777E-01  2.000E+01  2.000E+04 -1.599E-02
   1   15   26     3     5    1.9240E+05 -3.6315E+02   1.9277E+05  0.000E+00  0.000E+00  0.000E+00  3.41779E+01  1.779E-01  2.000E+01  2.000E+04 -1.816E-02
   1   16   27     3     6    1.9277E+05 -4.2236E+02   1.9319E+05  0.000E+00  0.000E+00  0.000E+00  3.32892E+01  1.781E-01  2.000E+01  2.000E+04 -2.112E-02
   1   17   28     3     7    1.9319E+05 -1.7988E+03   1.9499E+05  0.000E+00  0.000E+00  0.000E+00  3.24009E+01  1.787E-01  2.000E+01  2.000E+04 -8.994E-02
   1   18   29     3     8    1.9499E+05 -3.4282E+03   1.9841E+05  0.000E+00  0.000E+00  0.000E+00  3.15135E+01  1.801E-01  2.000E+01  2.000E+04 -1.714E-01
   1   18   30     3     9    1.9841E+05 -3.4839E+03   2.0190E+05  0.000E+00  0.000E+00  0.000E+00  3.06265E+01  1.820E-01  2.000E+01  2.000E+04 -1.742E-01



1
              HEAD IN LAYER   1 AT END OF TIME STEP   1 IN STRESS PERIOD    3
  ---------------------------------------------------------------------------

          1      2      3      4      5      6      7      8      9     10
         11     12     13     14     15     16     17     18     19     20
         21     22     23     24     25     26     27     28     29     30
 .........................................................................
   1  ****** ****** ****** ****** ****** ****** ****** ****** ****** ******
      ****** ****** ****** ****** ****** ****** ****** ****** ****** ******
      ****** ****** ****** ****** ****** ****** ****** ****** ****** ******
   2  ****** ****** ****** ****** ****** ****** ****** ****** ****** ******
      ****** ****** ****** ****** ****** ****** ****** ****** ****** ******
      ****** ****** ****** ****** ****** ****** ****** ****** ****** ******
   3  ****** ****** ****** ****** ****** ****** ****** ****** ****** ******
      ****** ****** ****** ****** ****** ****** ****** ****** ****** ******
      ****** ****** ****** ****** ****** ****** ****** ****** ****** ******
   4  ****** ****** ****** ****** ****** ****** ****** ****** ****** ******
      ****** ****** ****** ****** ****** ****** ****** ****** ****** ******
      ****** ****** ****** ****** ****** ****** ****** ****** ****** ******
   5  ****** ****** ****** ****** ****** ****** ****** ****** ****** ******
      ****** ****** ****** ****** ****** ****** ****** ****** ****** ******
      ****** ****** ****** ****** ****** ****** ****** ****** ****** ******
   6  ****** ****** ****** ****** ****** ****** ****** ****** ****** ******
      ****** ****** ****** ****** ****** ****** ****** ****** ****** ******
      ****** ****** ****** ****** ****** ****** ****** ****** ****** ******
   7  ****** ****** ****** ****** ****** ****** ****** ****** ****** ******
      ****** ****** ****** ****** ****** ****** ****** ****** ****** ******
      ****** ****** ****** ****** ****** ****** ****** ****** ****** ******
   8  ****** ****** ****** ****** ****** ****** ****** ****** ****** ******
      ****** ****** ****** ****** ****** ****** ****** ****** ****** ******
      ****** ****** ****** ****** ****** ****** ****** ****** ****** ******
   9  ****** ****** ****** ****** ****** ****** ****** ****** ****** ******
      ****** ****** ****** ****** ****** ****** ****** ****** ****** ******
      ****** ****** ****** ****** ****** ****** ****** ****** ****** ******
  10  ****** ****** ****** ****** ****** ****** ****** ****** ****** ******
      ****** ****** ****** ****** ****** ****** ****** ****** ****** ******
      ****** ****** ****** ****** ****** ****** ****** ****** ****** ******
  11  ****** ****** ****** ****** ****** ****** ****** ****** ****** ******
      ****** ****** ****** ****** ****** ****** ****** ****** ****** ******
      ****** ****** ****** ****** ****** ****** ****** ****** ****** ******
  12  ****** ****** ****** ****** ****** ****** ****** ****** ****** ******
      ****** ****** ****** ****** ****** ****** ****** ****** ****** ******
      ****** ****** ****** ****** ****** ****** ****** ****** ****** ******
  13  ****** ****** ****** ****** ****** ****** ****** ****** ****** ******
      ****** ****** ****** ****** ****** ****** ****** ****** ****** ******
      ****** ****** ****** ****** ****** ****** ****** ****** ****** ******
  14  ****** ****** ****** ****** ****** ****** ****** ****** ****** ******
      ****** ****** ****** ****** ****** ****** ****** ****** ****** ******
      ****** ****** ****** ****** ****** ****** ****** ****** ****** ******
  15  ****** ****** ****** ****** ****** ****** ****** ****** ****** ******
      ****** ****** ****** ****** ****** ****** ****** ****** ****** ******
      ****** ****** ****** ****** ****** ****** ****** ****** ****** ******
  16  ****** ****** ****** ****** ****** ****** ****** ****** ****** ******
      ****** ****** ****** ****** ****** ****** ****** ****** ****** ******
      ****** ****** ****** ****** ****** ****** ****** ****** ****** ******
  17  ****** ****** ****** ****** ****** ****** ****** ****** ****** ******
      ****** ****** ****** ****** ****** ****** ****** ****** ****** ******
      ****** ****** ****** ****** ****** ****** ****** ****** ****** ******
  18  ****** ****** ****** ****** ****** ****** ****** ****** ****** ******
      ****** ****** ****** ****** ****** ****** ****** ****** ****** ******
      ****** ****** ****** ****** ****** ****** ****** ****** ****** ******
  19  ****** ****** ****** ****** ****** ****** ****** ****** ****** ******
      ****** ****** ****** ****** ****** ****** ****** ****** ****** ******
      ****** ****** ****** ****** ****** ****** ****** ****** ****** ******
  20  ****** ****** ****** ****** ****** ****** ****** ****** ****** ******
      ****** ****** ****** ****** ****** ****** ****** ****** ****** ******
      ****** ****** ****** ****** ****** ****** ****** ****** ****** ******
  21  ****** ****** ****** ****** ****** ****** ****** ****** ****** ******
      ****** ****** ****** ****** ****** ****** ****** ****** ****** ******
      ****** ****** ****** ****** ****** ****** ****** ****** ****** ******
  22  ****** ****** ****** ****** ****** ****** ****** ****** ****** ******
      ****** ****** ****** ****** ****** ****** ****** ****** ****** ******
      ****** ****** ****** ****** ****** ****** ****** ****** ****** ******
  23  ****** ****** ****** ****** ****** ****** ****** ****** ****** ******
      ****** ****** ****** ****** ****** ****** ****** ****** ****** ******
      ****** ****** ****** ****** ****** ****** ****** ****** ****** ******
  24  ****** ****** ****** ****** ****** ****** ****** ****** ****** ******
      ****** ****** ****** ****** ****** ****** ****** ****** ****** ******
      ****** ****** ****** ****** ****** ****** ****** ****** ****** ******
  25  ****** ****** ****** ****** ****** ****** ****** ****** ****** ******
      ****** ****** ****** ****** ****** ****** ****** ****** ****** ******
      ****** ****** ****** ****** ****** ****** ****** ****** ****** ******

 HEAD WILL BE SAVED ON UNIT   51 AT END OF TIME STEP    1, STRESS PERIOD    3
1
  VOLUMETRIC BUDGET FOR ENTIRE MODEL AT END OF TIME STEP    1, STRESS PERIOD   3
  ------------------------------------------------------------------------------

     CUMULATIVE VOLUMES      L**3       RATES FOR THIS TIME STEP      L**3/T
     ------------------                 ------------------------

           IN:                                      IN:
           ---                                      ---
             STORAGE =    28095150.8568               STORAGE =       55852.5860
       CONSTANT HEAD =     5207780.0263         CONSTANT HEAD =       26474.9054
               WELLS =           0.0000                 WELLS =           0.0000
            RECHARGE =     6292800.0000              RECHARGE =           0.0000
      STREAM LEAKAGE =     1499210.0572        STREAM LEAKAGE =        6658.3580

            TOTAL IN =    41094940.9403              TOTAL IN =       88985.8493

          OUT:                                     OUT:
          ----                                     ----
             STORAGE =           0.0000               STORAGE =           0.0000
       CONSTANT HEAD =           0.0000         CONSTANT HEAD =           0.0000
               WELLS =     8337585.8705                 WELLS =       30429.1455
            RECHARGE =           0.0000              RECHARGE =           0.0000
      STREAM LEAKAGE =    32757357.0265        STREAM LEAKAGE =       58556.7115

           TOTAL OUT =    41094942.8970             TOTAL OUT =       88985.8570

            IN - OUT =          -1.9567              IN - OUT =      -7.6971E-03

 PERCENT DISCREPANCY =          -0.00     PERCENT DISCREPANCY =          -0.00






         TIME SUMMARY AT END OF TIME STEP    1 IN STRESS PERIOD    3
                    SECONDS     MINUTES      HOURS       DAYS        YEARS
                    -----------------------------------------------------------
   TIME STEP LENGTH 7.86240E+06 1.31040E+05  2184.0      91.000     0.24914    
 STRESS PERIOD TIME 7.86240E+06 1.31040E+05  2184.0      91.000     0.24914    
         TOTAL TIME 2.36736E+07 3.94560E+05  6576.0      274.00     0.75017    
1
1
                            STRESS PERIOD NO.    4, LENGTH =   91.00000    
                            -----------------------------------------------

                              NUMBER OF TIME STEPS =     1

                               MULTIPLIER FOR DELT =     1.500

                            INITIAL TIME STEP SIZE =   91.00000    

 WELL NO.  LAYER   ROW   COL   STRESS RATE         
 --------------------------------------------------
      1      1     14      6       0.000    
      2      1      3      9       0.000    
      3      1     20     10       0.000    
      4      1     14     20       0.000    
      5      1     16     16      -9666.    
      6      1      6     22      -5938.    
      7      1     19     13      -8939.    
      8      1      6     21      -5885.    

      8 WELLS

                 RECHARGE =  1.000000E-03

 REUSING STREAM SEGMENT DATA FROM LAST STRESS PERIOD
 
 SOLVING FOR HEAD 


     6 CALLS TO PCG ROUTINE FOR TIME STEP   1 IN STRESS PERIOD    4
    23 TOTAL ITERATIONS

 OUTPUT CONTROL FOR STRESS PERIOD    4   TIME STEP    1
    SAVE BUDGET
    SAVE HEAD FOR ALL LAYERS
    PRINT HEAD FOR ALL LAYERS
 UBDSV2 SAVING "STREAMFLOW OUT  " ON UNIT  50 AT TIME STEP  1, STRESS PERIOD   4



 STREAM LISTING     PERIOD      4   STEP        1

 LAYER ROW COL. STREAM  RCH.  FLOW INTO     FLOW TO   FLOW OUT OF   OVRLND.     DIRECT     STREAM       STREAM     STREAM     STREAM   STREAMBED  STREAMBED
                SEG.NO.  NO.  STRM. RCH.    AQUIFER    STRM. RCH.    RUNOFF     PRECIP       ET          HEAD       DEPTH      WIDTH   CONDCTNC.   GRADIENT

   1   13    1     1     1    1.0000E+05 -2.4785E+03   1.0248E+05  0.000E+00  0.000E+00  0.000E+00  4.84071E+01  1.457E-01  2.000E+01  2.000E+04 -1.239E-01
   1   13    2     1     2    1.0248E+05 -3.5518E+03   1.0603E+05  0.000E+00  0.000E+00  0.000E+00  4.79324E+01  1.483E-01  2.000E+01  2.000E+04 -1.776E-01
   1   14    3     1     3    1.0603E+05 -6.1162E+02   1.0664E+05  0.000E+00  0.000E+00  0.000E+00  4.74569E+01  1.501E-01  2.000E+01  2.000E+04 -3.058E-02
   1   15    4     1     4    1.0664E+05 -5.7289E+02   1.0721E+05  0.000E+00  0.000E+00  0.000E+00  4.69801E+01  1.506E-01  2.000E+01  2.000E+04 -2.864E-02
   1   16    5     1     5    1.0721E+05 -1.8734E+03   1.0909E+05  0.000E+00  0.000E+00  0.000E+00  4.65039E+01  1.516E-01  2.000E+01  2.000E+04 -9.367E-02
   1   16    6     1     6    1.0909E+05 -1.1429E+03   1.1023E+05  0.000E+00  0.000E+00  0.000E+00  4.60279E+01  1.529E-01  2.000E+01  2.000E+04 -5.715E-02
   1   16    7     1     7    1.1023E+05 -1.0650E+03   1.1130E+05  0.000E+00  0.000E+00  0.000E+00  4.55515E+01  1.538E-01  2.000E+01  2.000E+04 -5.325E-02
   1   16    8     1     8    1.1130E+05 -9.7183E+02   1.1227E+05  0.000E+00  0.000E+00  0.000E+00  4.50751E+01  1.546E-01  2.000E+01  2.000E+04 -4.859E-02
   1   16    9     1     9    1.1227E+05 -8.2911E+02   1.1310E+05  0.000E+00  0.000E+00  0.000E+00  4.45986E+01  1.554E-01  2.000E+01  2.000E+04 -4.146E-02
   1   16   10     1    10    1.1310E+05 -6.1355E+02   1.1371E+05  0.000E+00  0.000E+00  0.000E+00  4.41219E+01  1.560E-01  2.000E+01  2.000E+04 -3.068E-02
   1   16   11     1    11    1.1371E+05 -2.9475E+02   1.1401E+05  0.000E+00  0.000E+00  0.000E+00  4.36450E+01  1.564E-01  2.000E+01  2.000E+04 -1.474E-02
   1   16   12     1    12    1.1401E+05  1.4064E+02   1.1386E+05  0.000E+00  0.000E+00  0.000E+00  4.31678E+01  1.564E-01  2.000E+01  2.000E+04  7.032E-03
   1   15   13     1    13    1.1386E+05 -1.7929E+02   1.1404E+05  0.000E+00  0.000E+00  0.000E+00  4.26905E+01  1.564E-01  2.000E+01  2.000E+04 -8.964E-03
   1   14   14     1    14    1.1404E+05 -6.8183E+02   1.1473E+05  0.000E+00  0.000E+00  0.000E+00  4.22136E+01  1.568E-01  2.000E+01  2.000E+04 -3.409E-02
   1   13   15     1    15    1.1473E+05 -1.4461E+03   1.1617E+05  0.000E+00  0.000E+00  0.000E+00  4.17372E+01  1.577E-01  2.000E+01  2.000E+04 -7.230E-02
   1   12   16     1    16    1.1617E+05 -2.7393E+03   1.1891E+05  0.000E+00  0.000E+00  0.000E+00  4.12617E+01  1.594E-01  2.000E+01  2.000E+04 -1.370E-01
   1   12   17     1    17    1.1891E+05 -1.4359E+03   1.2035E+05  0.000E+00  0.000E+00  0.000E+00  4.07861E+01  1.611E-01  2.000E+01  2.000E+04 -7.180E-02
   1   12   18     1    18    1.2035E+05 -1.3198E+03   1.2167E+05  0.000E+00  0.000E+00  0.000E+00  4.03099E+01  1.622E-01  2.000E+01  2.000E+04 -6.599E-02
   1   12   19     1    19    1.2167E+05 -1.7602E+03   1.2343E+05  0.000E+00  0.000E+00  0.000E+00  3.98339E+01  1.634E-01  2.000E+01  2.000E+04 -8.801E-02
   1   13   20     1    20    1.2343E+05 -1.0882E+03   1.2452E+05  0.000E+00  0.000E+00  0.000E+00  3.93577E+01  1.646E-01  2.000E+01  2.000E+04 -5.441E-02
   1   14   21     1    21    1.2452E+05 -1.0318E+03   1.2555E+05  0.000E+00  0.000E+00  0.000E+00  3.88813E+01  1.654E-01  2.000E+01  2.000E+04 -5.159E-02
   1   14   22     1    22    1.2555E+05  4.9181E+03   1.2063E+05  0.000E+00  0.000E+00  0.000E+00  3.84025E+01  1.639E-01  2.000E+01  2.000E+04  2.459E-01
   1    9   30     2     1    5.0000E+04 -5.7673E+02   5.0577E+04  0.000E+00  0.000E+00  0.000E+00  4.02413E+01  1.163E-01  2.000E+01  2.000E+04 -2.884E-02
   1    9   29     2     2    5.0577E+04 -8.4441E+02   5.1421E+04  0.000E+00  0.000E+00  0.000E+00  3.99922E+01  1.172E-01  2.000E+01  2.000E+04 -4.222E-02
   1    9   28     2     3    5.1421E+04 -1.0205E+03   5.2442E+04  0.000E+00  0.000E+00  0.000E+00  3.97435E+01  1.185E-01  2.000E+01  2.000E+04 -5.102E-02
   1    9   27     2     4    5.2442E+04 -1.8708E+03   5.4312E+04  0.000E+00  0.000E+00  0.000E+00  3.94955E+01  1.205E-01  2.000E+01  2.000E+04 -9.354E-02
   1   10   26     2     5    5.4312E+04 -1.1333E+03   5.5446E+04  0.000E+00  0.000E+00  0.000E+00  3.92475E+01  1.225E-01  2.000E+01  2.000E+04 -5.667E-02
   1   11   25     2     6    5.5446E+04 -9.9268E+02   5.6438E+04  0.000E+00  0.000E+00  0.000E+00  3.89989E+01  1.239E-01  2.000E+01  2.000E+04 -4.963E-02
   1   12   24     2     7    5.6438E+04 -1.1246E+03   5.7563E+04  0.000E+00  0.000E+00  0.000E+00  3.87503E+01  1.253E-01  2.000E+01  2.000E+04 -5.623E-02
   1   13   23     2     8    5.7563E+04 -2.1070E+02   5.7774E+04  0.000E+00  0.000E+00  0.000E+00  3.85012E+01  1.262E-01  2.000E+01  2.000E+04 -1.053E-02
   1   14   22     2     9    5.7774E+04  1.8709E+03   5.5903E+04  0.000E+00  0.000E+00  0.000E+00  3.82501E+01  1.251E-01  2.000E+01  2.000E+04  9.354E-02
   1   14   22     3     1    1.7653E+05 -8.5953E+03   1.8513E+05  0.000E+00  0.000E+00  0.000E+00  3.77268E+01  1.713E-01  2.000E+01  2.000E+04 -4.298E-01
   1   15   23     3     2    1.8513E+05 -5.1565E+02   1.8564E+05  0.000E+00  0.000E+00  0.000E+00  3.68405E+01  1.738E-01  2.000E+01  2.000E+04 -2.578E-02
   1   15   24     3     3    1.8564E+05 -3.1586E+02   1.8596E+05  0.000E+00  0.000E+00  0.000E+00  3.59518E+01  1.741E-01  2.000E+01  2.000E+04 -1.579E-02
   1   15   25     3     4    1.8596E+05 -3.1721E+02   1.8628E+05  0.000E+00  0.000E+00  0.000E+00  3.50631E+01  1.742E-01  2.000E+01  2.000E+04 -1.586E-02
   1   15   26     3     5    1.8628E+05 -3.7125E+02   1.8665E+05  0.000E+00  0.000E+00  0.000E+00  3.41744E+01  1.744E-01  2.000E+01  2.000E+04 -1.856E-02
   1   16   27     3     6    1.8665E+05 -4.2085E+02   1.8707E+05  0.000E+00  0.000E+00  0.000E+00  3.32858E+01  1.747E-01  2.000E+01  2.000E+04 -2.104E-02
   1   17   28     3     7    1.8707E+05 -1.7277E+03   1.8880E+05  0.000E+00  0.000E+00  0.000E+00  3.23975E+01  1.753E-01  2.000E+01  2.000E+04 -8.639E-02
   1   18   29     3     8    1.8880E+05 -3.1937E+03   1.9199E+05  0.000E+00  0.000E+00  0.000E+00  3.15100E+01  1.766E-01  2.000E+01  2.000E+04 -1.597E-01
   1   18   30     3     9    1.9199E+05 -3.3659E+03   1.9536E+05  0.000E+00  0.000E+00  0.000E+00  3.06229E+01  1.785E-01  2.000E+01  2.000E+04 -1.683E-01



1
              HEAD IN LAYER   1 AT END OF TIME STEP   1 IN STRESS PERIOD    4
  ---------------------------------------------------------------------------

          1      2      3      4      5      6      7      8      9     10
         11     12     13     14     15     16     17     18     19     20
         21     22     23     24     25     26     27     28     29     30
 .........................................................................
   1  ****** ****** ****** ****** ****** ****** ****** ****** ****** ******
      ****** ****** ****** ****** ****** ****** ****** ****** ****** ******
      ****** ****** ****** ****** ****** ****** ****** ****** ****** ******
   2  ****** ****** ****** ****** ****** ****** ****** ****** ****** ******
      ****** ****** ****** ****** ****** ****** ****** ****** ****** ******
      ****** ****** ****** ****** ****** ****** ****** ****** ****** ******
   3  ****** ****** ****** ****** ****** ****** ****** ****** ****** ******
      ****** ****** ****** ****** ****** ****** ****** ****** ****** ******
      ****** ****** ****** ****** ****** ****** ****** ****** ****** ******
   4  ****** ****** ****** ****** ****** ****** ****** ****** ****** ******
      ****** ****** ****** ****** ****** ****** ****** ****** ****** ******
      ****** ****** ****** ****** ****** ****** ****** ****** ****** ******
   5  ****** ****** ****** ****** ****** ****** ****** ****** ****** ******
      ****** ****** ****** ****** ****** ****** ****** ****** ****** ******
      ****** ****** ****** ****** ****** ****** ****** ****** ****** ******
   6  ****** ****** ****** ****** ****** ****** ****** ****** ****** ******
      ****** ****** ****** ****** ****** ****** ****** ****** ****** ******
      ****** ****** ****** ****** ****** ****** ****** ****** ****** ******
   7  ****** ****** ****** ****** ****** ****** ****** ****** ****** ******
      ****** ****** ****** ****** ****** ****** ****** ****** ****** ******
      ****** ****** ****** ****** ****** ****** ****** ****** ****** ******
   8  ****** ****** ****** ****** ****** ****** ****** ****** ****** ******
      ****** ****** ****** ****** ****** ****** ****** ****** ****** ******
      ****** ****** ****** ****** ****** ****** ****** ****** ****** ******
   9  ****** ****** ****** ****** ****** ****** ****** ****** ****** ******
      ****** ****** ****** ****** ****** ****** ****** ****** ****** ******
      ****** ****** ****** ****** ****** ****** ****** ****** ****** ******
  10  ****** ****** ****** ****** ****** ****** ****** ****** ****** ******
      ****** ****** ****** ****** ****** ****** ****** ****** ****** ******
      ****** ****** ****** ****** ****** ****** ****** ****** ****** ******
  11  ****** ****** ****** ****** ****** ****** ****** ****** ****** ******
      ****** ****** ****** ****** ****** ****** ****** ****** ****** ******
      ****** ****** ****** ****** ****** ****** ****** ****** ****** ******
  12  ****** ****** ****** ****** ****** ****** ****** ****** ****** ******
      ****** ****** ****** ****** ****** ****** ****** ****** ****** ******
      ****** ****** ****** ****** ****** ****** ****** ****** ****** ******
  13  ****** ****** ****** ****** ****** ****** ****** ****** ****** ******
      ****** ****** ****** ****** ****** ****** ****** ****** ****** ******
      ****** ****** ****** ****** ****** ****** ****** ****** ****** ******
  14  ****** ****** ****** ****** ****** ****** ****** ****** ****** ******
      ****** ****** ****** ****** ****** ****** ****** ****** ****** ******
      ****** ****** ****** ****** ****** ****** ****** ****** ****** ******
  15  ****** ****** ****** ****** ****** ****** ****** ****** ****** ******
      ****** ****** ****** ****** ****** ****** ****** ****** ****** ******
      ****** ****** ****** ****** ****** ****** ****** ****** ****** ******
  16  ****** ****** ****** ****** ****** ****** ****** ****** ****** ******
      ****** ****** ****** ****** ****** ****** ****** ****** ****** ******
      ****** ****** ****** ****** ****** ****** ****** ****** ****** ******
  17  ****** ****** ****** ****** ****** ****** ****** ****** ****** ******
      ****** ****** ****** ****** ****** ****** ****** ****** ****** ******
      ****** ****** ****** ****** ****** ****** ****** ****** ****** ******
  18  ****** ****** ****** ****** ****** ****** ****** ****** ****** ******
      ****** ****** ****** ****** ****** ****** ****** ****** ****** ******
      ****** ****** ****** ****** ****** ****** ****** ****** ****** ******
  19  ****** ****** ****** ****** ****** ****** ****** ****** ****** ******
      ****** ****** ****** ****** ****** ****** ****** ****** ****** ******
      ****** ****** ****** ****** ****** ****** ****** ****** ****** ******
  20  ****** ****** ****** ****** ****** ****** ****** ****** ****** ******
      ****** ****** ****** ****** ****** ****** ****** ****** ****** ******
      ****** ****** ****** ****** ****** ****** ****** ****** ****** ******
  21  ****** ****** ****** ****** ****** ****** ****** ****** ****** ******
      ****** ****** ****** ****** ****** ****** ****** ****** ****** ******
      ****** ****** ****** ****** ****** ****** ****** ****** ****** ******
  22  ****** ****** ****** ****** ****** ****** ****** ****** ****** ******
      ****** ****** ****** ****** ****** ****** ****** ****** ****** ******
      ****** ****** ****** ****** ****** ****** ****** ****** ****** ******
  23  ****** ****** ****** ****** ****** ****** ****** ****** ****** ******
      ****** ****** ****** ****** ****** ****** ****** ****** ****** ******
      ****** ****** ****** ****** ****** ****** ****** ****** ****** ******
  24  ****** ****** ****** ****** ****** ****** ****** ****** ****** ******
      ****** ****** ****** ****** ****** ****** ****** ****** ****** ******
      ****** ****** ****** ****** ****** ****** ****** ****** ****** ******
  25  ****** ****** ****** ****** ****** ****** ****** ****** ****** ******
      ****** ****** ****** ****** ****** ****** ****** ****** ****** ******
      ****** ****** ****** ****** ****** ****** ****** ****** ****** ******

 HEAD WILL BE SAVED ON UNIT   51 AT END OF TIME STEP    1, STRESS PERIOD    4
1
  VOLUMETRIC BUDGET FOR ENTIRE MODEL AT END OF TIME STEP    1, STRESS PERIOD   4
  ------------------------------------------------------------------------------

     CUMULATIVE VOLUMES      L**3       RATES FOR THIS TIME STEP      L**3/T
     ------------------                 ------------------------

           IN:                                      IN:
           ---                                      ---
             STORAGE =    29824205.3099               STORAGE =       19000.5984
       CONSTANT HEAD =     7864687.3422         CONSTANT HEAD =       29196.7837
               WELLS =           0.0000                 WELLS =           0.0000
            RECHARGE =     8804400.0000              RECHARGE =       27600.0000
      STREAM LEAKAGE =     2129804.9496        STREAM LEAKAGE =        6929.6142

            TOTAL IN =    48623097.6017              TOTAL IN =       82726.9963

          OUT:                                     OUT:
          ----                                     ----
             STORAGE =        1164.2594               STORAGE =          12.7941
       CONSTANT HEAD =           0.0000         CONSTANT HEAD =           0.0000
               WELLS =    11106638.1122                 WELLS =       30429.1455
            RECHARGE =           0.0000              RECHARGE =           0.0000
      STREAM LEAKAGE =    37515297.2656        STREAM LEAKAGE =       52285.0576

           TOTAL OUT =    48623099.6371             TOTAL OUT =       82726.9971

            IN - OUT =          -2.0355              IN - OUT =      -8.6537E-04

 PERCENT DISCREPANCY =          -0.00     PERCENT DISCREPANCY =          -0.00






         TIME SUMMARY AT END OF TIME STEP    1 IN STRESS PERIOD    4
                    SECONDS     MINUTES      HOURS       DAYS        YEARS
                    -----------------------------------------------------------
   TIME STEP LENGTH 7.86240E+06 1.31040E+05  2184.0      91.000     0.24914    
 STRESS PERIOD TIME 7.86240E+06 1.31040E+05  2184.0      91.000     0.24914    
         TOTAL TIME 3.15360E+07 5.25600E+05  8760.0      365.00     0.99932    
1
1
                            STRESS PERIOD NO.    5, LENGTH =   92.00000    
                            -----------------------------------------------

                              NUMBER OF TIME STEPS =     1

                               MULTIPLIER FOR DELT =     1.500

                            INITIAL TIME STEP SIZE =   92.00000    

 WELL NO.  LAYER   ROW   COL   STRESS RATE         
 --------------------------------------------------
      1      1     14      6       0.000    
      2      1      3      9       0.000    
      3      1     20     10       0.000    
      4      1     14     20       0.000    
      5      1     16     16      -9666.    
      6      1      6     22      -5938.    
      7      1     19     13      -8939.    
      8      1      6     21      -5885.    

      8 WELLS

                 RECHARGE =  5.000000E-04

 REUSING STREAM SEGMENT DATA FROM LAST STRESS PERIOD
 
 SOLVING FOR HEAD 


     7 CALLS TO PCG ROUTINE FOR TIME STEP   1 IN STRESS PERIOD    5
    26 TOTAL ITERATIONS

 OUTPUT CONTROL FOR STRESS PERIOD    5   TIME STEP    1
    SAVE BUDGET
    SAVE HEAD FOR ALL LAYERS
    PRINT HEAD FOR ALL LAYERS
 UBDSV2 SAVING "STREAMFLOW OUT  " ON UNIT  50 AT TIME STEP  1, STRESS PERIOD   5



 STREAM LISTING     PERIOD      5   STEP        1

 LAYER ROW COL. STREAM  RCH.  FLOW INTO     FLOW TO   FLOW OUT OF   OVRLND.     DIRECT     STREAM       STREAM     STREAM     STREAM   STREAMBED  STREAMBED
                SEG.NO.  NO.  STRM. RCH.    AQUIFER    STRM. RCH.    RUNOFF     PRECIP       ET          HEAD       DEPTH      WIDTH   CONDCTNC.   GRADIENT

   1   13    1     1     1    1.0000E+05 -2.0613E+03   1.0206E+05  0.000E+00  0.000E+00  0.000E+00  4.84069E+01  1.455E-01  2.000E+01  2.000E+04 -1.031E-01
   1   13    2     1     2    1.0206E+05 -3.0811E+03   1.0514E+05  0.000E+00  0.000E+00  0.000E+00  4.79318E+01  1.478E-01  2.000E+01  2.000E+04 -1.541E-01
   1   14    3     1     3    1.0514E+05 -4.8841E+02   1.0563E+05  0.000E+00  0.000E+00  0.000E+00  4.74561E+01  1.493E-01  2.000E+01  2.000E+04 -2.442E-02
   1   15    4     1     4    1.0563E+05 -4.4232E+02   1.0607E+05  0.000E+00  0.000E+00  0.000E+00  4.69792E+01  1.497E-01  2.000E+01  2.000E+04 -2.212E-02
   1   16    5     1     5    1.0607E+05 -1.4259E+03   1.0750E+05  0.000E+00  0.000E+00  0.000E+00  4.65027E+01  1.505E-01  2.000E+01  2.000E+04 -7.129E-02
   1   16    6     1     6    1.0750E+05 -8.8182E+02   1.0838E+05  0.000E+00  0.000E+00  0.000E+00  4.60264E+01  1.514E-01  2.000E+01  2.000E+04 -4.409E-02
   1   16    7     1     7    1.0838E+05 -8.1447E+02   1.0920E+05  0.000E+00  0.000E+00  0.000E+00  4.55499E+01  1.522E-01  2.000E+01  2.000E+04 -4.072E-02
   1   16    8     1     8    1.0920E+05 -7.2451E+02   1.0992E+05  0.000E+00  0.000E+00  0.000E+00  4.50732E+01  1.528E-01  2.000E+01  2.000E+04 -3.623E-02
   1   16    9     1     9    1.0992E+05 -5.8402E+02   1.1050E+05  0.000E+00  0.000E+00  0.000E+00  4.45965E+01  1.533E-01  2.000E+01  2.000E+04 -2.920E-02
   1   16   10     1    10    1.1050E+05 -3.7084E+02   1.1087E+05  0.000E+00  0.000E+00  0.000E+00  4.41196E+01  1.537E-01  2.000E+01  2.000E+04 -1.854E-02
   1   16   11     1    11    1.1087E+05 -4.9889E+01   1.1092E+05  0.000E+00  0.000E+00  0.000E+00  4.36426E+01  1.539E-01  2.000E+01  2.000E+04 -2.494E-03
   1   16   12     1    12    1.1092E+05  5.7942E+02   1.1035E+05  0.000E+00  0.000E+00  0.000E+00  4.31651E+01  1.537E-01  2.000E+01  2.000E+04  2.897E-02
   1   15   13     1    13    1.1035E+05  2.7490E+02   1.1007E+05  0.000E+00  0.000E+00  0.000E+00  4.26874E+01  1.533E-01  2.000E+01  2.000E+04  1.375E-02
   1   14   14     1    14    1.1007E+05 -2.0252E+02   1.1027E+05  0.000E+00  0.000E+00  0.000E+00  4.22101E+01  1.533E-01  2.000E+01  2.000E+04 -1.013E-02
   1   13   15     1    15    1.1027E+05 -9.5102E+02   1.1122E+05  0.000E+00  0.000E+00  0.000E+00  4.17333E+01  1.538E-01  2.000E+01  2.000E+04 -4.755E-02
   1   12   16     1    16    1.1122E+05 -2.1984E+03   1.1342E+05  0.000E+00  0.000E+00  0.000E+00  4.12574E+01  1.551E-01  2.000E+01  2.000E+04 -1.099E-01
   1   12   17     1    17    1.1342E+05 -1.0699E+03   1.1449E+05  0.000E+00  0.000E+00  0.000E+00  4.07814E+01  1.564E-01  2.000E+01  2.000E+04 -5.350E-02
   1   12   18     1    18    1.1449E+05 -9.7016E+02   1.1546E+05  0.000E+00  0.000E+00  0.000E+00  4.03050E+01  1.573E-01  2.000E+01  2.000E+04 -4.851E-02
   1   12   19     1    19    1.1546E+05 -1.3356E+03   1.1680E+05  0.000E+00  0.000E+00  0.000E+00  3.98287E+01  1.582E-01  2.000E+01  2.000E+04 -6.678E-02
   1   13   20     1    20    1.1680E+05 -7.1679E+02   1.1751E+05  0.000E+00  0.000E+00  0.000E+00  3.93523E+01  1.591E-01  2.000E+01  2.000E+04 -3.584E-02
   1   14   21     1    21    1.1751E+05 -6.3327E+02   1.1815E+05  0.000E+00  0.000E+00  0.000E+00  3.88755E+01  1.596E-01  2.000E+01  2.000E+04 -3.166E-02
   1   14   22     1    22    1.1815E+05  4.9999E+03   1.1315E+05  0.000E+00  0.000E+00  0.000E+00  3.83965E+01  1.578E-01  2.000E+01  2.000E+04  2.500E-01
   1    9   30     2     1    5.0000E+04 -3.3638E+02   5.0336E+04  0.000E+00  0.000E+00  0.000E+00  4.02411E+01  1.161E-01  2.000E+01  2.000E+04 -1.682E-02
   1    9   29     2     2    5.0336E+04 -6.0008E+02   5.0936E+04  0.000E+00  0.000E+00  0.000E+00  3.99917E+01  1.167E-01  2.000E+01  2.000E+04 -3.000E-02
   1    9   28     2     3    5.0936E+04 -7.6310E+02   5.1700E+04  0.000E+00  0.000E+00  0.000E+00  3.97427E+01  1.177E-01  2.000E+01  2.000E+04 -3.815E-02
   1    9   27     2     4    5.1700E+04 -1.4622E+03   5.3162E+04  0.000E+00  0.000E+00  0.000E+00  3.94942E+01  1.192E-01  2.000E+01  2.000E+04 -7.311E-02
   1   10   26     2     5    5.3162E+04 -7.7978E+02   5.3942E+04  0.000E+00  0.000E+00  0.000E+00  3.92457E+01  1.207E-01  2.000E+01  2.000E+04 -3.899E-02
   1   11   25     2     6    5.3942E+04 -6.6942E+02   5.4611E+04  0.000E+00  0.000E+00  0.000E+00  3.89967E+01  1.217E-01  2.000E+01  2.000E+04 -3.347E-02
   1   12   24     2     7    5.4611E+04 -8.2938E+02   5.5440E+04  0.000E+00  0.000E+00  0.000E+00  3.87477E+01  1.227E-01  2.000E+01  2.000E+04 -4.147E-02
   1   13   23     2     8    5.5440E+04 -1.4060E+02   5.5581E+04  0.000E+00  0.000E+00  0.000E+00  3.84984E+01  1.234E-01  2.000E+01  2.000E+04 -7.030E-03
   1   14   22     2     9    5.5581E+04  2.0128E+03   5.3568E+04  0.000E+00  0.000E+00  0.000E+00  3.82471E+01  1.221E-01  2.000E+01  2.000E+04  1.006E-01
   1   14   22     3     1    1.6672E+05 -8.5065E+03   1.7522E+05  0.000E+00  0.000E+00  0.000E+00  3.77212E+01  1.656E-01  2.000E+01  2.000E+04 -4.253E-01
   1   15   23     3     2    1.7522E+05 -4.1272E+02   1.7564E+05  0.000E+00  0.000E+00  0.000E+00  3.68348E+01  1.682E-01  2.000E+01  2.000E+04 -2.064E-02
   1   15   24     3     3    1.7564E+05 -2.4183E+02   1.7588E+05  0.000E+00  0.000E+00  0.000E+00  3.59461E+01  1.684E-01  2.000E+01  2.000E+04 -1.209E-02
   1   15   25     3     4    1.7588E+05 -2.4428E+02   1.7612E+05  0.000E+00  0.000E+00  0.000E+00  3.50574E+01  1.685E-01  2.000E+01  2.000E+04 -1.221E-02
   1   15   26     3     5    1.7612E+05 -2.9815E+02   1.7642E+05  0.000E+00  0.000E+00  0.000E+00  3.41687E+01  1.687E-01  2.000E+01  2.000E+04 -1.491E-02
   1   16   27     3     6    1.7642E+05 -3.2851E+02   1.7675E+05  0.000E+00  0.000E+00  0.000E+00  3.32799E+01  1.688E-01  2.000E+01  2.000E+04 -1.643E-02
   1   17   28     3     7    1.7675E+05 -1.4529E+03   1.7820E+05  0.000E+00  0.000E+00  0.000E+00  3.23916E+01  1.693E-01  2.000E+01  2.000E+04 -7.265E-02
   1   18   29     3     8    1.7820E+05 -2.8046E+03   1.8101E+05  0.000E+00  0.000E+00  0.000E+00  3.15039E+01  1.706E-01  2.000E+01  2.000E+04 -1.402E-01
   1   18   30     3     9    1.8101E+05 -3.0994E+03   1.8410E+05  0.000E+00  0.000E+00  0.000E+00  3.06167E+01  1.722E-01  2.000E+01  2.000E+04 -1.550E-01



1
              HEAD IN LAYER   1 AT END OF TIME STEP   1 IN STRESS PERIOD    5
  ---------------------------------------------------------------------------

          1      2      3      4      5      6      7      8      9     10
         11     12     13     14     15     16     17     18     19     20
         21     22     23     24     25     26     27     28     29     30
 .........................................................................
   1  ****** ****** ****** ****** ****** ****** ****** ****** ****** ******
      ****** ****** ****** ****** ****** ****** ****** ****** ****** ******
      ****** ****** ****** ****** ****** ****** ****** ****** ****** ******
   2  ****** ****** ****** ****** ****** ****** ****** ****** ****** ******
      ****** ****** ****** ****** ****** ****** ****** ****** ****** ******
      ****** ****** ****** ****** ****** ****** ****** ****** ****** ******
   3  ****** ****** ****** ****** ****** ****** ****** ****** ****** ******
      ****** ****** ****** ****** ****** ****** ****** ****** ****** ******
      ****** ****** ****** ****** ****** ****** ****** ****** ****** ******
   4  ****** ****** ****** ****** ****** ****** ****** ****** ****** ******
      ****** ****** ****** ****** ****** ****** ****** ****** ****** ******
      ****** ****** ****** ****** ****** ****** ****** ****** ****** ******
   5  ****** ****** ****** ****** ****** ****** ****** ****** ****** ******
      ****** ****** ****** ****** ****** ****** ****** ****** ****** ******
      ****** ****** ****** ****** ****** ****** ****** ****** ****** ******
   6  ****** ****** ****** ****** ****** ****** ****** ****** ****** ******
      ****** ****** ****** ****** ****** ****** ****** ****** ****** ******
      ****** ****** ****** ****** ****** ****** ****** ****** ****** ******
   7  ****** ****** ****** ****** ****** ****** ****** ****** ****** ******
      ****** ****** ****** ****** ****** ****** ****** ****** ****** ******
      ****** ****** ****** ****** ****** ****** ****** ****** ****** ******
   8  ****** ****** ****** ****** ****** ****** ****** ****** ****** ******
      ****** ****** ****** ****** ****** ****** ****** ****** ****** ******
      ****** ****** ****** ****** ****** ****** ****** ****** ****** ******
   9  ****** ****** ****** ****** ****** ****** ****** ****** ****** ******
      ****** ****** ****** ****** ****** ****** ****** ****** ****** ******
      ****** ****** ****** ****** ****** ****** ****** ****** ****** ******
  10  ****** ****** ****** ****** ****** ****** ****** ****** ****** ******
      ****** ****** ****** ****** ****** ****** ****** ****** ****** ******
      ****** ****** ****** ****** ****** ****** ****** ****** ****** ******
  11  ****** ****** ****** ****** ****** ****** ****** ****** ****** ******
      ****** ****** ****** ****** ****** ****** ****** ****** ****** ******
      ****** ****** ****** ****** ****** ****** ****** ****** ****** ******
  12  ****** ****** ****** ****** ****** ****** ****** ****** ****** ******
      ****** ****** ****** ****** ****** ****** ****** ****** ****** ******
      ****** ****** ****** ****** ****** ****** ****** ****** ****** ******
  13  ****** ****** ****** ****** ****** ****** ****** ****** ****** ******
      ****** ****** ****** ****** ****** ****** ****** ****** ****** ******
      ****** ****** ****** ****** ****** ****** ****** ****** ****** ******
  14  ****** ****** ****** ****** ****** ****** ****** ****** ****** ******
      ****** ****** ****** ****** ****** ****** ****** ****** ****** ******
      ****** ****** ****** ****** ****** ****** ****** ****** ****** ******
  15  ****** ****** ****** ****** ****** ****** ****** ****** ****** ******
      ****** ****** ****** ****** ****** ****** ****** ****** ****** ******
      ****** ****** ****** ****** ****** ****** ****** ****** ****** ******
  16  ****** ****** ****** ****** ****** ****** ****** ****** ****** ******
      ****** ****** ****** ****** ****** ****** ****** ****** ****** ******
      ****** ****** ****** ****** ****** ****** ****** ****** ****** ******
  17  ****** ****** ****** ****** ****** ****** ****** ****** ****** ******
      ****** ****** ****** ****** ****** ****** ****** ****** ****** ******
      ****** ****** ****** ****** ****** ****** ****** ****** ****** ******
  18  ****** ****** ****** ****** ****** ****** ****** ****** ****** ******
      ****** ****** ****** ****** ****** ****** ****** ****** ****** ******
      ****** ****** ****** ****** ****** ****** ****** ****** ****** ******
  19  ****** ****** ****** ****** ****** ****** ****** ****** ****** ******
      ****** ****** ****** ****** ****** ****** ****** ****** ****** ******
      ****** ****** ****** ****** ****** ****** ****** ****** ****** ******
  20  ****** ****** ****** ****** ****** ****** ****** ****** ****** ******
      ****** ****** ****** ****** ****** ****** ****** ****** ****** ******
      ****** ****** ****** ****** ****** ****** ****** ****** ****** ******
  21  ****** ****** ****** ****** ****** ****** ****** ****** ****** ******
      ****** ****** ****** ****** ****** ****** ****** ****** ****** ******
      ****** ****** ****** ****** ****** ****** ****** ****** ****** ******
  22  ****** ****** ****** ****** ****** ****** ****** ****** ****** ******
      ****** ****** ****** ****** ****** ****** ****** ****** ****** ******
      ****** ****** ****** ****** ****** ****** ****** ****** ****** ******
  23  ****** ****** ****** ****** ****** ****** ****** ****** ****** ******
      ****** ****** ****** ****** ****** ****** ****** ****** ****** ******
      ****** ****** ****** ****** ****** ****** ****** ****** ****** ******
  24  ****** ****** ****** ****** ****** ****** ****** ****** ****** ******
      ****** ****** ****** ****** ****** ****** ****** ****** ****** ******
      ****** ****** ****** ****** ****** ****** ****** ****** ****** ******
  25  ****** ****** ****** ****** ****** ****** ****** ****** ****** ******
      ****** ****** ****** ****** ****** ****** ****** ****** ****** ******
      ****** ****** ****** ****** ****** ****** ****** ****** ****** ******

 HEAD WILL BE SAVED ON UNIT   51 AT END OF TIME STEP    1, STRESS PERIOD    5
1
  VOLUMETRIC BUDGET FOR ENTIRE MODEL AT END OF TIME STEP    1, STRESS PERIOD   5
  ------------------------------------------------------------------------------

     CUMULATIVE VOLUMES      L**3       RATES FOR THIS TIME STEP      L**3/T
     ------------------                 ------------------------

           IN:                                      IN:
           ---                                      ---
             STORAGE =    31530722.3744               STORAGE =       18549.0985
       CONSTANT HEAD =    10825710.8734         CONSTANT HEAD =       32185.0384
               WELLS =           0.0000                 WELLS =           0.0000
            RECHARGE =    10074000.0000              RECHARGE =       13800.0000
      STREAM LEAKAGE =     2853570.6727        STREAM LEAKAGE =        7867.0187

            TOTAL IN =    55284003.9206              TOTAL IN =       72401.1556

          OUT:                                     OUT:
          ----                                     ----
             STORAGE =        1164.2594               STORAGE =           0.0000
       CONSTANT HEAD =           0.0000         CONSTANT HEAD =           0.0000
               WELLS =    13906119.4993                 WELLS =       30429.1455
            RECHARGE =           0.0000              RECHARGE =           0.0000
      STREAM LEAKAGE =    41376722.4956        STREAM LEAKAGE =       41972.0134

           TOTAL OUT =    55284006.2543             TOTAL OUT =       72401.1589

            IN - OUT =          -2.3337              IN - OUT =      -3.2417E-03

 PERCENT DISCREPANCY =          -0.00     PERCENT DISCREPANCY =          -0.00






         TIME SUMMARY AT END OF TIME STEP    1 IN STRESS PERIOD    5
                    SECONDS     MINUTES      HOURS       DAYS        YEARS
                    -----------------------------------------------------------
   TIME STEP LENGTH 7.94880E+06 1.32480E+05  2208.0      92.000     0.25188    
 STRESS PERIOD TIME 7.94880E+06 1.32480E+05  2208.0      92.000     0.25188    
         TOTAL TIME 3.94848E+07 6.58080E+05  10968.      457.00      1.2512    
1
1
                            STRESS PERIOD NO.    6, LENGTH =   91.00000    
                            -----------------------------------------------

                              NUMBER OF TIME STEPS =     1

                               MULTIPLIER FOR DELT =     1.500

                            INITIAL TIME STEP SIZE =   91.00000    

 WELL NO.  LAYER   ROW   COL   STRESS RATE         
 --------------------------------------------------
      1      1     14      6       0.000    
      2      1      3      9       0.000    
      3      1     20     10       0.000    
      4      1     14     20       0.000    
      5      1     16     16      -9666.    
      6      1      6     22      -5938.    
      7      1     19     13      -8939.    
      8      1      6     21      -5885.    

      8 WELLS

                 RECHARGE =  2.000000E-03

 REUSING STREAM SEGMENT DATA FROM LAST STRESS PERIOD
 
 SOLVING FOR HEAD 


     7 CALLS TO PCG ROUTINE FOR TIME STEP   1 IN STRESS PERIOD    6
    26 TOTAL ITERATIONS

 OUTPUT CONTROL FOR STRESS PERIOD    6   TIME STEP    1
    SAVE BUDGET
    SAVE HEAD FOR ALL LAYERS
    PRINT HEAD FOR ALL LAYERS
 UBDSV2 SAVING "STREAMFLOW OUT  " ON UNIT  50 AT TIME STEP  1, STRESS PERIOD   6



 STREAM LISTING     PERIOD      6   STEP        1

 LAYER ROW COL. STREAM  RCH.  FLOW INTO     FLOW TO   FLOW OUT OF   OVRLND.     DIRECT     STREAM       STREAM     STREAM     STREAM   STREAMBED  STREAMBED
                SEG.NO.  NO.  STRM. RCH.    AQUIFER    STRM. RCH.    RUNOFF     PRECIP       ET          HEAD       DEPTH      WIDTH   CONDCTNC.   GRADIENT

   1   13    1     1     1    1.0000E+05 -2.3755E+03   1.0238E+05  0.000E+00  0.000E+00  0.000E+00  4.84070E+01  1.457E-01  2.000E+01  2.000E+04 -1.188E-01
   1   13    2     1     2    1.0238E+05 -3.4257E+03   1.0580E+05  0.000E+00  0.000E+00  0.000E+00  4.79323E+01  1.482E-01  2.000E+01  2.000E+04 -1.713E-01
   1   14    3     1     3    1.0580E+05 -6.4291E+02   1.0644E+05  0.000E+00  0.000E+00  0.000E+00  4.74567E+01  1.499E-01  2.000E+01  2.000E+04 -3.215E-02
   1   15    4     1     4    1.0644E+05 -6.0784E+02   1.0705E+05  0.000E+00  0.000E+00  0.000E+00  4.69800E+01  1.504E-01  2.000E+01  2.000E+04 -3.039E-02
   1   16    5     1     5    1.0705E+05 -1.9138E+03   1.0897E+05  0.000E+00  0.000E+00  0.000E+00  4.65038E+01  1.515E-01  2.000E+01  2.000E+04 -9.569E-02
   1   16    6     1     6    1.0897E+05 -1.1687E+03   1.1013E+05  0.000E+00  0.000E+00  0.000E+00  4.60278E+01  1.528E-01  2.000E+01  2.000E+04 -5.844E-02
   1   16    7     1     7    1.1013E+05 -1.0863E+03   1.1122E+05  0.000E+00  0.000E+00  0.000E+00  4.55515E+01  1.537E-01  2.000E+01  2.000E+04 -5.432E-02
   1   16    8     1     8    1.1122E+05 -9.9169E+02   1.1221E+05  0.000E+00  0.000E+00  0.000E+00  4.50750E+01  1.546E-01  2.000E+01  2.000E+04 -4.958E-02
   1   16    9     1     9    1.1221E+05 -8.5045E+02   1.1306E+05  0.000E+00  0.000E+00  0.000E+00  4.45985E+01  1.554E-01  2.000E+01  2.000E+04 -4.252E-02
   1   16   10     1    10    1.1306E+05 -6.3844E+02   1.1370E+05  0.000E+00  0.000E+00  0.000E+00  4.41219E+01  1.560E-01  2.000E+01  2.000E+04 -3.192E-02
   1   16   11     1    11    1.1370E+05 -3.2004E+02   1.1402E+05  0.000E+00  0.000E+00  0.000E+00  4.36450E+01  1.564E-01  2.000E+01  2.000E+04 -1.600E-02
   1   16   12     1    12    1.1402E+05  1.4434E+02   1.1388E+05  0.000E+00  0.000E+00  0.000E+00  4.31678E+01  1.564E-01  2.000E+01  2.000E+04  7.217E-03
   1   15   13     1    13    1.1388E+05 -1.7304E+02   1.1405E+05  0.000E+00  0.000E+00  0.000E+00  4.26905E+01  1.565E-01  2.000E+01  2.000E+04 -8.652E-03
   1   14   14     1    14    1.1405E+05 -6.4657E+02   1.1470E+05  0.000E+00  0.000E+00  0.000E+00  4.22136E+01  1.568E-01  2.000E+01  2.000E+04 -3.233E-02
   1   13   15     1    15    1.1470E+05 -1.3763E+03   1.1607E+05  0.000E+00  0.000E+00  0.000E+00  4.17372E+01  1.576E-01  2.000E+01  2.000E+04 -6.882E-02
   1   12   16     1    16    1.1607E+05 -2.5777E+03   1.1865E+05  0.000E+00  0.000E+00  0.000E+00  4.12615E+01  1.592E-01  2.000E+01  2.000E+04 -1.289E-01
   1   12   17     1    17    1.1865E+05 -1.3786E+03   1.2003E+05  0.000E+00  0.000E+00  0.000E+00  4.07858E+01  1.608E-01  2.000E+01  2.000E+04 -6.893E-02
   1   12   18     1    18    1.2003E+05 -1.2824E+03   1.2131E+05  0.000E+00  0.000E+00  0.000E+00  4.03096E+01  1.619E-01  2.000E+01  2.000E+04 -6.412E-02
   1   12   19     1    19    1.2131E+05 -1.7233E+03   1.2303E+05  0.000E+00  0.000E+00  0.000E+00  3.98336E+01  1.631E-01  2.000E+01  2.000E+04 -8.617E-02
   1   13   20     1    20    1.2303E+05 -1.1318E+03   1.2417E+05  0.000E+00  0.000E+00  0.000E+00  3.93574E+01  1.643E-01  2.000E+01  2.000E+04 -5.659E-02
   1   14   21     1    21    1.2417E+05 -1.0360E+03   1.2520E+05  0.000E+00  0.000E+00  0.000E+00  3.88810E+01  1.651E-01  2.000E+01  2.000E+04 -5.180E-02
   1   14   22     1    22    1.2520E+05  4.8957E+03   1.2031E+05  0.000E+00  0.000E+00  0.000E+00  3.84022E+01  1.636E-01  2.000E+01  2.000E+04  2.448E-01
   1    9   30     2     1    5.0000E+04 -6.9635E+02   5.0696E+04  0.000E+00  0.000E+00  0.000E+00  4.02413E+01  1.163E-01  2.000E+01  2.000E+04 -3.482E-02
   1    9   29     2     2    5.0696E+04 -9.5553E+02   5.1652E+04  0.000E+00  0.000E+00  0.000E+00  3.99925E+01  1.175E-01  2.000E+01  2.000E+04 -4.778E-02
   1    9   28     2     3    5.1652E+04 -1.1113E+03   5.2763E+04  0.000E+00  0.000E+00  0.000E+00  3.97439E+01  1.189E-01  2.000E+01  2.000E+04 -5.557E-02
   1    9   27     2     4    5.2763E+04 -1.9001E+03   5.4663E+04  0.000E+00  0.000E+00  0.000E+00  3.94960E+01  1.210E-01  2.000E+01  2.000E+04 -9.501E-02
   1   10   26     2     5    5.4663E+04 -1.2442E+03   5.5908E+04  0.000E+00  0.000E+00  0.000E+00  3.92481E+01  1.231E-01  2.000E+01  2.000E+04 -6.221E-02
   1   11   25     2     6    5.5908E+04 -1.1202E+03   5.7028E+04  0.000E+00  0.000E+00  0.000E+00  3.89996E+01  1.246E-01  2.000E+01  2.000E+04 -5.601E-02
   1   12   24     2     7    5.7028E+04 -1.2358E+03   5.8264E+04  0.000E+00  0.000E+00  0.000E+00  3.87512E+01  1.262E-01  2.000E+01  2.000E+04 -6.179E-02
   1   13   23     2     8    5.8264E+04 -2.7795E+02   5.8542E+04  0.000E+00  0.000E+00  0.000E+00  3.85022E+01  1.272E-01  2.000E+01  2.000E+04 -1.390E-02
   1   14   22     2     9    5.8542E+04  1.8740E+03   5.6668E+04  0.000E+00  0.000E+00  0.000E+00  3.82511E+01  1.261E-01  2.000E+01  2.000E+04  9.370E-02
   1   14   22     3     1    1.7697E+05 -8.6073E+03   1.8558E+05  0.000E+00  0.000E+00  0.000E+00  3.77271E+01  1.715E-01  2.000E+01  2.000E+04 -4.304E-01
   1   15   23     3     2    1.8558E+05 -5.4812E+02   1.8613E+05  0.000E+00  0.000E+00  0.000E+00  3.68408E+01  1.741E-01  2.000E+01  2.000E+04 -2.741E-02
   1   15   24     3     3    1.8613E+05 -3.6295E+02   1.8649E+05  0.000E+00  0.000E+00  0.000E+00  3.59521E+01  1.744E-01  2.000E+01  2.000E+04 -1.815E-02
   1   15   25     3     4    1.8649E+05 -3.7007E+02   1.8686E+05  0.000E+00  0.000E+00  0.000E+00  3.50635E+01  1.746E-01  2.000E+01  2.000E+04 -1.850E-02
   1   15   26     3     5    1.8686E+05 -4.4918E+02   1.8731E+05  0.000E+00  0.000E+00  0.000E+00  3.41748E+01  1.748E-01  2.000E+01  2.000E+04 -2.246E-02
   1   16   27     3     6    1.8731E+05 -4.9657E+02   1.8781E+05  0.000E+00  0.000E+00  0.000E+00  3.32862E+01  1.751E-01  2.000E+01  2.000E+04 -2.483E-02
   1   17   28     3     7    1.8781E+05 -1.9134E+03   1.8972E+05  0.000E+00  0.000E+00  0.000E+00  3.23980E+01  1.757E-01  2.000E+01  2.000E+04 -9.567E-02
   1   18   29     3     8    1.8972E+05 -3.2392E+03   1.9296E+05  0.000E+00  0.000E+00  0.000E+00  3.15105E+01  1.772E-01  2.000E+01  2.000E+04 -1.620E-01
   1   18   30     3     9    1.9296E+05 -3.4527E+03   1.9641E+05  0.000E+00  0.000E+00  0.000E+00  3.06235E+01  1.790E-01  2.000E+01  2.000E+04 -1.726E-01



1
              HEAD IN LAYER   1 AT END OF TIME STEP   1 IN STRESS PERIOD    6
  ---------------------------------------------------------------------------

          1      2      3      4      5      6      7      8      9     10
         11     12     13     14     15     16     17     18     19     20
         21     22     23     24     25     26     27     28     29     30
 .........................................................................
   1  ****** ****** ****** ****** ****** ****** ****** ****** ****** ******
      ****** ****** ****** ****** ****** ****** ****** ****** ****** ******
      ****** ****** ****** ****** ****** ****** ****** ****** ****** ******
   2  ****** ****** ****** ****** ****** ****** ****** ****** ****** ******
      ****** ****** ****** ****** ****** ****** ****** ****** ****** ******
      ****** ****** ****** ****** ****** ****** ****** ****** ****** ******
   3  ****** ****** ****** ****** ****** ****** ****** ****** ****** ******
      ****** ****** ****** ****** ****** ****** ****** ****** ****** ******
      ****** ****** ****** ****** ****** ****** ****** ****** ****** ******
   4  ****** ****** ****** ****** ****** ****** ****** ****** ****** ******
      ****** ****** ****** ****** ****** ****** ****** ****** ****** ******
      ****** ****** ****** ****** ****** ****** ****** ****** ****** ******
   5  ****** ****** ****** ****** ****** ****** ****** ****** ****** ******
      ****** ****** ****** ****** ****** ****** ****** ****** ****** ******
      ****** ****** ****** ****** ****** ****** ****** ****** ****** ******
   6  ****** ****** ****** ****** ****** ****** ****** ****** ****** ******
      ****** ****** ****** ****** ****** ****** ****** ****** ****** ******
      ****** ****** ****** ****** ****** ****** ****** ****** ****** ******
   7  ****** ****** ****** ****** ****** ****** ****** ****** ****** ******
      ****** ****** ****** ****** ****** ****** ****** ****** ****** ******
      ****** ****** ****** ****** ****** ****** ****** ****** ****** ******
   8  ****** ****** ****** ****** ****** ****** ****** ****** ****** ******
      ****** ****** ****** ****** ****** ****** ****** ****** ****** ******
      ****** ****** ****** ****** ****** ****** ****** ****** ****** ******
   9  ****** ****** ****** ****** ****** ****** ****** ****** ****** ******
      ****** ****** ****** ****** ****** ****** ****** ****** ****** ******
      ****** ****** ****** ****** ****** ****** ****** ****** ****** ******
  10  ****** ****** ****** ****** ****** ****** ****** ****** ****** ******
      ****** ****** ****** ****** ****** ****** ****** ****** ****** ******
      ****** ****** ****** ****** ****** ****** ****** ****** ****** ******
  11  ****** ****** ****** ****** ****** ****** ****** ****** ****** ******
      ****** ****** ****** ****** ****** ****** ****** ****** ****** ******
      ****** ****** ****** ****** ****** ****** ****** ****** ****** ******
  12  ****** ****** ****** ****** ****** ****** ****** ****** ****** ******
      ****** ****** ****** ****** ****** ****** ****** ****** ****** ******
      ****** ****** ****** ****** ****** ****** ****** ****** ****** ******
  13  ****** ****** ****** ****** ****** ****** ****** ****** ****** ******
      ****** ****** ****** ****** ****** ****** ****** ****** ****** ******
      ****** ****** ****** ****** ****** ****** ****** ****** ****** ******
  14  ****** ****** ****** ****** ****** ****** ****** ****** ****** ******
      ****** ****** ****** ****** ****** ****** ****** ****** ****** ******
      ****** ****** ****** ****** ****** ****** ****** ****** ****** ******
  15  ****** ****** ****** ****** ****** ****** ****** ****** ****** ******
      ****** ****** ****** ****** ****** ****** ****** ****** ****** ******
      ****** ****** ****** ****** ****** ****** ****** ****** ****** ******
  16  ****** ****** ****** ****** ****** ****** ****** ****** ****** ******
      ****** ****** ****** ****** ****** ****** ****** ****** ****** ******
      ****** ****** ****** ****** ****** ****** ****** ****** ****** ******
  17  ****** ****** ****** ****** ****** ****** ****** ****** ****** ******
      ****** ****** ****** ****** ****** ****** ****** ****** ****** ******
      ****** ****** ****** ****** ****** ****** ****** ****** ****** ******
  18  ****** ****** ****** ****** ****** ****** ****** ****** ****** ******
      ****** ****** ****** ****** ****** ****** ****** ****** ****** ******
      ****** ****** ****** ****** ****** ****** ****** ****** ****** ******
  19  ****** ****** ****** ****** ****** ****** ****** ****** ****** ******
      ****** ****** ****** ****** ****** ****** ****** ****** ****** ******
      ****** ****** ****** ****** ****** ****** ****** ****** ****** ******
  20  ****** ****** ****** ****** ****** ****** ****** ****** ****** ******
      ****** ****** ****** ****** ****** ****** ****** ****** ****** ******
      ****** ****** ****** ****** ****** ****** ****** ****** ****** ******
  21  ****** ****** ****** ****** ****** ****** ****** ****** ****** ******
      ****** ****** ****** ****** ****** ****** ****** ****** ****** ******
      ****** ****** ****** ****** ****** ****** ****** ****** ****** ******
  22  ****** ****** ****** ****** ****** ****** ****** ****** ****** ******
      ****** ****** ****** ****** ****** ****** ****** ****** ****** ******
      ****** ****** ****** ****** ****** ****** ****** ****** ****** ******
  23  ****** ****** ****** ****** ****** ****** ****** ****** ****** ******
      ****** ****** ****** ****** ****** ****** ****** ****** ****** ******
      ****** ****** ****** ****** ****** ****** ****** ****** ****** ******
  24  ****** ****** ****** ****** ****** ****** ****** ****** ****** ******
      ****** ****** ****** ****** ****** ****** ****** ****** ****** ******
      ****** ****** ****** ****** ****** ****** ****** ****** ****** ******
  25  ****** ****** ****** ****** ****** ****** ****** ****** ****** ******
      ****** ****** ****** ****** ****** ****** ****** ****** ****** ******
      ****** ****** ****** ****** ****** ****** ****** ****** ****** ******

 HEAD WILL BE SAVED ON UNIT   51 AT END OF TIME STEP    1, STRESS PERIOD    6
1
  VOLUMETRIC BUDGET FOR ENTIRE MODEL AT END OF TIME STEP    1, STRESS PERIOD   6
  ------------------------------------------------------------------------------

     CUMULATIVE VOLUMES      L**3       RATES FOR THIS TIME STEP      L**3/T
     ------------------                 ------------------------

           IN:                                      IN:
           ---                                      ---
             STORAGE =    31530722.3744               STORAGE =           0.0000
       CONSTANT HEAD =    13584040.5601         CONSTANT HEAD =       30311.3152
               WELLS =           0.0000                 WELLS =           0.0000
            RECHARGE =    15097200.0000              RECHARGE =       55200.0000
      STREAM LEAKAGE =     3482744.6607        STREAM LEAKAGE =        6913.9999

            TOTAL IN =    63694707.5953              TOTAL IN =       92425.3151

          OUT:                                     OUT:
          ----                                     ----
             STORAGE =      789957.0291               STORAGE =        8668.0524
       CONSTANT HEAD =           0.0000         CONSTANT HEAD =           0.0000
               WELLS =    16675171.7410                 WELLS =       30429.1455
            RECHARGE =           0.0000              RECHARGE =           0.0000
      STREAM LEAKAGE =    46229580.8946        STREAM LEAKAGE =       53328.1143

           TOTAL OUT =    63694709.6647             TOTAL OUT =       92425.3122

            IN - OUT =          -2.0694              IN - OUT =       2.9041E-03

 PERCENT DISCREPANCY =          -0.00     PERCENT DISCREPANCY =           0.00






         TIME SUMMARY AT END OF TIME STEP    1 IN STRESS PERIOD    6
                    SECONDS     MINUTES      HOURS       DAYS        YEARS
                    -----------------------------------------------------------
   TIME STEP LENGTH 7.86240E+06 1.31040E+05  2184.0      91.000     0.24914    
 STRESS PERIOD TIME 7.86240E+06 1.31040E+05  2184.0      91.000     0.24914    
         TOTAL TIME 4.73472E+07 7.89120E+05  13152.      548.00      1.5003    
1
1
                            STRESS PERIOD NO.    7, LENGTH =   91.00000    
                            -----------------------------------------------

                              NUMBER OF TIME STEPS =     1

                               MULTIPLIER FOR DELT =     1.500

                            INITIAL TIME STEP SIZE =   91.00000    

 WELL NO.  LAYER   ROW   COL   STRESS RATE         
 --------------------------------------------------
      1      1     14      6       0.000    
      2      1      3      9       0.000    
      3      1     20     10       0.000    
      4      1     14     20       0.000    
      5      1     16     16      -9666.    
      6      1      6     22      -5938.    
      7      1     19     13      -8939.    
      8      1      6     21      -5885.    

      8 WELLS

                 RECHARGE =   0.00000    

 REUSING STREAM SEGMENT DATA FROM LAST STRESS PERIOD
 
 SOLVING FOR HEAD 


     7 CALLS TO PCG ROUTINE FOR TIME STEP   1 IN STRESS PERIOD    7
    26 TOTAL ITERATIONS

 OUTPUT CONTROL FOR STRESS PERIOD    7   TIME STEP    1
    SAVE BUDGET
    SAVE HEAD FOR ALL LAYERS
    PRINT HEAD FOR ALL LAYERS
 UBDSV2 SAVING "STREAMFLOW OUT  " ON UNIT  50 AT TIME STEP  1, STRESS PERIOD   7



 STREAM LISTING     PERIOD      7   STEP        1

 LAYER ROW COL. STREAM  RCH.  FLOW INTO     FLOW TO   FLOW OUT OF   OVRLND.     DIRECT     STREAM       STREAM     STREAM     STREAM   STREAMBED  STREAMBED
                SEG.NO.  NO.  STRM. RCH.    AQUIFER    STRM. RCH.    RUNOFF     PRECIP       ET          HEAD       DEPTH      WIDTH   CONDCTNC.   GRADIENT

   1   13    1     1     1    1.0000E+05 -1.7098E+03   1.0171E+05  0.000E+00  0.000E+00  0.000E+00  4.84068E+01  1.454E-01  2.000E+01  2.000E+04 -8.549E-02
   1   13    2     1     2    1.0171E+05 -2.6812E+03   1.0439E+05  0.000E+00  0.000E+00  0.000E+00  4.79314E+01  1.473E-01  2.000E+01  2.000E+04 -1.341E-01
   1   14    3     1     3    1.0439E+05 -3.9090E+02   1.0478E+05  0.000E+00  0.000E+00  0.000E+00  4.74554E+01  1.486E-01  2.000E+01  2.000E+04 -1.954E-02
   1   15    4     1     4    1.0478E+05 -3.4481E+02   1.0513E+05  0.000E+00  0.000E+00  0.000E+00  4.69785E+01  1.489E-01  2.000E+01  2.000E+04 -1.724E-02
   1   16    5     1     5    1.0513E+05 -1.1561E+03   1.0628E+05  0.000E+00  0.000E+00  0.000E+00  4.65018E+01  1.495E-01  2.000E+01  2.000E+04 -5.780E-02
   1   16    6     1     6    1.0628E+05 -7.1220E+02   1.0699E+05  0.000E+00  0.000E+00  0.000E+00  4.60253E+01  1.503E-01  2.000E+01  2.000E+04 -3.561E-02
   1   16    7     1     7    1.0699E+05 -6.4832E+02   1.0764E+05  0.000E+00  0.000E+00  0.000E+00  4.55486E+01  1.509E-01  2.000E+01  2.000E+04 -3.242E-02
   1   16    8     1     8    1.0764E+05 -5.5958E+02   1.0820E+05  0.000E+00  0.000E+00  0.000E+00  4.50719E+01  1.514E-01  2.000E+01  2.000E+04 -2.798E-02
   1   16    9     1     9    1.0820E+05 -4.2133E+02   1.0862E+05  0.000E+00  0.000E+00  0.000E+00  4.45950E+01  1.518E-01  2.000E+01  2.000E+04 -2.107E-02
   1   16   10     1    10    1.0862E+05 -2.1155E+02   1.0884E+05  0.000E+00  0.000E+00  0.000E+00  4.41180E+01  1.521E-01  2.000E+01  2.000E+04 -1.058E-02
   1   16   11     1    11    1.0884E+05  1.0848E+02   1.0873E+05  0.000E+00  0.000E+00  0.000E+00  4.36408E+01  1.521E-01  2.000E+01  2.000E+04  5.424E-03
   1   16   12     1    12    1.0873E+05  8.6493E+02   1.0786E+05  0.000E+00  0.000E+00  0.000E+00  4.31631E+01  1.517E-01  2.000E+01  2.000E+04  4.325E-02
   1   15   13     1    13    1.0786E+05  5.9792E+02   1.0726E+05  0.000E+00  0.000E+00  0.000E+00  4.26852E+01  1.511E-01  2.000E+01  2.000E+04  2.990E-02
   1   14   14     1    14    1.0726E+05  1.5150E+02   1.0711E+05  0.000E+00  0.000E+00  0.000E+00  4.22076E+01  1.508E-01  2.000E+01  2.000E+04  7.575E-03
   1   13   15     1    15    1.0711E+05 -5.7671E+02   1.0769E+05  0.000E+00  0.000E+00  0.000E+00  4.17305E+01  1.510E-01  2.000E+01  2.000E+04 -2.884E-02
   1   12   16     1    16    1.0769E+05 -1.7848E+03   1.0947E+05  0.000E+00  0.000E+00  0.000E+00  4.12543E+01  1.520E-01  2.000E+01  2.000E+04 -8.924E-02
   1   12   17     1    17    1.0947E+05 -8.0113E+02   1.1028E+05  0.000E+00  0.000E+00  0.000E+00  4.07781E+01  1.531E-01  2.000E+01  2.000E+04 -4.006E-02
   1   12   18     1    18    1.1028E+05 -7.1860E+02   1.1099E+05  0.000E+00  0.000E+00  0.000E+00  4.03014E+01  1.537E-01  2.000E+01  2.000E+04 -3.593E-02
   1   12   19     1    19    1.1099E+05 -1.0345E+03   1.1203E+05  0.000E+00  0.000E+00  0.000E+00  3.98249E+01  1.544E-01  2.000E+01  2.000E+04 -5.173E-02
   1   13   20     1    20    1.1203E+05 -4.5995E+02   1.1249E+05  0.000E+00  0.000E+00  0.000E+00  3.93482E+01  1.550E-01  2.000E+01  2.000E+04 -2.300E-02
   1   14   21     1    21    1.1249E+05 -3.7146E+02   1.1286E+05  0.000E+00  0.000E+00  0.000E+00  3.88713E+01  1.554E-01  2.000E+01  2.000E+04 -1.857E-02
   1   14   22     1    22    1.1286E+05  5.0522E+03   1.0781E+05  0.000E+00  0.000E+00  0.000E+00  3.83921E+01  1.534E-01  2.000E+01  2.000E+04  2.526E-01
   1    9   30     2     1    5.0000E+04 -1.8119E+02   5.0181E+04  0.000E+00  0.000E+00  0.000E+00  4.02410E+01  1.160E-01  2.000E+01  2.000E+04 -9.060E-03
   1    9   29     2     2    5.0181E+04 -4.4209E+02   5.0623E+04  0.000E+00  0.000E+00  0.000E+00  3.99914E+01  1.164E-01  2.000E+01  2.000E+04 -2.210E-02
   1    9   28     2     3    5.0623E+04 -5.9640E+02   5.1220E+04  0.000E+00  0.000E+00  0.000E+00  3.97421E+01  1.171E-01  2.000E+01  2.000E+04 -2.982E-02
   1    9   27     2     4    5.1220E+04 -1.1997E+03   5.2419E+04  0.000E+00  0.000E+00  0.000E+00  3.94934E+01  1.184E-01  2.000E+01  2.000E+04 -5.999E-02
   1   10   26     2     5    5.2419E+04 -5.4299E+02   5.2962E+04  0.000E+00  0.000E+00  0.000E+00  3.92446E+01  1.196E-01  2.000E+01  2.000E+04 -2.715E-02
   1   11   25     2     6    5.2962E+04 -4.4810E+02   5.3410E+04  0.000E+00  0.000E+00  0.000E+00  3.89952E+01  1.202E-01  2.000E+01  2.000E+04 -2.241E-02
   1   12   24     2     7    5.3410E+04 -6.2311E+02   5.4034E+04  0.000E+00  0.000E+00  0.000E+00  3.87460E+01  1.210E-01  2.000E+01  2.000E+04 -3.116E-02
   1   13   23     2     8    5.4034E+04 -8.5886E+01   5.4119E+04  0.000E+00  0.000E+00  0.000E+00  3.84964E+01  1.214E-01  2.000E+01  2.000E+04 -4.294E-03
   1   14   22     2     9    5.4119E+04  2.1120E+03   5.2007E+04  0.000E+00  0.000E+00  0.000E+00  3.82451E+01  1.201E-01  2.000E+01  2.000E+04  1.056E-01
   1   14   22     3     1    1.5982E+05 -8.4476E+03   1.6826E+05  0.000E+00  0.000E+00  0.000E+00  3.77171E+01  1.615E-01  2.000E+01  2.000E+04 -4.224E-01
   1   15   23     3     2    1.6826E+05 -3.4111E+02   1.6860E+05  0.000E+00  0.000E+00  0.000E+00  3.68308E+01  1.641E-01  2.000E+01  2.000E+04 -1.706E-02
   1   15   24     3     3    1.6860E+05 -1.8911E+02   1.6879E+05  0.000E+00  0.000E+00  0.000E+00  3.59421E+01  1.643E-01  2.000E+01  2.000E+04 -9.455E-03
   1   15   25     3     4    1.6879E+05 -1.9324E+02   1.6899E+05  0.000E+00  0.000E+00  0.000E+00  3.50533E+01  1.644E-01  2.000E+01  2.000E+04 -9.662E-03
   1   15   26     3     5    1.6899E+05 -2.4792E+02   1.6923E+05  0.000E+00  0.000E+00  0.000E+00  3.41645E+01  1.645E-01  2.000E+01  2.000E+04 -1.240E-02
   1   16   27     3     6    1.6923E+05 -2.6412E+02   1.6950E+05  0.000E+00  0.000E+00  0.000E+00  3.32758E+01  1.647E-01  2.000E+01  2.000E+04 -1.321E-02
   1   17   28     3     7    1.6950E+05 -1.2714E+03   1.7077E+05  0.000E+00  0.000E+00  0.000E+00  3.23873E+01  1.651E-01  2.000E+01  2.000E+04 -6.357E-02
   1   18   29     3     8    1.7077E+05 -2.5518E+03   1.7332E+05  0.000E+00  0.000E+00  0.000E+00  3.14996E+01  1.662E-01  2.000E+01  2.000E+04 -1.276E-01
   1   18   30     3     9    1.7332E+05 -2.9234E+03   1.7625E+05  0.000E+00  0.000E+00  0.000E+00  3.06122E+01  1.678E-01  2.000E+01  2.000E+04 -1.462E-01



1
              HEAD IN LAYER   1 AT END OF TIME STEP   1 IN STRESS PERIOD    7
  ---------------------------------------------------------------------------

          1      2      3      4      5      6      7      8      9     10
         11     12     13     14     15     16     17     18     19     20
         21     22     23     24     25     26     27     28     29     30
 .........................................................................
   1  ****** ****** ****** ****** ****** ****** ****** ****** ****** ******
      ****** ****** ****** ****** ****** ****** ****** ****** ****** ******
      ****** ****** ****** ****** ****** ****** ****** ****** ****** ******
   2  ****** ****** ****** ****** ****** ****** ****** ****** ****** ******
      ****** ****** ****** ****** ****** ****** ****** ****** ****** ******
      ****** ****** ****** ****** ****** ****** ****** ****** ****** ******
   3  ****** ****** ****** ****** ****** ****** ****** ****** ****** ******
      ****** ****** ****** ****** ****** ****** ****** ****** ****** ******
      ****** ****** ****** ****** ****** ****** ****** ****** ****** ******
   4  ****** ****** ****** ****** ****** ****** ****** ****** ****** ******
      ****** ****** ****** ****** ****** ****** ****** ****** ****** ******
      ****** ****** ****** ****** ****** ****** ****** ****** ****** ******
   5  ****** ****** ****** ****** ****** ****** ****** ****** ****** ******
      ****** ****** ****** ****** ****** ****** ****** ****** ****** ******
      ****** ****** ****** ****** ****** ****** ****** ****** ****** ******
   6  ****** ****** ****** ****** ****** ****** ****** ****** ****** ******
      ****** ****** ****** ****** ****** ****** ****** ****** ****** ******
      ****** ****** ****** ****** ****** ****** ****** ****** ****** ******
   7  ****** ****** ****** ****** ****** ****** ****** ****** ****** ******
      ****** ****** ****** ****** ****** ****** ****** ****** ****** ******
      ****** ****** ****** ****** ****** ****** ****** ****** ****** ******
   8  ****** ****** ****** ****** ****** ****** ****** ****** ****** ******
      ****** ****** ****** ****** ****** ****** ****** ****** ****** ******
      ****** ****** ****** ****** ****** ****** ****** ****** ****** ******
   9  ****** ****** ****** ****** ****** ****** ****** ****** ****** ******
      ****** ****** ****** ****** ****** ****** ****** ****** ****** ******
      ****** ****** ****** ****** ****** ****** ****** ****** ****** ******
  10  ****** ****** ****** ****** ****** ****** ****** ****** ****** ******
      ****** ****** ****** ****** ****** ****** ****** ****** ****** ******
      ****** ****** ****** ****** ****** ****** ****** ****** ****** ******
  11  ****** ****** ****** ****** ****** ****** ****** ****** ****** ******
      ****** ****** ****** ****** ****** ****** ****** ****** ****** ******
      ****** ****** ****** ****** ****** ****** ****** ****** ****** ******
  12  ****** ****** ****** ****** ****** ****** ****** ****** ****** ******
      ****** ****** ****** ****** ****** ****** ****** ****** ****** ******
      ****** ****** ****** ****** ****** ****** ****** ****** ****** ******
  13  ****** ****** ****** ****** ****** ****** ****** ****** ****** ******
      ****** ****** ****** ****** ****** ****** ****** ****** ****** ******
      ****** ****** ****** ****** ****** ****** ****** ****** ****** ******
  14  ****** ****** ****** ****** ****** ****** ****** ****** ****** ******
      ****** ****** ****** ****** ****** ****** ****** ****** ****** ******
      ****** ****** ****** ****** ****** ****** ****** ****** ****** ******
  15  ****** ****** ****** ****** ****** ****** ****** ****** ****** ******
      ****** ****** ****** ****** ****** ****** ****** ****** ****** ******
      ****** ****** ****** ****** ****** ****** ****** ****** ****** ******
  16  ****** ****** ****** ****** ****** ****** ****** ****** ****** ******
      ****** ****** ****** ****** ****** ****** ****** ****** ****** ******
      ****** ****** ****** ****** ****** ****** ****** ****** ****** ******
  17  ****** ****** ****** ****** ****** ****** ****** ****** ****** ******
      ****** ****** ****** ****** ****** ****** ****** ****** ****** ******
      ****** ****** ****** ****** ****** ****** ****** ****** ****** ******
  18  ****** ****** ****** ****** ****** ****** ****** ****** ****** ******
      ****** ****** ****** ****** ****** ****** ****** ****** ****** ******
      ****** ****** ****** ****** ****** ****** ****** ****** ****** ******
  19  ****** ****** ****** ****** ****** ****** ****** ****** ****** ******
      ****** ****** ****** ****** ****** ****** ****** ****** ****** ******
      ****** ****** ****** ****** ****** ****** ****** ****** ****** ******
  20  ****** ****** ****** ****** ****** ****** ****** ****** ****** ******
      ****** ****** ****** ****** ****** ****** ****** ****** ****** ******
      ****** ****** ****** ****** ****** ****** ****** ****** ****** ******
  21  ****** ****** ****** ****** ****** ****** ****** ****** ****** ******
      ****** ****** ****** ****** ****** ****** ****** ****** ****** ******
      ****** ****** ****** ****** ****** ****** ****** ****** ****** ******
  22  ****** ****** ****** ****** ****** ****** ****** ****** ****** ******
      ****** ****** ****** ****** ****** ****** ****** ****** ****** ******
      ****** ****** ****** ****** ****** ****** ****** ****** ****** ******
  23  ****** ****** ****** ****** ****** ****** ****** ****** ****** ******
      ****** ****** ****** ****** ****** ****** ****** ****** ****** ******
      ****** ****** ****** ****** ****** ****** ****** ****** ****** ******
  24  ****** ****** ****** ****** ****** ****** ****** ****** ****** ******
      ****** ****** ****** ****** ****** ****** ****** ****** ****** ******
      ****** ****** ****** ****** ****** ****** ****** ****** ****** ******
  25  ****** ****** ****** ****** ****** ****** ****** ****** ****** ******
      ****** ****** ****** ****** ****** ****** ****** ****** ****** ******
      ****** ****** ****** ****** ****** ****** ****** ****** ****** ******

 HEAD WILL BE SAVED ON UNIT   51 AT END OF TIME STEP    1, STRESS PERIOD    7
1
  VOLUMETRIC BUDGET FOR ENTIRE MODEL AT END OF TIME STEP    1, STRESS PERIOD   7
  ------------------------------------------------------------------------------

     CUMULATIVE VOLUMES      L**3       RATES FOR THIS TIME STEP      L**3/T
     ------------------                 ------------------------

           IN:                                      IN:
           ---                                      ---
             STORAGE =    33570969.5283               STORAGE =       22420.2984
       CONSTANT HEAD =    16701146.5637         CONSTANT HEAD =       34253.9121
               WELLS =           0.0000                 WELLS =           0.0000
            RECHARGE =    15097200.0000              RECHARGE =           0.0000
      STREAM LEAKAGE =     4291465.9241        STREAM LEAKAGE =        8887.0469

            TOTAL IN =    69660782.0160              TOTAL IN =       65561.2574

          OUT:                                     OUT:
          ----                                     ----
             STORAGE =      789957.0291               STORAGE =           0.0000
       CONSTANT HEAD =           0.0000         CONSTANT HEAD =           0.0000
               WELLS =    19444223.9827                 WELLS =       30429.1455
            RECHARGE =           0.0000              RECHARGE =           0.0000
      STREAM LEAKAGE =    49426603.5858        STREAM LEAKAGE =       35132.1175

           TOTAL OUT =    69660784.5976             TOTAL OUT =       65561.2630

            IN - OUT =          -2.5815              IN - OUT =      -5.6275E-03

 PERCENT DISCREPANCY =          -0.00     PERCENT DISCREPANCY =          -0.00






         TIME SUMMARY AT END OF TIME STEP    1 IN STRESS PERIOD    7
                    SECONDS     MINUTES      HOURS       DAYS        YEARS
                    -----------------------------------------------------------
   TIME STEP LENGTH 7.86240E+06 1.31040E+05  2184.0      91.000     0.24914    
 STRESS PERIOD TIME 7.86240E+06 1.31040E+05  2184.0      91.000     0.24914    
         TOTAL TIME 5.52096E+07 9.20160E+05  15336.      639.00      1.7495    
1
1
                            STRESS PERIOD NO.    8, LENGTH =   91.00000    
                            -----------------------------------------------

                              NUMBER OF TIME STEPS =     1

                               MULTIPLIER FOR DELT =     1.500

                            INITIAL TIME STEP SIZE =   91.00000    

 WELL NO.  LAYER   ROW   COL   STRESS RATE         
 --------------------------------------------------
      1      1     14      6       0.000    
      2      1      3      9       0.000    
      3      1     20     10       0.000    
      4      1     14     20       0.000    
      5      1     16     16      -9666.    
      6      1      6     22      -5938.    
      7      1     19     13      -8939.    
      8      1      6     21      -5885.    

      8 WELLS

                 RECHARGE =  1.000000E-03

 REUSING STREAM SEGMENT DATA FROM LAST STRESS PERIOD
 
 SOLVING FOR HEAD 


     6 CALLS TO PCG ROUTINE FOR TIME STEP   1 IN STRESS PERIOD    8
    22 TOTAL ITERATIONS

 OUTPUT CONTROL FOR STRESS PERIOD    8   TIME STEP    1
    SAVE BUDGET
    SAVE HEAD FOR ALL LAYERS
    PRINT HEAD FOR ALL LAYERS
 UBDSV2 SAVING "STREAMFLOW OUT  " ON UNIT  50 AT TIME STEP  1, STRESS PERIOD   8



 STREAM LISTING     PERIOD      8   STEP        1

 LAYER ROW COL. STREAM  RCH.  FLOW INTO     FLOW TO   FLOW OUT OF   OVRLND.     DIRECT     STREAM       STREAM     STREAM     STREAM   STREAMBED  STREAMBED
                SEG.NO.  NO.  STRM. RCH.    AQUIFER    STRM. RCH.    RUNOFF     PRECIP       ET          HEAD       DEPTH      WIDTH   CONDCTNC.   GRADIENT

   1   13    1     1     1    1.0000E+05 -1.7838E+03   1.0178E+05  0.000E+00  0.000E+00  0.000E+00  4.84068E+01  1.454E-01  2.000E+01  2.000E+04 -8.919E-02
   1   13    2     1     2    1.0178E+05 -2.7551E+03   1.0454E+05  0.000E+00  0.000E+00  0.000E+00  4.79315E+01  1.474E-01  2.000E+01  2.000E+04 -1.378E-01
   1   14    3     1     3    1.0454E+05 -4.5496E+02   1.0499E+05  0.000E+00  0.000E+00  0.000E+00  4.74556E+01  1.488E-01  2.000E+01  2.000E+04 -2.275E-02
   1   15    4     1     4    1.0499E+05 -4.1336E+02   1.0541E+05  0.000E+00  0.000E+00  0.000E+00  4.69787E+01  1.491E-01  2.000E+01  2.000E+04 -2.067E-02
   1   16    5     1     5    1.0541E+05 -1.3277E+03   1.0673E+05  0.000E+00  0.000E+00  0.000E+00  4.65021E+01  1.499E-01  2.000E+01  2.000E+04 -6.639E-02
   1   16    6     1     6    1.0673E+05 -8.1810E+02   1.0755E+05  0.000E+00  0.000E+00  0.000E+00  4.60258E+01  1.508E-01  2.000E+01  2.000E+04 -4.091E-02
   1   16    7     1     7    1.0755E+05 -7.4931E+02   1.0830E+05  0.000E+00  0.000E+00  0.000E+00  4.55492E+01  1.514E-01  2.000E+01  2.000E+04 -3.747E-02
   1   16    8     1     8    1.0830E+05 -6.5973E+02   1.0896E+05  0.000E+00  0.000E+00  0.000E+00  4.50725E+01  1.520E-01  2.000E+01  2.000E+04 -3.299E-02
   1   16    9     1     9    1.0896E+05 -5.2258E+02   1.0948E+05  0.000E+00  0.000E+00  0.000E+00  4.45957E+01  1.525E-01  2.000E+01  2.000E+04 -2.613E-02
   1   16   10     1    10    1.0948E+05 -3.1521E+02   1.0980E+05  0.000E+00  0.000E+00  0.000E+00  4.41188E+01  1.529E-01  2.000E+01  2.000E+04 -1.576E-02
   1   16   11     1    11    1.0980E+05  1.9197E+00   1.0980E+05  0.000E+00  0.000E+00  0.000E+00  4.36416E+01  1.530E-01  2.000E+01  2.000E+04  9.599E-05
   1   16   12     1    12    1.0980E+05  7.0598E+02   1.0909E+05  0.000E+00  0.000E+00  0.000E+00  4.31641E+01  1.527E-01  2.000E+01  2.000E+04  3.530E-02
   1   15   13     1    13    1.0909E+05  4.3153E+02   1.0866E+05  0.000E+00  0.000E+00  0.000E+00  4.26863E+01  1.522E-01  2.000E+01  2.000E+04  2.158E-02
   1   14   14     1    14    1.0866E+05 -7.9806E+00   1.0867E+05  0.000E+00  0.000E+00  0.000E+00  4.22089E+01  1.520E-01  2.000E+01  2.000E+04 -3.990E-04
   1   13   15     1    15    1.0867E+05 -7.2330E+02   1.0939E+05  0.000E+00  0.000E+00  0.000E+00  4.17319E+01  1.524E-01  2.000E+01  2.000E+04 -3.616E-02
   1   12   16     1    16    1.0939E+05 -1.8931E+03   1.1128E+05  0.000E+00  0.000E+00  0.000E+00  4.12557E+01  1.534E-01  2.000E+01  2.000E+04 -9.465E-02
   1   12   17     1    17    1.1128E+05 -9.1038E+02   1.1220E+05  0.000E+00  0.000E+00  0.000E+00  4.07796E+01  1.546E-01  2.000E+01  2.000E+04 -4.552E-02
   1   12   18     1    18    1.1220E+05 -8.3463E+02   1.1303E+05  0.000E+00  0.000E+00  0.000E+00  4.03031E+01  1.553E-01  2.000E+01  2.000E+04 -4.173E-02
   1   12   19     1    19    1.1303E+05 -1.1809E+03   1.1421E+05  0.000E+00  0.000E+00  0.000E+00  3.98266E+01  1.562E-01  2.000E+01  2.000E+04 -5.905E-02
   1   13   20     1    20    1.1421E+05 -6.3600E+02   1.1485E+05  0.000E+00  0.000E+00  0.000E+00  3.93501E+01  1.569E-01  2.000E+01  2.000E+04 -3.180E-02
   1   14   21     1    21    1.1485E+05 -5.2765E+02   1.1537E+05  0.000E+00  0.000E+00  0.000E+00  3.88733E+01  1.574E-01  2.000E+01  2.000E+04 -2.638E-02
   1   14   22     1    22    1.1537E+05  5.0052E+03   1.1037E+05  0.000E+00  0.000E+00  0.000E+00  3.83942E+01  1.556E-01  2.000E+01  2.000E+04  2.503E-01
   1    9   30     2     1    5.0000E+04 -3.4329E+02   5.0343E+04  0.000E+00  0.000E+00  0.000E+00  4.02411E+01  1.161E-01  2.000E+01  2.000E+04 -1.716E-02
   1    9   29     2     2    5.0343E+04 -6.0134E+02   5.0945E+04  0.000E+00  0.000E+00  0.000E+00  3.99918E+01  1.168E-01  2.000E+01  2.000E+04 -3.007E-02
   1    9   28     2     3    5.0945E+04 -7.4993E+02   5.1695E+04  0.000E+00  0.000E+00  0.000E+00  3.97427E+01  1.177E-01  2.000E+01  2.000E+04 -3.750E-02
   1    9   27     2     4    5.1695E+04 -1.3753E+03   5.3070E+04  0.000E+00  0.000E+00  0.000E+00  3.94941E+01  1.191E-01  2.000E+01  2.000E+04 -6.877E-02
   1   10   26     2     5    5.3070E+04 -7.4631E+02   5.3816E+04  0.000E+00  0.000E+00  0.000E+00  3.92456E+01  1.206E-01  2.000E+01  2.000E+04 -3.732E-02
   1   11   25     2     6    5.3816E+04 -6.5016E+02   5.4466E+04  0.000E+00  0.000E+00  0.000E+00  3.89965E+01  1.215E-01  2.000E+01  2.000E+04 -3.251E-02
   1   12   24     2     7    5.4466E+04 -8.0647E+02   5.5273E+04  0.000E+00  0.000E+00  0.000E+00  3.87475E+01  1.225E-01  2.000E+01  2.000E+04 -4.032E-02
   1   13   23     2     8    5.5273E+04 -1.5992E+02   5.5433E+04  0.000E+00  0.000E+00  0.000E+00  3.84982E+01  1.232E-01  2.000E+01  2.000E+04 -7.996E-03
   1   14   22     2     9    5.5433E+04  2.0591E+03   5.3374E+04  0.000E+00  0.000E+00  0.000E+00  3.82469E+01  1.219E-01  2.000E+01  2.000E+04  1.030E-01
   1   14   22     3     1    1.6374E+05 -8.4903E+03   1.7223E+05  0.000E+00  0.000E+00  0.000E+00  3.77194E+01  1.639E-01  2.000E+01  2.000E+04 -4.245E-01
   1   15   23     3     2    1.7223E+05 -4.0483E+02   1.7264E+05  0.000E+00  0.000E+00  0.000E+00  3.68331E+01  1.664E-01  2.000E+01  2.000E+04 -2.024E-02
   1   15   24     3     3    1.7264E+05 -2.4938E+02   1.7289E+05  0.000E+00  0.000E+00  0.000E+00  3.59444E+01  1.666E-01  2.000E+01  2.000E+04 -1.247E-02
   1   15   25     3     4    1.7289E+05 -2.5528E+02   1.7314E+05  0.000E+00  0.000E+00  0.000E+00  3.50557E+01  1.668E-01  2.000E+01  2.000E+04 -1.276E-02
   1   15   26     3     5    1.7314E+05 -3.2245E+02   1.7346E+05  0.000E+00  0.000E+00  0.000E+00  3.41669E+01  1.669E-01  2.000E+01  2.000E+04 -1.612E-02
   1   16   27     3     6    1.7346E+05 -3.4572E+02   1.7381E+05  0.000E+00  0.000E+00  0.000E+00  3.32783E+01  1.671E-01  2.000E+01  2.000E+04 -1.729E-02
   1   17   28     3     7    1.7381E+05 -1.4744E+03   1.7528E+05  0.000E+00  0.000E+00  0.000E+00  3.23899E+01  1.677E-01  2.000E+01  2.000E+04 -7.372E-02
   1   18   29     3     8    1.7528E+05 -2.7156E+03   1.7800E+05  0.000E+00  0.000E+00  0.000E+00  3.15022E+01  1.689E-01  2.000E+01  2.000E+04 -1.358E-01
   1   18   30     3     9    1.7800E+05 -3.0691E+03   1.8107E+05  0.000E+00  0.000E+00  0.000E+00  3.06150E+01  1.705E-01  2.000E+01  2.000E+04 -1.535E-01



1
              HEAD IN LAYER   1 AT END OF TIME STEP   1 IN STRESS PERIOD    8
  ---------------------------------------------------------------------------

          1      2      3      4      5      6      7      8      9     10
         11     12     13     14     15     16     17     18     19     20
         21     22     23     24     25     26     27     28     29     30
 .........................................................................
   1  ****** ****** ****** ****** ****** ****** ****** ****** ****** ******
      ****** ****** ****** ****** ****** ****** ****** ****** ****** ******
      ****** ****** ****** ****** ****** ****** ****** ****** ****** ******
   2  ****** ****** ****** ****** ****** ****** ****** ****** ****** ******
      ****** ****** ****** ****** ****** ****** ****** ****** ****** ******
      ****** ****** ****** ****** ****** ****** ****** ****** ****** ******
   3  ****** ****** ****** ****** ****** ****** ****** ****** ****** ******
      ****** ****** ****** ****** ****** ****** ****** ****** ****** ******
      ****** ****** ****** ****** ****** ****** ****** ****** ****** ******
   4  ****** ****** ****** ****** ****** ****** ****** ****** ****** ******
      ****** ****** ****** ****** ****** ****** ****** ****** ****** ******
      ****** ****** ****** ****** ****** ****** ****** ****** ****** ******
   5  ****** ****** ****** ****** ****** ****** ****** ****** ****** ******
      ****** ****** ****** ****** ****** ****** ****** ****** ****** ******
      ****** ****** ****** ****** ****** ****** ****** ****** ****** ******
   6  ****** ****** ****** ****** ****** ****** ****** ****** ****** ******
      ****** ****** ****** ****** ****** ****** ****** ****** ****** ******
      ****** ****** ****** ****** ****** ****** ****** ****** ****** ******
   7  ****** ****** ****** ****** ****** ****** ****** ****** ****** ******
      ****** ****** ****** ****** ****** ****** ****** ****** ****** ******
      ****** ****** ****** ****** ****** ****** ****** ****** ****** ******
   8  ****** ****** ****** ****** ****** ****** ****** ****** ****** ******
      ****** ****** ****** ****** ****** ****** ****** ****** ****** ******
      ****** ****** ****** ****** ****** ****** ****** ****** ****** ******
   9  ****** ****** ****** ****** ****** ****** ****** ****** ****** ******
      ****** ****** ****** ****** ****** ****** ****** ****** ****** ******
      ****** ****** ****** ****** ****** ****** ****** ****** ****** ******
  10  ****** ****** ****** ****** ****** ****** ****** ****** ****** ******
      ****** ****** ****** ****** ****** ****** ****** ****** ****** ******
      ****** ****** ****** ****** ****** ****** ****** ****** ****** ******
  11  ****** ****** ****** ****** ****** ****** ****** ****** ****** ******
      ****** ****** ****** ****** ****** ****** ****** ****** ****** ******
      ****** ****** ****** ****** ****** ****** ****** ****** ****** ******
  12  ****** ****** ****** ****** ****** ****** ****** ****** ****** ******
      ****** ****** ****** ****** ****** ****** ****** ****** ****** ******
      ****** ****** ****** ****** ****** ****** ****** ****** ****** ******
  13  ****** ****** ****** ****** ****** ****** ****** ****** ****** ******
      ****** ****** ****** ****** ****** ****** ****** ****** ****** ******
      ****** ****** ****** ****** ****** ****** ****** ****** ****** ******
  14  ****** ****** ****** ****** ****** ****** ****** ****** ****** ******
      ****** ****** ****** ****** ****** ****** ****** ****** ****** ******
      ****** ****** ****** ****** ****** ****** ****** ****** ****** ******
  15  ****** ****** ****** ****** ****** ****** ****** ****** ****** ******
      ****** ****** ****** ****** ****** ****** ****** ****** ****** ******
      ****** ****** ****** ****** ****** ****** ****** ****** ****** ******
  16  ****** ****** ****** ****** ****** ****** ****** ****** ****** ******
      ****** ****** ****** ****** ****** ****** ****** ****** ****** ******
      ****** ****** ****** ****** ****** ****** ****** ****** ****** ******
  17  ****** ****** ****** ****** ****** ****** ****** ****** ****** ******
      ****** ****** ****** ****** ****** ****** ****** ****** ****** ******
      ****** ****** ****** ****** ****** ****** ****** ****** ****** ******
  18  ****** ****** ****** ****** ****** ****** ****** ****** ****** ******
      ****** ****** ****** ****** ****** ****** ****** ****** ****** ******
      ****** ****** ****** ****** ****** ****** ****** ****** ****** ******
  19  ****** ****** ****** ****** ****** ****** ****** ****** ****** ******
      ****** ****** ****** ****** ****** ****** ****** ****** ****** ******
      ****** ****** ****** ****** ****** ****** ****** ****** ****** ******
  20  ****** ****** ****** ****** ****** ****** ****** ****** ****** ******
      ****** ****** ****** ****** ****** ****** ****** ****** ****** ******
      ****** ****** ****** ****** ****** ****** ****** ****** ****** ******
  21  ****** ****** ****** ****** ****** ****** ****** ****** ****** ******
      ****** ****** ****** ****** ****** ****** ****** ****** ****** ******
      ****** ****** ****** ****** ****** ****** ****** ****** ****** ******
  22  ****** ****** ****** ****** ****** ****** ****** ****** ****** ******
      ****** ****** ****** ****** ****** ****** ****** ****** ****** ******
      ****** ****** ****** ****** ****** ****** ****** ****** ****** ******
  23  ****** ****** ****** ****** ****** ****** ****** ****** ****** ******
      ****** ****** ****** ****** ****** ****** ****** ****** ****** ******
      ****** ****** ****** ****** ****** ****** ****** ****** ****** ******
  24  ****** ****** ****** ****** ****** ****** ****** ****** ****** ******
      ****** ****** ****** ****** ****** ****** ****** ****** ****** ******
      ****** ****** ****** ****** ****** ****** ****** ****** ****** ******
  25  ****** ****** ****** ****** ****** ****** ****** ****** ****** ******
      ****** ****** ****** ****** ****** ****** ****** ****** ****** ******
      ****** ****** ****** ****** ****** ****** ****** ****** ****** ******

 HEAD WILL BE SAVED ON UNIT   51 AT END OF TIME STEP    1, STRESS PERIOD    8
1
  VOLUMETRIC BUDGET FOR ENTIRE MODEL AT END OF TIME STEP    1, STRESS PERIOD   8
  ------------------------------------------------------------------------------

     CUMULATIVE VOLUMES      L**3       RATES FOR THIS TIME STEP      L**3/T
     ------------------                 ------------------------

           IN:                                      IN:
           ---                                      ---
             STORAGE =    33703017.9915               STORAGE =        1451.0820
       CONSTANT HEAD =    19792107.0893         CONSTANT HEAD =       33966.5992
               WELLS =           0.0000                 WELLS =           0.0000
            RECHARGE =    17608800.0000              RECHARGE =       27600.0000
      STREAM LEAKAGE =     5038012.7217        STREAM LEAKAGE =        8203.8110

            TOTAL IN =    76141937.8025              TOTAL IN =       71221.4922

          OUT:                                     OUT:
          ----                                     ----
             STORAGE =      928172.4657               STORAGE =        1518.8510
       CONSTANT HEAD =           0.0000         CONSTANT HEAD =           0.0000
               WELLS =    22213276.2243                 WELLS =       30429.1455
            RECHARGE =           0.0000              RECHARGE =           0.0000
      STREAM LEAKAGE =    53000490.9288        STREAM LEAKAGE =       39273.4873

           TOTAL OUT =    76141939.6189             TOTAL OUT =       71221.4838

            IN - OUT =          -1.8163              IN - OUT =       8.4086E-03

 PERCENT DISCREPANCY =          -0.00     PERCENT DISCREPANCY =           0.00






         TIME SUMMARY AT END OF TIME STEP    1 IN STRESS PERIOD    8
                    SECONDS     MINUTES      HOURS       DAYS        YEARS
                    -----------------------------------------------------------
   TIME STEP LENGTH 7.86240E+06 1.31040E+05  2184.0      91.000     0.24914    
 STRESS PERIOD TIME 7.86240E+06 1.31040E+05  2184.0      91.000     0.24914    
         TOTAL TIME 6.30720E+07 1.05120E+06  17520.      730.00      1.9986    
1
1
                            STRESS PERIOD NO.    9, LENGTH =   92.00000    
                            -----------------------------------------------

                              NUMBER OF TIME STEPS =     1

                               MULTIPLIER FOR DELT =     1.500

                            INITIAL TIME STEP SIZE =   92.00000    

 WELL NO.  LAYER   ROW   COL   STRESS RATE         
 --------------------------------------------------
      1      1     14      6       0.000    
      2      1      3      9       0.000    
      3      1     20     10       0.000    
      4      1     14     20       0.000    
      5      1     16     16      -9666.    
      6      1      6     22      -5938.    
      7      1     19     13      -8939.    
      8      1      6     21      -5885.    

      8 WELLS

                 RECHARGE =  5.000000E-04

 REUSING STREAM SEGMENT DATA FROM LAST STRESS PERIOD
 
 SOLVING FOR HEAD 


     6 CALLS TO PCG ROUTINE FOR TIME STEP   1 IN STRESS PERIOD    9
    23 TOTAL ITERATIONS

 OUTPUT CONTROL FOR STRESS PERIOD    9   TIME STEP    1
    SAVE BUDGET
    SAVE HEAD FOR ALL LAYERS
    PRINT HEAD FOR ALL LAYERS
 UBDSV2 SAVING "STREAMFLOW OUT  " ON UNIT  50 AT TIME STEP  1, STRESS PERIOD   9



 STREAM LISTING     PERIOD      9   STEP        1

 LAYER ROW COL. STREAM  RCH.  FLOW INTO     FLOW TO   FLOW OUT OF   OVRLND.     DIRECT     STREAM       STREAM     STREAM     STREAM   STREAMBED  STREAMBED
                SEG.NO.  NO.  STRM. RCH.    AQUIFER    STRM. RCH.    RUNOFF     PRECIP       ET          HEAD       DEPTH      WIDTH   CONDCTNC.   GRADIENT

   1   13    1     1     1    1.0000E+05 -1.5699E+03   1.0157E+05  0.000E+00  0.000E+00  0.000E+00  4.84067E+01  1.453E-01  2.000E+01  2.000E+04 -7.849E-02
   1   13    2     1     2    1.0157E+05 -2.5129E+03   1.0408E+05  0.000E+00  0.000E+00  0.000E+00  4.79312E+01  1.471E-01  2.000E+01  2.000E+04 -1.256E-01
   1   14    3     1     3    1.0408E+05 -3.8420E+02   1.0447E+05  0.000E+00  0.000E+00  0.000E+00  4.74551E+01  1.483E-01  2.000E+01  2.000E+04 -1.921E-02
   1   15    4     1     4    1.0447E+05 -3.4151E+02   1.0481E+05  0.000E+00  0.000E+00  0.000E+00  4.69782E+01  1.486E-01  2.000E+01  2.000E+04 -1.708E-02
   1   16    5     1     5    1.0481E+05 -1.1343E+03   1.0594E+05  0.000E+00  0.000E+00  0.000E+00  4.65015E+01  1.493E-01  2.000E+01  2.000E+04 -5.671E-02
   1   16    6     1     6    1.0594E+05 -6.9769E+02   1.0664E+05  0.000E+00  0.000E+00  0.000E+00  4.60250E+01  1.500E-01  2.000E+01  2.000E+04 -3.488E-02
   1   16    7     1     7    1.0664E+05 -6.3266E+02   1.0727E+05  0.000E+00  0.000E+00  0.000E+00  4.55483E+01  1.506E-01  2.000E+01  2.000E+04 -3.163E-02
   1   16    8     1     8    1.0727E+05 -5.4461E+02   1.0782E+05  0.000E+00  0.000E+00  0.000E+00  4.50716E+01  1.511E-01  2.000E+01  2.000E+04 -2.723E-02
   1   16    9     1     9    1.0782E+05 -4.0905E+02   1.0823E+05  0.000E+00  0.000E+00  0.000E+00  4.45947E+01  1.515E-01  2.000E+01  2.000E+04 -2.045E-02
   1   16   10     1    10    1.0823E+05 -2.0364E+02   1.0843E+05  0.000E+00  0.000E+00  0.000E+00  4.41177E+01  1.518E-01  2.000E+01  2.000E+04 -1.018E-02
   1   16   11     1    11    1.0843E+05  1.1258E+02   1.0832E+05  0.000E+00  0.000E+00  0.000E+00  4.36404E+01  1.518E-01  2.000E+01  2.000E+04  5.629E-03
   1   16   12     1    12    1.0832E+05  8.9538E+02   1.0742E+05  0.000E+00  0.000E+00  0.000E+00  4.31627E+01  1.514E-01  2.000E+01  2.000E+04  4.477E-02
   1   15   13     1    13    1.0742E+05  6.4181E+02   1.0678E+05  0.000E+00  0.000E+00  0.000E+00  4.26848E+01  1.507E-01  2.000E+01  2.000E+04  3.209E-02
   1   14   14     1    14    1.0678E+05  2.1556E+02   1.0657E+05  0.000E+00  0.000E+00  0.000E+00  4.22072E+01  1.504E-01  2.000E+01  2.000E+04  1.078E-02
   1   13   15     1    15    1.0657E+05 -4.9404E+02   1.0706E+05  0.000E+00  0.000E+00  0.000E+00  4.17300E+01  1.505E-01  2.000E+01  2.000E+04 -2.470E-02
   1   12   16     1    16    1.0706E+05 -1.6557E+03   1.0871E+05  0.000E+00  0.000E+00  0.000E+00  4.12537E+01  1.514E-01  2.000E+01  2.000E+04 -8.278E-02
   1   12   17     1    17    1.0871E+05 -7.4722E+02   1.0946E+05  0.000E+00  0.000E+00  0.000E+00  4.07774E+01  1.524E-01  2.000E+01  2.000E+04 -3.736E-02
   1   12   18     1    18    1.0946E+05 -6.7891E+02   1.1014E+05  0.000E+00  0.000E+00  0.000E+00  4.03007E+01  1.530E-01  2.000E+01  2.000E+04 -3.395E-02
   1   12   19     1    19    1.1014E+05 -9.9342E+02   1.1113E+05  0.000E+00  0.000E+00  0.000E+00  3.98242E+01  1.537E-01  2.000E+01  2.000E+04 -4.967E-02
   1   13   20     1    20    1.1113E+05 -4.6181E+02   1.1160E+05  0.000E+00  0.000E+00  0.000E+00  3.93475E+01  1.543E-01  2.000E+01  2.000E+04 -2.309E-02
   1   14   21     1    21    1.1160E+05 -3.5517E+02   1.1195E+05  0.000E+00  0.000E+00  0.000E+00  3.88706E+01  1.546E-01  2.000E+01  2.000E+04 -1.776E-02
   1   14   22     1    22    1.1195E+05  5.0431E+03   1.0691E+05  0.000E+00  0.000E+00  0.000E+00  3.83913E+01  1.527E-01  2.000E+01  2.000E+04  2.522E-01
   1    9   30     2     1    5.0000E+04 -2.1959E+02   5.0220E+04  0.000E+00  0.000E+00  0.000E+00  4.02410E+01  1.160E-01  2.000E+01  2.000E+04 -1.098E-02
   1    9   29     2     2    5.0220E+04 -4.7741E+02   5.0697E+04  0.000E+00  0.000E+00  0.000E+00  3.99915E+01  1.165E-01  2.000E+01  2.000E+04 -2.387E-02
   1    9   28     2     3    5.0697E+04 -6.2406E+02   5.1321E+04  0.000E+00  0.000E+00  0.000E+00  3.97423E+01  1.173E-01  2.000E+01  2.000E+04 -3.120E-02
   1    9   27     2     4    5.1321E+04 -1.1980E+03   5.2519E+04  0.000E+00  0.000E+00  0.000E+00  3.94935E+01  1.185E-01  2.000E+01  2.000E+04 -5.990E-02
   1   10   26     2     5    5.2519E+04 -5.7212E+02   5.3091E+04  0.000E+00  0.000E+00  0.000E+00  3.92447E+01  1.197E-01  2.000E+01  2.000E+04 -2.861E-02
   1   11   25     2     6    5.3091E+04 -4.8354E+02   5.3575E+04  0.000E+00  0.000E+00  0.000E+00  3.89954E+01  1.204E-01  2.000E+01  2.000E+04 -2.418E-02
   1   12   24     2     7    5.3575E+04 -6.5329E+02   5.4228E+04  0.000E+00  0.000E+00  0.000E+00  3.87462E+01  1.212E-01  2.000E+01  2.000E+04 -3.266E-02
   1   13   23     2     8    5.4228E+04 -1.1275E+02   5.4341E+04  0.000E+00  0.000E+00  0.000E+00  3.84967E+01  1.217E-01  2.000E+01  2.000E+04 -5.638E-03
   1   14   22     2     9    5.4341E+04  2.1239E+03   5.2217E+04  0.000E+00  0.000E+00  0.000E+00  3.82454E+01  1.204E-01  2.000E+01  2.000E+04  1.062E-01
   1   14   22     3     1    1.5913E+05 -8.4498E+03   1.6758E+05  0.000E+00  0.000E+00  0.000E+00  3.77167E+01  1.611E-01  2.000E+01  2.000E+04 -4.225E-01
   1   15   23     3     2    1.6758E+05 -3.5207E+02   1.6793E+05  0.000E+00  0.000E+00  0.000E+00  3.68304E+01  1.637E-01  2.000E+01  2.000E+04 -1.760E-02
   1   15   24     3     3    1.6793E+05 -2.0629E+02   1.6813E+05  0.000E+00  0.000E+00  0.000E+00  3.59417E+01  1.639E-01  2.000E+01  2.000E+04 -1.031E-02
   1   15   25     3     4    1.6813E+05 -2.1194E+02   1.6835E+05  0.000E+00  0.000E+00  0.000E+00  3.50529E+01  1.640E-01  2.000E+01  2.000E+04 -1.060E-02
   1   15   26     3     5    1.6835E+05 -2.7483E+02   1.6862E+05  0.000E+00  0.000E+00  0.000E+00  3.41641E+01  1.641E-01  2.000E+01  2.000E+04 -1.374E-02
   1   16   27     3     6    1.6862E+05 -2.8965E+02   1.6891E+05  0.000E+00  0.000E+00  0.000E+00  3.32754E+01  1.643E-01  2.000E+01  2.000E+04 -1.448E-02
   1   17   28     3     7    1.6891E+05 -1.3206E+03   1.7023E+05  0.000E+00  0.000E+00  0.000E+00  3.23870E+01  1.648E-01  2.000E+01  2.000E+04 -6.603E-02
   1   18   29     3     8    1.7023E+05 -2.5390E+03   1.7277E+05  0.000E+00  0.000E+00  0.000E+00  3.14992E+01  1.659E-01  2.000E+01  2.000E+04 -1.270E-01
   1   18   30     3     9    1.7277E+05 -2.9365E+03   1.7571E+05  0.000E+00  0.000E+00  0.000E+00  3.06119E+01  1.675E-01  2.000E+01  2.000E+04 -1.468E-01



1
              HEAD IN LAYER   1 AT END OF TIME STEP   1 IN STRESS PERIOD    9
  ---------------------------------------------------------------------------

          1      2      3      4      5      6      7      8      9     10
         11     12     13     14     15     16     17     18     19     20
         21     22     23     24     25     26     27     28     29     30
 .........................................................................
   1  ****** ****** ****** ****** ****** ****** ****** ****** ****** ******
      ****** ****** ****** ****** ****** ****** ****** ****** ****** ******
      ****** ****** ****** ****** ****** ****** ****** ****** ****** ******
   2  ****** ****** ****** ****** ****** ****** ****** ****** ****** ******
      ****** ****** ****** ****** ****** ****** ****** ****** ****** ******
      ****** ****** ****** ****** ****** ****** ****** ****** ****** ******
   3  ****** ****** ****** ****** ****** ****** ****** ****** ****** ******
      ****** ****** ****** ****** ****** ****** ****** ****** ****** ******
      ****** ****** ****** ****** ****** ****** ****** ****** ****** ******
   4  ****** ****** ****** ****** ****** ****** ****** ****** ****** ******
      ****** ****** ****** ****** ****** ****** ****** ****** ****** ******
      ****** ****** ****** ****** ****** ****** ****** ****** ****** ******
   5  ****** ****** ****** ****** ****** ****** ****** ****** ****** ******
      ****** ****** ****** ****** ****** ****** ****** ****** ****** ******
      ****** ****** ****** ****** ****** ****** ****** ****** ****** ******
   6  ****** ****** ****** ****** ****** ****** ****** ****** ****** ******
      ****** ****** ****** ****** ****** ****** ****** ****** ****** ******
      ****** ****** ****** ****** ****** ****** ****** ****** ****** ******
   7  ****** ****** ****** ****** ****** ****** ****** ****** ****** ******
      ****** ****** ****** ****** ****** ****** ****** ****** ****** ******
      ****** ****** ****** ****** ****** ****** ****** ****** ****** ******
   8  ****** ****** ****** ****** ****** ****** ****** ****** ****** ******
      ****** ****** ****** ****** ****** ****** ****** ****** ****** ******
      ****** ****** ****** ****** ****** ****** ****** ****** ****** ******
   9  ****** ****** ****** ****** ****** ****** ****** ****** ****** ******
      ****** ****** ****** ****** ****** ****** ****** ****** ****** ******
      ****** ****** ****** ****** ****** ****** ****** ****** ****** ******
  10  ****** ****** ****** ****** ****** ****** ****** ****** ****** ******
      ****** ****** ****** ****** ****** ****** ****** ****** ****** ******
      ****** ****** ****** ****** ****** ****** ****** ****** ****** ******
  11  ****** ****** ****** ****** ****** ****** ****** ****** ****** ******
      ****** ****** ****** ****** ****** ****** ****** ****** ****** ******
      ****** ****** ****** ****** ****** ****** ****** ****** ****** ******
  12  ****** ****** ****** ****** ****** ****** ****** ****** ****** ******
      ****** ****** ****** ****** ****** ****** ****** ****** ****** ******
      ****** ****** ****** ****** ****** ****** ****** ****** ****** ******
  13  ****** ****** ****** ****** ****** ****** ****** ****** ****** ******
      ****** ****** ****** ****** ****** ****** ****** ****** ****** ******
      ****** ****** ****** ****** ****** ****** ****** ****** ****** ******
  14  ****** ****** ****** ****** ****** ****** ****** ****** ****** ******
      ****** ****** ****** ****** ****** ****** ****** ****** ****** ******
      ****** ****** ****** ****** ****** ****** ****** ****** ****** ******
  15  ****** ****** ****** ****** ****** ****** ****** ****** ****** ******
      ****** ****** ****** ****** ****** ****** ****** ****** ****** ******
      ****** ****** ****** ****** ****** ****** ****** ****** ****** ******
  16  ****** ****** ****** ****** ****** ****** ****** ****** ****** ******
      ****** ****** ****** ****** ****** ****** ****** ****** ****** ******
      ****** ****** ****** ****** ****** ****** ****** ****** ****** ******
  17  ****** ****** ****** ****** ****** ****** ****** ****** ****** ******
      ****** ****** ****** ****** ****** ****** ****** ****** ****** ******
      ****** ****** ****** ****** ****** ****** ****** ****** ****** ******
  18  ****** ****** ****** ****** ****** ****** ****** ****** ****** ******
      ****** ****** ****** ****** ****** ****** ****** ****** ****** ******
      ****** ****** ****** ****** ****** ****** ****** ****** ****** ******
  19  ****** ****** ****** ****** ****** ****** ****** ****** ****** ******
      ****** ****** ****** ****** ****** ****** ****** ****** ****** ******
      ****** ****** ****** ****** ****** ****** ****** ****** ****** ******
  20  ****** ****** ****** ****** ****** ****** ****** ****** ****** ******
      ****** ****** ****** ****** ****** ****** ****** ****** ****** ******
      ****** ****** ****** ****** ****** ****** ****** ****** ****** ******
  21  ****** ****** ****** ****** ****** ****** ****** ****** ****** ******
      ****** ****** ****** ****** ****** ****** ****** ****** ****** ******
      ****** ****** ****** ****** ****** ****** ****** ****** ****** ******
  22  ****** ****** ****** ****** ****** ****** ****** ****** ****** ******
      ****** ****** ****** ****** ****** ****** ****** ****** ****** ******
      ****** ****** ****** ****** ****** ****** ****** ****** ****** ******
  23  ****** ****** ****** ****** ****** ****** ****** ****** ****** ******
      ****** ****** ****** ****** ****** ****** ****** ****** ****** ******
      ****** ****** ****** ****** ****** ****** ****** ****** ****** ******
  24  ****** ****** ****** ****** ****** ****** ****** ****** ****** ******
      ****** ****** ****** ****** ****** ****** ****** ****** ****** ******
      ****** ****** ****** ****** ****** ****** ****** ****** ****** ******
  25  ****** ****** ****** ****** ****** ****** ****** ****** ****** ******
      ****** ****** ****** ****** ****** ****** ****** ****** ****** ******
      ****** ****** ****** ****** ****** ****** ****** ****** ****** ******

 HEAD WILL BE SAVED ON UNIT   51 AT END OF TIME STEP    1, STRESS PERIOD    9
1
  VOLUMETRIC BUDGET FOR ENTIRE MODEL AT END OF TIME STEP    1, STRESS PERIOD   9
  ------------------------------------------------------------------------------

     CUMULATIVE VOLUMES      L**3       RATES FOR THIS TIME STEP      L**3/T
     ------------------                 ------------------------

           IN:                                      IN:
           ---                                      ---
             STORAGE =    34365372.1514               STORAGE =        7199.5017
       CONSTANT HEAD =    23024580.0503         CONSTANT HEAD =       35135.5757
               WELLS =           0.0000                 WELLS =           0.0000
            RECHARGE =    18878400.0000              RECHARGE =       13800.0000
      STREAM LEAKAGE =     5868980.7633        STREAM LEAKAGE =        9032.2613

            TOTAL IN =    82137332.9649              TOTAL IN =       65167.3387

          OUT:                                     OUT:
          ----                                     ----
             STORAGE =      928172.4657               STORAGE =           0.0000
       CONSTANT HEAD =           0.0000         CONSTANT HEAD =           0.0000
               WELLS =    25012757.6115                 WELLS =       30429.1455
            RECHARGE =           0.0000              RECHARGE =           0.0000
      STREAM LEAKAGE =    56196404.7758        STREAM LEAKAGE =       34738.1940

           TOTAL OUT =    82137334.8530             TOTAL OUT =       65167.3395

            IN - OUT =          -1.8881              IN - OUT =      -7.7969E-04

 PERCENT DISCREPANCY =          -0.00     PERCENT DISCREPANCY =          -0.00






         TIME SUMMARY AT END OF TIME STEP    1 IN STRESS PERIOD    9
                    SECONDS     MINUTES      HOURS       DAYS        YEARS
                    -----------------------------------------------------------
   TIME STEP LENGTH 7.94880E+06 1.32480E+05  2208.0      92.000     0.25188    
 STRESS PERIOD TIME 7.94880E+06 1.32480E+05  2208.0      92.000     0.25188    
         TOTAL TIME 7.10208E+07 1.18368E+06  19728.      822.00      2.2505    
1
1
                            STRESS PERIOD NO.   10, LENGTH =   91.00000    
                            -----------------------------------------------

                              NUMBER OF TIME STEPS =     1

                               MULTIPLIER FOR DELT =     1.500

                            INITIAL TIME STEP SIZE =   91.00000    

 WELL NO.  LAYER   ROW   COL   STRESS RATE         
 --------------------------------------------------
      1      1     14      6       0.000    
      2      1      3      9       0.000    
      3      1     20     10       0.000    
      4      1     14     20       0.000    
      5      1     16     16      -9666.    
      6      1      6     22      -5938.    
      7      1     19     13      -8939.    
      8      1      6     21      -5885.    

      8 WELLS

                 RECHARGE =  2.000000E-03

 REUSING STREAM SEGMENT DATA FROM LAST STRESS PERIOD
 
 SOLVING FOR HEAD 


     7 CALLS TO PCG ROUTINE FOR TIME STEP   1 IN STRESS PERIOD   10
    26 TOTAL ITERATIONS

 OUTPUT CONTROL FOR STRESS PERIOD   10   TIME STEP    1
    SAVE BUDGET
    SAVE HEAD FOR ALL LAYERS
    PRINT HEAD FOR ALL LAYERS
 UBDSV2 SAVING "STREAMFLOW OUT  " ON UNIT  50 AT TIME STEP  1, STRESS PERIOD  10



 STREAM LISTING     PERIOD     10   STEP        1

 LAYER ROW COL. STREAM  RCH.  FLOW INTO     FLOW TO   FLOW OUT OF   OVRLND.     DIRECT     STREAM       STREAM     STREAM     STREAM   STREAMBED  STREAMBED
                SEG.NO.  NO.  STRM. RCH.    AQUIFER    STRM. RCH.    RUNOFF     PRECIP       ET          HEAD       DEPTH      WIDTH   CONDCTNC.   GRADIENT

   1   13    1     1     1    1.0000E+05 -2.0228E+03   1.0202E+05  0.000E+00  0.000E+00  0.000E+00  4.84069E+01  1.455E-01  2.000E+01  2.000E+04 -1.011E-01
   1   13    2     1     2    1.0202E+05 -3.0149E+03   1.0504E+05  0.000E+00  0.000E+00  0.000E+00  4.79318E+01  1.477E-01  2.000E+01  2.000E+04 -1.507E-01
   1   14    3     1     3    1.0504E+05 -5.7078E+02   1.0561E+05  0.000E+00  0.000E+00  0.000E+00  4.74560E+01  1.492E-01  2.000E+01  2.000E+04 -2.854E-02
   1   15    4     1     4    1.0561E+05 -5.4095E+02   1.0615E+05  0.000E+00  0.000E+00  0.000E+00  4.69792E+01  1.497E-01  2.000E+01  2.000E+04 -2.705E-02
   1   16    5     1     5    1.0615E+05 -1.7528E+03   1.0790E+05  0.000E+00  0.000E+00  0.000E+00  4.65029E+01  1.507E-01  2.000E+01  2.000E+04 -8.764E-02
   1   16    6     1     6    1.0790E+05 -1.0597E+03   1.0896E+05  0.000E+00  0.000E+00  0.000E+00  4.60269E+01  1.519E-01  2.000E+01  2.000E+04 -5.299E-02
   1   16    7     1     7    1.0896E+05 -9.7694E+02   1.0994E+05  0.000E+00  0.000E+00  0.000E+00  4.55504E+01  1.527E-01  2.000E+01  2.000E+04 -4.885E-02
   1   16    8     1     8    1.0994E+05 -8.8343E+02   1.1082E+05  0.000E+00  0.000E+00  0.000E+00  4.50739E+01  1.535E-01  2.000E+01  2.000E+04 -4.417E-02
   1   16    9     1     9    1.1082E+05 -7.4632E+02   1.1157E+05  0.000E+00  0.000E+00  0.000E+00  4.45973E+01  1.542E-01  2.000E+01  2.000E+04 -3.732E-02
   1   16   10     1    10    1.1157E+05 -5.4105E+02   1.1211E+05  0.000E+00  0.000E+00  0.000E+00  4.41206E+01  1.547E-01  2.000E+01  2.000E+04 -2.705E-02
   1   16   11     1    11    1.1211E+05 -2.2825E+02   1.1234E+05  0.000E+00  0.000E+00  0.000E+00  4.36437E+01  1.550E-01  2.000E+01  2.000E+04 -1.141E-02
   1   16   12     1    12    1.1234E+05  3.2647E+02   1.1201E+05  0.000E+00  0.000E+00  0.000E+00  4.31663E+01  1.550E-01  2.000E+01  2.000E+04  1.632E-02
   1   15   13     1    13    1.1201E+05  5.5633E+01   1.1196E+05  0.000E+00  0.000E+00  0.000E+00  4.26889E+01  1.548E-01  2.000E+01  2.000E+04  2.782E-03
   1   14   14     1    14    1.1196E+05 -3.7794E+02   1.1233E+05  0.000E+00  0.000E+00  0.000E+00  4.22118E+01  1.550E-01  2.000E+01  2.000E+04 -1.890E-02
   1   13   15     1    15    1.1233E+05 -1.0776E+03   1.1341E+05  0.000E+00  0.000E+00  0.000E+00  4.17351E+01  1.556E-01  2.000E+01  2.000E+04 -5.388E-02
   1   12   16     1    16    1.1341E+05 -2.2180E+03   1.1563E+05  0.000E+00  0.000E+00  0.000E+00  4.12592E+01  1.569E-01  2.000E+01  2.000E+04 -1.109E-01
   1   12   17     1    17    1.1563E+05 -1.1728E+03   1.1680E+05  0.000E+00  0.000E+00  0.000E+00  4.07833E+01  1.583E-01  2.000E+01  2.000E+04 -5.864E-02
   1   12   18     1    18    1.1680E+05 -1.1003E+03   1.1790E+05  0.000E+00  0.000E+00  0.000E+00  4.03070E+01  1.592E-01  2.000E+01  2.000E+04 -5.501E-02
   1   12   19     1    19    1.1790E+05 -1.5119E+03   1.1941E+05  0.000E+00  0.000E+00  0.000E+00  3.98307E+01  1.603E-01  2.000E+01  2.000E+04 -7.560E-02
   1   13   20     1    20    1.1941E+05 -9.8281E+02   1.2040E+05  0.000E+00  0.000E+00  0.000E+00  3.93545E+01  1.613E-01  2.000E+01  2.000E+04 -4.914E-02
   1   14   21     1    21    1.2040E+05 -8.7965E+02   1.2128E+05  0.000E+00  0.000E+00  0.000E+00  3.88780E+01  1.620E-01  2.000E+01  2.000E+04 -4.398E-02
   1   14   22     1    22    1.2128E+05  4.9178E+03   1.1636E+05  0.000E+00  0.000E+00  0.000E+00  3.83991E+01  1.604E-01  2.000E+01  2.000E+04  2.459E-01
   1    9   30     2     1    5.0000E+04 -6.3370E+02   5.0634E+04  0.000E+00  0.000E+00  0.000E+00  4.02413E+01  1.163E-01  2.000E+01  2.000E+04 -3.168E-02
   1    9   29     2     2    5.0634E+04 -8.8922E+02   5.1523E+04  0.000E+00  0.000E+00  0.000E+00  3.99924E+01  1.174E-01  2.000E+01  2.000E+04 -4.446E-02
   1    9   28     2     3    5.1523E+04 -1.0351E+03   5.2558E+04  0.000E+00  0.000E+00  0.000E+00  3.97437E+01  1.187E-01  2.000E+01  2.000E+04 -5.175E-02
   1    9   27     2     4    5.2558E+04 -1.7507E+03   5.4309E+04  0.000E+00  0.000E+00  0.000E+00  3.94956E+01  1.206E-01  2.000E+01  2.000E+04 -8.754E-02
   1   10   26     2     5    5.4309E+04 -1.1249E+03   5.5434E+04  0.000E+00  0.000E+00  0.000E+00  3.92475E+01  1.225E-01  2.000E+01  2.000E+04 -5.625E-02
   1   11   25     2     6    5.5434E+04 -1.0119E+03   5.6446E+04  0.000E+00  0.000E+00  0.000E+00  3.89989E+01  1.239E-01  2.000E+01  2.000E+04 -5.059E-02
   1   12   24     2     7    5.6446E+04 -1.1315E+03   5.7577E+04  0.000E+00  0.000E+00  0.000E+00  3.87504E+01  1.254E-01  2.000E+01  2.000E+04 -5.657E-02
   1   13   23     2     8    5.7577E+04 -2.6146E+02   5.7839E+04  0.000E+00  0.000E+00  0.000E+00  3.85013E+01  1.263E-01  2.000E+01  2.000E+04 -1.307E-02
   1   14   22     2     9    5.7839E+04  1.9401E+03   5.5898E+04  0.000E+00  0.000E+00  0.000E+00  3.82502E+01  1.252E-01  2.000E+01  2.000E+04  9.700E-02
   1   14   22     3     1    1.7226E+05 -8.5758E+03   1.8083E+05  0.000E+00  0.000E+00  0.000E+00  3.77244E+01  1.688E-01  2.000E+01  2.000E+04 -4.288E-01
   1   15   23     3     2    1.8083E+05 -5.1450E+02   1.8135E+05  0.000E+00  0.000E+00  0.000E+00  3.68381E+01  1.714E-01  2.000E+01  2.000E+04 -2.572E-02
   1   15   24     3     3    1.8135E+05 -3.4340E+02   1.8169E+05  0.000E+00  0.000E+00  0.000E+00  3.59494E+01  1.717E-01  2.000E+01  2.000E+04 -1.717E-02
   1   15   25     3     4    1.8169E+05 -3.5248E+02   1.8204E+05  0.000E+00  0.000E+00  0.000E+00  3.50607E+01  1.719E-01  2.000E+01  2.000E+04 -1.762E-02
   1   15   26     3     5    1.8204E+05 -4.3704E+02   1.8248E+05  0.000E+00  0.000E+00  0.000E+00  3.41721E+01  1.721E-01  2.000E+01  2.000E+04 -2.185E-02
   1   16   27     3     6    1.8248E+05 -4.7546E+02   1.8296E+05  0.000E+00  0.000E+00  0.000E+00  3.32834E+01  1.723E-01  2.000E+01  2.000E+04 -2.377E-02
   1   17   28     3     7    1.8296E+05 -1.8410E+03   1.8480E+05  0.000E+00  0.000E+00  0.000E+00  3.23952E+01  1.730E-01  2.000E+01  2.000E+04 -9.205E-02
   1   18   29     3     8    1.8480E+05 -3.0900E+03   1.8789E+05  0.000E+00  0.000E+00  0.000E+00  3.15077E+01  1.744E-01  2.000E+01  2.000E+04 -1.545E-01
   1   18   30     3     9    1.8789E+05 -3.3617E+03   1.9125E+05  0.000E+00  0.000E+00  0.000E+00  3.06206E+01  1.762E-01  2.000E+01  2.000E+04 -1.681E-01



1
              HEAD IN LAYER   1 AT END OF TIME STEP   1 IN STRESS PERIOD   10
  ---------------------------------------------------------------------------

          1      2      3      4      5      6      7      8      9     10
         11     12     13     14     15     16     17     18     19     20
         21     22     23     24     25     26     27     28     29     30
 .........................................................................
   1  ****** ****** ****** ****** ****** ****** ****** ****** ****** ******
      ****** ****** ****** ****** ****** ****** ****** ****** ****** ******
      ****** ****** ****** ****** ****** ****** ****** ****** ****** ******
   2  ****** ****** ****** ****** ****** ****** ****** ****** ****** ******
      ****** ****** ****** ****** ****** ****** ****** ****** ****** ******
      ****** ****** ****** ****** ****** ****** ****** ****** ****** ******
   3  ****** ****** ****** ****** ****** ****** ****** ****** ****** ******
      ****** ****** ****** ****** ****** ****** ****** ****** ****** ******
      ****** ****** ****** ****** ****** ****** ****** ****** ****** ******
   4  ****** ****** ****** ****** ****** ****** ****** ****** ****** ******
      ****** ****** ****** ****** ****** ****** ****** ****** ****** ******
      ****** ****** ****** ****** ****** ****** ****** ****** ****** ******
   5  ****** ****** ****** ****** ****** ****** ****** ****** ****** ******
      ****** ****** ****** ****** ****** ****** ****** ****** ****** ******
      ****** ****** ****** ****** ****** ****** ****** ****** ****** ******
   6  ****** ****** ****** ****** ****** ****** ****** ****** ****** ******
      ****** ****** ****** ****** ****** ****** ****** ****** ****** ******
      ****** ****** ****** ****** ****** ****** ****** ****** ****** ******
   7  ****** ****** ****** ****** ****** ****** ****** ****** ****** ******
      ****** ****** ****** ****** ****** ****** ****** ****** ****** ******
      ****** ****** ****** ****** ****** ****** ****** ****** ****** ******
   8  ****** ****** ****** ****** ****** ****** ****** ****** ****** ******
      ****** ****** ****** ****** ****** ****** ****** ****** ****** ******
      ****** ****** ****** ****** ****** ****** ****** ****** ****** ******
   9  ****** ****** ****** ****** ****** ****** ****** ****** ****** ******
      ****** ****** ****** ****** ****** ****** ****** ****** ****** ******
      ****** ****** ****** ****** ****** ****** ****** ****** ****** ******
  10  ****** ****** ****** ****** ****** ****** ****** ****** ****** ******
      ****** ****** ****** ****** ****** ****** ****** ****** ****** ******
      ****** ****** ****** ****** ****** ****** ****** ****** ****** ******
  11  ****** ****** ****** ****** ****** ****** ****** ****** ****** ******
      ****** ****** ****** ****** ****** ****** ****** ****** ****** ******
      ****** ****** ****** ****** ****** ****** ****** ****** ****** ******
  12  ****** ****** ****** ****** ****** ****** ****** ****** ****** ******
      ****** ****** ****** ****** ****** ****** ****** ****** ****** ******
      ****** ****** ****** ****** ****** ****** ****** ****** ****** ******
  13  ****** ****** ****** ****** ****** ****** ****** ****** ****** ******
      ****** ****** ****** ****** ****** ****** ****** ****** ****** ******
      ****** ****** ****** ****** ****** ****** ****** ****** ****** ******
  14  ****** ****** ****** ****** ****** ****** ****** ****** ****** ******
      ****** ****** ****** ****** ****** ****** ****** ****** ****** ******
      ****** ****** ****** ****** ****** ****** ****** ****** ****** ******
  15  ****** ****** ****** ****** ****** ****** ****** ****** ****** ******
      ****** ****** ****** ****** ****** ****** ****** ****** ****** ******
      ****** ****** ****** ****** ****** ****** ****** ****** ****** ******
  16  ****** ****** ****** ****** ****** ****** ****** ****** ****** ******
      ****** ****** ****** ****** ****** ****** ****** ****** ****** ******
      ****** ****** ****** ****** ****** ****** ****** ****** ****** ******
  17  ****** ****** ****** ****** ****** ****** ****** ****** ****** ******
      ****** ****** ****** ****** ****** ****** ****** ****** ****** ******
      ****** ****** ****** ****** ****** ****** ****** ****** ****** ******
  18  ****** ****** ****** ****** ****** ****** ****** ****** ****** ******
      ****** ****** ****** ****** ****** ****** ****** ****** ****** ******
      ****** ****** ****** ****** ****** ****** ****** ****** ****** ******
  19  ****** ****** ****** ****** ****** ****** ****** ****** ****** ******
      ****** ****** ****** ****** ****** ****** ****** ****** ****** ******
      ****** ****** ****** ****** ****** ****** ****** ****** ****** ******
  20  ****** ****** ****** ****** ****** ****** ****** ****** ****** ******
      ****** ****** ****** ****** ****** ****** ****** ****** ****** ******
      ****** ****** ****** ****** ****** ****** ****** ****** ****** ******
  21  ****** ****** ****** ****** ****** ****** ****** ****** ****** ******
      ****** ****** ****** ****** ****** ****** ****** ****** ****** ******
      ****** ****** ****** ****** ****** ****** ****** ****** ****** ******
  22  ****** ****** ****** ****** ****** ****** ****** ****** ****** ******
      ****** ****** ****** ****** ****** ****** ****** ****** ****** ******
      ****** ****** ****** ****** ****** ****** ****** ****** ****** ******
  23  ****** ****** ****** ****** ****** ****** ****** ****** ****** ******
      ****** ****** ****** ****** ****** ****** ****** ****** ****** ******
      ****** ****** ****** ****** ****** ****** ****** ****** ****** ******
  24  ****** ****** ****** ****** ****** ****** ****** ****** ****** ******
      ****** ****** ****** ****** ****** ****** ****** ****** ****** ******
      ****** ****** ****** ****** ****** ****** ****** ****** ****** ******
  25  ****** ****** ****** ****** ****** ****** ****** ****** ****** ******
      ****** ****** ****** ****** ****** ****** ****** ****** ****** ******
      ****** ****** ****** ****** ****** ****** ****** ****** ****** ******

 HEAD WILL BE SAVED ON UNIT   51 AT END OF TIME STEP    1, STRESS PERIOD   10
1
  VOLUMETRIC BUDGET FOR ENTIRE MODEL AT END OF TIME STEP    1, STRESS PERIOD  10
  ------------------------------------------------------------------------------

     CUMULATIVE VOLUMES      L**3       RATES FOR THIS TIME STEP      L**3/T
     ------------------                 ------------------------

           IN:                                      IN:
           ---                                      ---
             STORAGE =    34365372.1514               STORAGE =           0.0000
       CONSTANT HEAD =    25953188.7863         CONSTANT HEAD =       32182.5136
               WELLS =           0.0000                 WELLS =           0.0000
            RECHARGE =    23901600.0000              RECHARGE =       55200.0000
      STREAM LEAKAGE =     6527820.4920        STREAM LEAKAGE =        7239.9970

            TOTAL IN =    90747981.4297              TOTAL IN =       94622.5106

          OUT:                                     OUT:
          ----                                     ----
             STORAGE =     2357279.6867               STORAGE =       15704.4750
       CONSTANT HEAD =           0.0000         CONSTANT HEAD =           0.0000
               WELLS =    27781809.8532                 WELLS =       30429.1455
            RECHARGE =           0.0000              RECHARGE =           0.0000
      STREAM LEAKAGE =    60608893.4237        STREAM LEAKAGE =       48488.8862

           TOTAL OUT =    90747982.9635             TOTAL OUT =       94622.5067

            IN - OUT =          -1.5338              IN - OUT =       3.8927E-03

 PERCENT DISCREPANCY =          -0.00     PERCENT DISCREPANCY =           0.00






         TIME SUMMARY AT END OF TIME STEP    1 IN STRESS PERIOD   10
                    SECONDS     MINUTES      HOURS       DAYS        YEARS
                    -----------------------------------------------------------
   TIME STEP LENGTH 7.86240E+06 1.31040E+05  2184.0      91.000     0.24914    
 STRESS PERIOD TIME 7.86240E+06 1.31040E+05  2184.0      91.000     0.24914    
         TOTAL TIME 7.88832E+07 1.31472E+06  21912.      913.00      2.4997    
1
1
                            STRESS PERIOD NO.   11, LENGTH =   91.00000    
                            -----------------------------------------------

                              NUMBER OF TIME STEPS =     1

                               MULTIPLIER FOR DELT =     1.500

                            INITIAL TIME STEP SIZE =   91.00000    

 WELL NO.  LAYER   ROW   COL   STRESS RATE         
 --------------------------------------------------
      1      1     14      6       0.000    
      2      1      3      9       0.000    
      3      1     20     10       0.000    
      4      1     14     20       0.000    
      5      1     16     16      -9666.    
      6      1      6     22      -5938.    
      7      1     19     13      -8939.    
      8      1      6     21      -5885.    

      8 WELLS

                 RECHARGE =   0.00000    

 REUSING STREAM SEGMENT DATA FROM LAST STRESS PERIOD
 
 SOLVING FOR HEAD 


     7 CALLS TO PCG ROUTINE FOR TIME STEP   1 IN STRESS PERIOD   11
    26 TOTAL ITERATIONS

 OUTPUT CONTROL FOR STRESS PERIOD   11   TIME STEP    1
    SAVE BUDGET
    SAVE HEAD FOR ALL LAYERS
    PRINT HEAD FOR ALL LAYERS
 UBDSV2 SAVING "STREAMFLOW OUT  " ON UNIT  50 AT TIME STEP  1, STRESS PERIOD  11



 STREAM LISTING     PERIOD     11   STEP        1

 LAYER ROW COL. STREAM  RCH.  FLOW INTO     FLOW TO   FLOW OUT OF   OVRLND.     DIRECT     STREAM       STREAM     STREAM     STREAM   STREAMBED  STREAMBED
                SEG.NO.  NO.  STRM. RCH.    AQUIFER    STRM. RCH.    RUNOFF     PRECIP       ET          HEAD       DEPTH      WIDTH   CONDCTNC.   GRADIENT

   1   13    1     1     1    1.0000E+05 -1.4554E+03   1.0146E+05  0.000E+00  0.000E+00  0.000E+00  4.84066E+01  1.453E-01  2.000E+01  2.000E+04 -7.277E-02
   1   13    2     1     2    1.0146E+05 -2.3832E+03   1.0384E+05  0.000E+00  0.000E+00  0.000E+00  4.79310E+01  1.469E-01  2.000E+01  2.000E+04 -1.192E-01
   1   14    3     1     3    1.0384E+05 -3.3995E+02   1.0418E+05  0.000E+00  0.000E+00  0.000E+00  4.74549E+01  1.481E-01  2.000E+01  2.000E+04 -1.700E-02
   1   15    4     1     4    1.0418E+05 -2.9909E+02   1.0448E+05  0.000E+00  0.000E+00  0.000E+00  4.69779E+01  1.484E-01  2.000E+01  2.000E+04 -1.495E-02
   1   16    5     1     5    1.0448E+05 -1.0648E+03   1.0554E+05  0.000E+00  0.000E+00  0.000E+00  4.65012E+01  1.490E-01  2.000E+01  2.000E+04 -5.324E-02
   1   16    6     1     6    1.0554E+05 -6.4538E+02   1.0619E+05  0.000E+00  0.000E+00  0.000E+00  4.60247E+01  1.497E-01  2.000E+01  2.000E+04 -3.227E-02
   1   16    7     1     7    1.0619E+05 -5.8020E+02   1.0677E+05  0.000E+00  0.000E+00  0.000E+00  4.55479E+01  1.502E-01  2.000E+01  2.000E+04 -2.901E-02
   1   16    8     1     8    1.0677E+05 -4.9221E+02   1.0726E+05  0.000E+00  0.000E+00  0.000E+00  4.50711E+01  1.507E-01  2.000E+01  2.000E+04 -2.461E-02
   1   16    9     1     9    1.0726E+05 -3.5731E+02   1.0762E+05  0.000E+00  0.000E+00  0.000E+00  4.45942E+01  1.510E-01  2.000E+01  2.000E+04 -1.787E-02
   1   16   10     1    10    1.0762E+05 -1.5310E+02   1.0777E+05  0.000E+00  0.000E+00  0.000E+00  4.41171E+01  1.512E-01  2.000E+01  2.000E+04 -7.655E-03
   1   16   11     1    11    1.0777E+05  1.6155E+02   1.0761E+05  0.000E+00  0.000E+00  0.000E+00  4.36399E+01  1.512E-01  2.000E+01  2.000E+04  8.077E-03
   1   16   12     1    12    1.0761E+05  9.7234E+02   1.0664E+05  0.000E+00  0.000E+00  0.000E+00  4.31621E+01  1.507E-01  2.000E+01  2.000E+04  4.862E-02
   1   15   13     1    13    1.0664E+05  7.4420E+02   1.0589E+05  0.000E+00  0.000E+00  0.000E+00  4.26841E+01  1.500E-01  2.000E+01  2.000E+04  3.721E-02
   1   14   14     1    14    1.0589E+05  3.2826E+02   1.0556E+05  0.000E+00  0.000E+00  0.000E+00  4.22064E+01  1.496E-01  2.000E+01  2.000E+04  1.641E-02
   1   13   15     1    15    1.0556E+05 -3.7709E+02   1.0594E+05  0.000E+00  0.000E+00  0.000E+00  4.17291E+01  1.496E-01  2.000E+01  2.000E+04 -1.885E-02
   1   12   16     1    16    1.0594E+05 -1.5410E+03   1.0748E+05  0.000E+00  0.000E+00  0.000E+00  4.12527E+01  1.504E-01  2.000E+01  2.000E+04 -7.705E-02
   1   12   17     1    17    1.0748E+05 -6.6620E+02   1.0815E+05  0.000E+00  0.000E+00  0.000E+00  4.07763E+01  1.513E-01  2.000E+01  2.000E+04 -3.331E-02
   1   12   18     1    18    1.0815E+05 -6.0132E+02   1.0875E+05  0.000E+00  0.000E+00  0.000E+00  4.02996E+01  1.519E-01  2.000E+01  2.000E+04 -3.007E-02
   1   12   19     1    19    1.0875E+05 -8.9944E+02   1.0965E+05  0.000E+00  0.000E+00  0.000E+00  3.98229E+01  1.525E-01  2.000E+01  2.000E+04 -4.497E-02
   1   13   20     1    20    1.0965E+05 -3.7053E+02   1.1002E+05  0.000E+00  0.000E+00  0.000E+00  3.93462E+01  1.530E-01  2.000E+01  2.000E+04 -1.853E-02
   1   14   21     1    21    1.1002E+05 -2.8271E+02   1.1030E+05  0.000E+00  0.000E+00  0.000E+00  3.88692E+01  1.533E-01  2.000E+01  2.000E+04 -1.414E-02
   1   14   22     1    22    1.1030E+05  5.0625E+03   1.0524E+05  0.000E+00  0.000E+00  0.000E+00  3.83899E+01  1.513E-01  2.000E+01  2.000E+04  2.531E-01
   1    9   30     2     1    5.0000E+04 -1.4564E+02   5.0146E+04  0.000E+00  0.000E+00  0.000E+00  4.02410E+01  1.160E-01  2.000E+01  2.000E+04 -7.282E-03
   1    9   29     2     2    5.0146E+04 -4.0422E+02   5.0550E+04  0.000E+00  0.000E+00  0.000E+00  3.99913E+01  1.163E-01  2.000E+01  2.000E+04 -2.021E-02
   1    9   28     2     3    5.0550E+04 -5.5224E+02   5.1102E+04  0.000E+00  0.000E+00  0.000E+00  3.97420E+01  1.170E-01  2.000E+01  2.000E+04 -2.761E-02
   1    9   27     2     4    5.1102E+04 -1.1110E+03   5.2213E+04  0.000E+00  0.000E+00  0.000E+00  3.94932E+01  1.182E-01  2.000E+01  2.000E+04 -5.555E-02
   1   10   26     2     5    5.2213E+04 -4.7082E+02   5.2684E+04  0.000E+00  0.000E+00  0.000E+00  3.92442E+01  1.192E-01  2.000E+01  2.000E+04 -2.354E-02
   1   11   25     2     6    5.2684E+04 -3.8159E+02   5.3066E+04  0.000E+00  0.000E+00  0.000E+00  3.89948E+01  1.198E-01  2.000E+01  2.000E+04 -1.908E-02
   1   12   24     2     7    5.3066E+04 -5.5820E+02   5.3624E+04  0.000E+00  0.000E+00  0.000E+00  3.87455E+01  1.205E-01  2.000E+01  2.000E+04 -2.791E-02
   1   13   23     2     8    5.3624E+04 -7.5594E+01   5.3699E+04  0.000E+00  0.000E+00  0.000E+00  3.84959E+01  1.209E-01  2.000E+01  2.000E+04 -3.780E-03
   1   14   22     2     9    5.3699E+04  2.1534E+03   5.1546E+04  0.000E+00  0.000E+00  0.000E+00  3.82445E+01  1.195E-01  2.000E+01  2.000E+04  1.077E-01
   1   14   22     3     1    1.5679E+05 -8.4303E+03   1.6522E+05  0.000E+00  0.000E+00  0.000E+00  3.77153E+01  1.597E-01  2.000E+01  2.000E+04 -4.215E-01
   1   15   23     3     2    1.6522E+05 -3.2242E+02   1.6554E+05  0.000E+00  0.000E+00  0.000E+00  3.68290E+01  1.623E-01  2.000E+01  2.000E+04 -1.612E-02
   1   15   24     3     3    1.6554E+05 -1.7827E+02   1.6572E+05  0.000E+00  0.000E+00  0.000E+00  3.59403E+01  1.625E-01  2.000E+01  2.000E+04 -8.913E-03
   1   15   25     3     4    1.6572E+05 -1.8352E+02   1.6590E+05  0.000E+00  0.000E+00  0.000E+00  3.50515E+01  1.626E-01  2.000E+01  2.000E+04 -9.176E-03
   1   15   26     3     5    1.6590E+05 -2.4135E+02   1.6614E+05  0.000E+00  0.000E+00  0.000E+00  3.41627E+01  1.627E-01  2.000E+01  2.000E+04 -1.207E-02
   1   16   27     3     6    1.6614E+05 -2.5244E+02   1.6639E+05  0.000E+00  0.000E+00  0.000E+00  3.32740E+01  1.628E-01  2.000E+01  2.000E+04 -1.262E-02
   1   17   28     3     7    1.6639E+05 -1.2313E+03   1.6763E+05  0.000E+00  0.000E+00  0.000E+00  3.23855E+01  1.633E-01  2.000E+01  2.000E+04 -6.156E-02
   1   18   29     3     8    1.6763E+05 -2.4680E+03   1.7009E+05  0.000E+00  0.000E+00  0.000E+00  3.14977E+01  1.644E-01  2.000E+01  2.000E+04 -1.234E-01
   1   18   30     3     9    1.7009E+05 -2.8724E+03   1.7297E+05  0.000E+00  0.000E+00  0.000E+00  3.06104E+01  1.659E-01  2.000E+01  2.000E+04 -1.436E-01



1
              HEAD IN LAYER   1 AT END OF TIME STEP   1 IN STRESS PERIOD   11
  ---------------------------------------------------------------------------

          1      2      3      4      5      6      7      8      9     10
         11     12     13     14     15     16     17     18     19     20
         21     22     23     24     25     26     27     28     29     30
 .........................................................................
   1  ****** ****** ****** ****** ****** ****** ****** ****** ****** ******
      ****** ****** ****** ****** ****** ****** ****** ****** ****** ******
      ****** ****** ****** ****** ****** ****** ****** ****** ****** ******
   2  ****** ****** ****** ****** ****** ****** ****** ****** ****** ******
      ****** ****** ****** ****** ****** ****** ****** ****** ****** ******
      ****** ****** ****** ****** ****** ****** ****** ****** ****** ******
   3  ****** ****** ****** ****** ****** ****** ****** ****** ****** ******
      ****** ****** ****** ****** ****** ****** ****** ****** ****** ******
      ****** ****** ****** ****** ****** ****** ****** ****** ****** ******
   4  ****** ****** ****** ****** ****** ****** ****** ****** ****** ******
      ****** ****** ****** ****** ****** ****** ****** ****** ****** ******
      ****** ****** ****** ****** ****** ****** ****** ****** ****** ******
   5  ****** ****** ****** ****** ****** ****** ****** ****** ****** ******
      ****** ****** ****** ****** ****** ****** ****** ****** ****** ******
      ****** ****** ****** ****** ****** ****** ****** ****** ****** ******
   6  ****** ****** ****** ****** ****** ****** ****** ****** ****** ******
      ****** ****** ****** ****** ****** ****** ****** ****** ****** ******
      ****** ****** ****** ****** ****** ****** ****** ****** ****** ******
   7  ****** ****** ****** ****** ****** ****** ****** ****** ****** ******
      ****** ****** ****** ****** ****** ****** ****** ****** ****** ******
      ****** ****** ****** ****** ****** ****** ****** ****** ****** ******
   8  ****** ****** ****** ****** ****** ****** ****** ****** ****** ******
      ****** ****** ****** ****** ****** ****** ****** ****** ****** ******
      ****** ****** ****** ****** ****** ****** ****** ****** ****** ******
   9  ****** ****** ****** ****** ****** ****** ****** ****** ****** ******
      ****** ****** ****** ****** ****** ****** ****** ****** ****** ******
      ****** ****** ****** ****** ****** ****** ****** ****** ****** ******
  10  ****** ****** ****** ****** ****** ****** ****** ****** ****** ******
      ****** ****** ****** ****** ****** ****** ****** ****** ****** ******
      ****** ****** ****** ****** ****** ****** ****** ****** ****** ******
  11  ****** ****** ****** ****** ****** ****** ****** ****** ****** ******
      ****** ****** ****** ****** ****** ****** ****** ****** ****** ******
      ****** ****** ****** ****** ****** ****** ****** ****** ****** ******
  12  ****** ****** ****** ****** ****** ****** ****** ****** ****** ******
      ****** ****** ****** ****** ****** ****** ****** ****** ****** ******
      ****** ****** ****** ****** ****** ****** ****** ****** ****** ******
  13  ****** ****** ****** ****** ****** ****** ****** ****** ****** ******
      ****** ****** ****** ****** ****** ****** ****** ****** ****** ******
      ****** ****** ****** ****** ****** ****** ****** ****** ****** ******
  14  ****** ****** ****** ****** ****** ****** ****** ****** ****** ******
      ****** ****** ****** ****** ****** ****** ****** ****** ****** ******
      ****** ****** ****** ****** ****** ****** ****** ****** ****** ******
  15  ****** ****** ****** ****** ****** ****** ****** ****** ****** ******
      ****** ****** ****** ****** ****** ****** ****** ****** ****** ******
      ****** ****** ****** ****** ****** ****** ****** ****** ****** ******
  16  ****** ****** ****** ****** ****** ****** ****** ****** ****** ******
      ****** ****** ****** ****** ****** ****** ****** ****** ****** ******
      ****** ****** ****** ****** ****** ****** ****** ****** ****** ******
  17  ****** ****** ****** ****** ****** ****** ****** ****** ****** ******
      ****** ****** ****** ****** ****** ****** ****** ****** ****** ******
      ****** ****** ****** ****** ****** ****** ****** ****** ****** ******
  18  ****** ****** ****** ****** ****** ****** ****** ****** ****** ******
      ****** ****** ****** ****** ****** ****** ****** ****** ****** ******
      ****** ****** ****** ****** ****** ****** ****** ****** ****** ******
  19  ****** ****** ****** ****** ****** ****** ****** ****** ****** ******
      ****** ****** ****** ****** ****** ****** ****** ****** ****** ******
      ****** ****** ****** ****** ****** ****** ****** ****** ****** ******
  20  ****** ****** ****** ****** ****** ****** ****** ****** ****** ******
      ****** ****** ****** ****** ****** ****** ****** ****** ****** ******
      ****** ****** ****** ****** ****** ****** ****** ****** ****** ******
  21  ****** ****** ****** ****** ****** ****** ****** ****** ****** ******
      ****** ****** ****** ****** ****** ****** ****** ****** ****** ******
      ****** ****** ****** ****** ****** ****** ****** ****** ****** ******
  22  ****** ****** ****** ****** ****** ****** ****** ****** ****** ******
      ****** ****** ****** ****** ****** ****** ****** ****** ****** ******
      ****** ****** ****** ****** ****** ****** ****** ****** ****** ******
  23  ****** ****** ****** ****** ****** ****** ****** ****** ****** ******
      ****** ****** ****** ****** ****** ****** ****** ****** ****** ******
      ****** ****** ****** ****** ****** ****** ****** ****** ****** ******
  24  ****** ****** ****** ****** ****** ****** ****** ****** ****** ******
      ****** ****** ****** ****** ****** ****** ****** ****** ****** ******
      ****** ****** ****** ****** ****** ****** ****** ****** ****** ******
  25  ****** ****** ****** ****** ****** ****** ****** ****** ****** ******
      ****** ****** ****** ****** ****** ****** ****** ****** ****** ******
      ****** ****** ****** ****** ****** ****** ****** ****** ****** ******

 HEAD WILL BE SAVED ON UNIT   51 AT END OF TIME STEP    1, STRESS PERIOD   11
1
  VOLUMETRIC BUDGET FOR ENTIRE MODEL AT END OF TIME STEP    1, STRESS PERIOD  11
  ------------------------------------------------------------------------------

     CUMULATIVE VOLUMES      L**3       RATES FOR THIS TIME STEP      L**3/T
     ------------------                 ------------------------

           IN:                                      IN:
           ---                                      ---
             STORAGE =    35996775.3178               STORAGE =       17927.5073
       CONSTANT HEAD =    29180743.2221         CONSTANT HEAD =       35467.6312
               WELLS =           0.0000                 WELLS =           0.0000
            RECHARGE =    23901600.0000              RECHARGE =           0.0000
      STREAM LEAKAGE =     7385245.7206        STREAM LEAKAGE =        9422.2553

            TOTAL IN =    96464364.2605              TOTAL IN =       62817.3937

          OUT:                                     OUT:
          ----                                     ----
             STORAGE =     2357279.6867               STORAGE =           0.0000
       CONSTANT HEAD =           0.0000         CONSTANT HEAD =           0.0000
               WELLS =    30550862.0948                 WELLS =       30429.1455
            RECHARGE =           0.0000              RECHARGE =           0.0000
      STREAM LEAKAGE =    63556224.4684        STREAM LEAKAGE =       32388.2532

           TOTAL OUT =    96464366.2499             TOTAL OUT =       62817.3988

            IN - OUT =          -1.9894              IN - OUT =      -5.0062E-03

 PERCENT DISCREPANCY =          -0.00     PERCENT DISCREPANCY =          -0.00






         TIME SUMMARY AT END OF TIME STEP    1 IN STRESS PERIOD   11
                    SECONDS     MINUTES      HOURS       DAYS        YEARS
                    -----------------------------------------------------------
   TIME STEP LENGTH 7.86240E+06 1.31040E+05  2184.0      91.000     0.24914    
 STRESS PERIOD TIME 7.86240E+06 1.31040E+05  2184.0      91.000     0.24914    
         TOTAL TIME 8.67456E+07 1.44576E+06  24096.      1004.0      2.7488    
1
1
                            STRESS PERIOD NO.   12, LENGTH =   91.00000    
                            -----------------------------------------------

                              NUMBER OF TIME STEPS =     1

                               MULTIPLIER FOR DELT =     1.500

                            INITIAL TIME STEP SIZE =   91.00000    

 WELL NO.  LAYER   ROW   COL   STRESS RATE         
 --------------------------------------------------
      1      1     14      6       0.000    
      2      1      3      9       0.000    
      3      1     20     10       0.000    
      4      1     14     20       0.000    
      5      1     16     16      -9666.    
      6      1      6     22      -5938.    
      7      1     19     13      -8939.    
      8      1      6     21      -5885.    

      8 WELLS

                 RECHARGE =  1.000000E-03

 REUSING STREAM SEGMENT DATA FROM LAST STRESS PERIOD
 
 SOLVING FOR HEAD 


     7 CALLS TO PCG ROUTINE FOR TIME STEP   1 IN STRESS PERIOD   12
    24 TOTAL ITERATIONS

 OUTPUT CONTROL FOR STRESS PERIOD   12   TIME STEP    1
    SAVE BUDGET
    SAVE HEAD FOR ALL LAYERS
    PRINT HEAD FOR ALL LAYERS
 UBDSV2 SAVING "STREAMFLOW OUT  " ON UNIT  50 AT TIME STEP  1, STRESS PERIOD  12



 STREAM LISTING     PERIOD     12   STEP        1

 LAYER ROW COL. STREAM  RCH.  FLOW INTO     FLOW TO   FLOW OUT OF   OVRLND.     DIRECT     STREAM       STREAM     STREAM     STREAM   STREAMBED  STREAMBED
                SEG.NO.  NO.  STRM. RCH.    AQUIFER    STRM. RCH.    RUNOFF     PRECIP       ET          HEAD       DEPTH      WIDTH   CONDCTNC.   GRADIENT

   1   13    1     1     1    1.0000E+05 -1.5999E+03   1.0160E+05  0.000E+00  0.000E+00  0.000E+00  4.84067E+01  1.453E-01  2.000E+01  2.000E+04 -7.999E-02
   1   13    2     1     2    1.0160E+05 -2.5386E+03   1.0414E+05  0.000E+00  0.000E+00  0.000E+00  4.79312E+01  1.471E-01  2.000E+01  2.000E+04 -1.269E-01
   1   14    3     1     3    1.0414E+05 -4.1855E+02   1.0456E+05  0.000E+00  0.000E+00  0.000E+00  4.74552E+01  1.484E-01  2.000E+01  2.000E+04 -2.093E-02
   1   15    4     1     4    1.0456E+05 -3.8148E+02   1.0494E+05  0.000E+00  0.000E+00  0.000E+00  4.69783E+01  1.487E-01  2.000E+01  2.000E+04 -1.907E-02
   1   16    5     1     5    1.0494E+05 -1.2745E+03   1.0621E+05  0.000E+00  0.000E+00  0.000E+00  4.65017E+01  1.494E-01  2.000E+01  2.000E+04 -6.372E-02
   1   16    6     1     6    1.0621E+05 -7.7582E+02   1.0699E+05  0.000E+00  0.000E+00  0.000E+00  4.60253E+01  1.503E-01  2.000E+01  2.000E+04 -3.879E-02
   1   16    7     1     7    1.0699E+05 -7.0557E+02   1.0769E+05  0.000E+00  0.000E+00  0.000E+00  4.55487E+01  1.509E-01  2.000E+01  2.000E+04 -3.528E-02
   1   16    8     1     8    1.0769E+05 -6.1653E+02   1.0831E+05  0.000E+00  0.000E+00  0.000E+00  4.50719E+01  1.515E-01  2.000E+01  2.000E+04 -3.083E-02
   1   16    9     1     9    1.0831E+05 -4.8205E+02   1.0879E+05  0.000E+00  0.000E+00  0.000E+00  4.45951E+01  1.520E-01  2.000E+01  2.000E+04 -2.410E-02
   1   16   10     1    10    1.0879E+05 -2.7914E+02   1.0907E+05  0.000E+00  0.000E+00  0.000E+00  4.41182E+01  1.523E-01  2.000E+01  2.000E+04 -1.396E-02
   1   16   11     1    11    1.0907E+05  3.3312E+01   1.0904E+05  0.000E+00  0.000E+00  0.000E+00  4.36410E+01  1.524E-01  2.000E+01  2.000E+04  1.666E-03
   1   16   12     1    12    1.0904E+05  7.7076E+02   1.0827E+05  0.000E+00  0.000E+00  0.000E+00  4.31634E+01  1.520E-01  2.000E+01  2.000E+04  3.854E-02
   1   15   13     1    13    1.0827E+05  5.2725E+02   1.0774E+05  0.000E+00  0.000E+00  0.000E+00  4.26856E+01  1.515E-01  2.000E+01  2.000E+04  2.636E-02
   1   14   14     1    14    1.0774E+05  1.1066E+02   1.0763E+05  0.000E+00  0.000E+00  0.000E+00  4.22080E+01  1.512E-01  2.000E+01  2.000E+04  5.533E-03
   1   13   15     1    15    1.0763E+05 -5.8744E+02   1.0822E+05  0.000E+00  0.000E+00  0.000E+00  4.17310E+01  1.514E-01  2.000E+01  2.000E+04 -2.937E-02
   1   12   16     1    16    1.0822E+05 -1.7250E+03   1.0994E+05  0.000E+00  0.000E+00  0.000E+00  4.12547E+01  1.524E-01  2.000E+01  2.000E+04 -8.625E-02
   1   12   17     1    17    1.0994E+05 -8.1990E+02   1.1076E+05  0.000E+00  0.000E+00  0.000E+00  4.07785E+01  1.535E-01  2.000E+01  2.000E+04 -4.099E-02
   1   12   18     1    18    1.1076E+05 -7.5714E+02   1.1152E+05  0.000E+00  0.000E+00  0.000E+00  4.03018E+01  1.541E-01  2.000E+01  2.000E+04 -3.786E-02
   1   12   19     1    19    1.1152E+05 -1.0921E+03   1.1261E+05  0.000E+00  0.000E+00  0.000E+00  3.98253E+01  1.549E-01  2.000E+01  2.000E+04 -5.460E-02
   1   13   20     1    20    1.1261E+05 -5.8091E+02   1.1319E+05  0.000E+00  0.000E+00  0.000E+00  3.93488E+01  1.556E-01  2.000E+01  2.000E+04 -2.905E-02
   1   14   21     1    21    1.1319E+05 -4.7666E+02   1.1367E+05  0.000E+00  0.000E+00  0.000E+00  3.88719E+01  1.560E-01  2.000E+01  2.000E+04 -2.383E-02
   1   14   22     1    22    1.1367E+05  5.0101E+03   1.0866E+05  0.000E+00  0.000E+00  0.000E+00  3.83928E+01  1.541E-01  2.000E+01  2.000E+04  2.505E-01
   1    9   30     2     1    5.0000E+04 -3.2207E+02   5.0322E+04  0.000E+00  0.000E+00  0.000E+00  4.02411E+01  1.161E-01  2.000E+01  2.000E+04 -1.610E-02
   1    9   29     2     2    5.0322E+04 -5.7861E+02   5.0901E+04  0.000E+00  0.000E+00  0.000E+00  3.99917E+01  1.167E-01  2.000E+01  2.000E+04 -2.893E-02
   1    9   28     2     3    5.0901E+04 -7.2312E+02   5.1624E+04  0.000E+00  0.000E+00  0.000E+00  3.97426E+01  1.176E-01  2.000E+01  2.000E+04 -3.616E-02
   1    9   27     2     4    5.1624E+04 -1.3202E+03   5.2944E+04  0.000E+00  0.000E+00  0.000E+00  3.94940E+01  1.190E-01  2.000E+01  2.000E+04 -6.601E-02
   1   10   26     2     5    5.2944E+04 -7.0072E+02   5.3645E+04  0.000E+00  0.000E+00  0.000E+00  3.92454E+01  1.204E-01  2.000E+01  2.000E+04 -3.504E-02
   1   11   25     2     6    5.3645E+04 -6.0760E+02   5.4252E+04  0.000E+00  0.000E+00  0.000E+00  3.89963E+01  1.213E-01  2.000E+01  2.000E+04 -3.038E-02
   1   12   24     2     7    5.4252E+04 -7.6449E+02   5.5017E+04  0.000E+00  0.000E+00  0.000E+00  3.87472E+01  1.222E-01  2.000E+01  2.000E+04 -3.822E-02
   1   13   23     2     8    5.5017E+04 -1.5325E+02   5.5170E+04  0.000E+00  0.000E+00  0.000E+00  3.84978E+01  1.228E-01  2.000E+01  2.000E+04 -7.662E-03
   1   14   22     2     9    5.5170E+04  2.0849E+03   5.3085E+04  0.000E+00  0.000E+00  0.000E+00  3.82465E+01  1.215E-01  2.000E+01  2.000E+04  1.042E-01
   1   14   22     3     1    1.6174E+05 -8.4806E+03   1.7022E+05  0.000E+00  0.000E+00  0.000E+00  3.77182E+01  1.627E-01  2.000E+01  2.000E+04 -4.240E-01
   1   15   23     3     2    1.7022E+05 -3.9442E+02   1.7062E+05  0.000E+00  0.000E+00  0.000E+00  3.68319E+01  1.653E-01  2.000E+01  2.000E+04 -1.972E-02
   1   15   24     3     3    1.7062E+05 -2.4334E+02   1.7086E+05  0.000E+00  0.000E+00  0.000E+00  3.59432E+01  1.655E-01  2.000E+01  2.000E+04 -1.217E-02
   1   15   25     3     4    1.7086E+05 -2.4986E+02   1.7111E+05  0.000E+00  0.000E+00  0.000E+00  3.50545E+01  1.656E-01  2.000E+01  2.000E+04 -1.249E-02
   1   15   26     3     5    1.7111E+05 -3.1882E+02   1.7143E+05  0.000E+00  0.000E+00  0.000E+00  3.41658E+01  1.658E-01  2.000E+01  2.000E+04 -1.594E-02
   1   16   27     3     6    1.7143E+05 -3.3921E+02   1.7177E+05  0.000E+00  0.000E+00  0.000E+00  3.32771E+01  1.660E-01  2.000E+01  2.000E+04 -1.696E-02
   1   17   28     3     7    1.7177E+05 -1.4520E+03   1.7322E+05  0.000E+00  0.000E+00  0.000E+00  3.23887E+01  1.665E-01  2.000E+01  2.000E+04 -7.260E-02
   1   18   29     3     8    1.7322E+05 -2.6686E+03   1.7589E+05  0.000E+00  0.000E+00  0.000E+00  3.15010E+01  1.677E-01  2.000E+01  2.000E+04 -1.334E-01
   1   18   30     3     9    1.7589E+05 -3.0405E+03   1.7893E+05  0.000E+00  0.000E+00  0.000E+00  3.06138E+01  1.693E-01  2.000E+01  2.000E+04 -1.520E-01



1
              HEAD IN LAYER   1 AT END OF TIME STEP   1 IN STRESS PERIOD   12
  ---------------------------------------------------------------------------

          1      2      3      4      5      6      7      8      9     10
         11     12     13     14     15     16     17     18     19     20
         21     22     23     24     25     26     27     28     29     30
 .........................................................................
   1  ****** ****** ****** ****** ****** ****** ****** ****** ****** ******
      ****** ****** ****** ****** ****** ****** ****** ****** ****** ******
      ****** ****** ****** ****** ****** ****** ****** ****** ****** ******
   2  ****** ****** ****** ****** ****** ****** ****** ****** ****** ******
      ****** ****** ****** ****** ****** ****** ****** ****** ****** ******
      ****** ****** ****** ****** ****** ****** ****** ****** ****** ******
   3  ****** ****** ****** ****** ****** ****** ****** ****** ****** ******
      ****** ****** ****** ****** ****** ****** ****** ****** ****** ******
      ****** ****** ****** ****** ****** ****** ****** ****** ****** ******
   4  ****** ****** ****** ****** ****** ****** ****** ****** ****** ******
      ****** ****** ****** ****** ****** ****** ****** ****** ****** ******
      ****** ****** ****** ****** ****** ****** ****** ****** ****** ******
   5  ****** ****** ****** ****** ****** ****** ****** ****** ****** ******
      ****** ****** ****** ****** ****** ****** ****** ****** ****** ******
      ****** ****** ****** ****** ****** ****** ****** ****** ****** ******
   6  ****** ****** ****** ****** ****** ****** ****** ****** ****** ******
      ****** ****** ****** ****** ****** ****** ****** ****** ****** ******
      ****** ****** ****** ****** ****** ****** ****** ****** ****** ******
   7  ****** ****** ****** ****** ****** ****** ****** ****** ****** ******
      ****** ****** ****** ****** ****** ****** ****** ****** ****** ******
      ****** ****** ****** ****** ****** ****** ****** ****** ****** ******
   8  ****** ****** ****** ****** ****** ****** ****** ****** ****** ******
      ****** ****** ****** ****** ****** ****** ****** ****** ****** ******
      ****** ****** ****** ****** ****** ****** ****** ****** ****** ******
   9  ****** ****** ****** ****** ****** ****** ****** ****** ****** ******
      ****** ****** ****** ****** ****** ****** ****** ****** ****** ******
      ****** ****** ****** ****** ****** ****** ****** ****** ****** ******
  10  ****** ****** ****** ****** ****** ****** ****** ****** ****** ******
      ****** ****** ****** ****** ****** ****** ****** ****** ****** ******
      ****** ****** ****** ****** ****** ****** ****** ****** ****** ******
  11  ****** ****** ****** ****** ****** ****** ****** ****** ****** ******
      ****** ****** ****** ****** ****** ****** ****** ****** ****** ******
      ****** ****** ****** ****** ****** ****** ****** ****** ****** ******
  12  ****** ****** ****** ****** ****** ****** ****** ****** ****** ******
      ****** ****** ****** ****** ****** ****** ****** ****** ****** ******
      ****** ****** ****** ****** ****** ****** ****** ****** ****** ******
  13  ****** ****** ****** ****** ****** ****** ****** ****** ****** ******
      ****** ****** ****** ****** ****** ****** ****** ****** ****** ******
      ****** ****** ****** ****** ****** ****** ****** ****** ****** ******
  14  ****** ****** ****** ****** ****** ****** ****** ****** ****** ******
      ****** ****** ****** ****** ****** ****** ****** ****** ****** ******
      ****** ****** ****** ****** ****** ****** ****** ****** ****** ******
  15  ****** ****** ****** ****** ****** ****** ****** ****** ****** ******
      ****** ****** ****** ****** ****** ****** ****** ****** ****** ******
      ****** ****** ****** ****** ****** ****** ****** ****** ****** ******
  16  ****** ****** ****** ****** ****** ****** ****** ****** ****** ******
      ****** ****** ****** ****** ****** ****** ****** ****** ****** ******
      ****** ****** ****** ****** ****** ****** ****** ****** ****** ******
  17  ****** ****** ****** ****** ****** ****** ****** ****** ****** ******
      ****** ****** ****** ****** ****** ****** ****** ****** ****** ******
      ****** ****** ****** ****** ****** ****** ****** ****** ****** ******
  18  ****** ****** ****** ****** ****** ****** ****** ****** ****** ******
      ****** ****** ****** ****** ****** ****** ****** ****** ****** ******
      ****** ****** ****** ****** ****** ****** ****** ****** ****** ******
  19  ****** ****** ****** ****** ****** ****** ****** ****** ****** ******
      ****** ****** ****** ****** ****** ****** ****** ****** ****** ******
      ****** ****** ****** ****** ****** ****** ****** ****** ****** ******
  20  ****** ****** ****** ****** ****** ****** ****** ****** ****** ******
      ****** ****** ****** ****** ****** ****** ****** ****** ****** ******
      ****** ****** ****** ****** ****** ****** ****** ****** ****** ******
  21  ****** ****** ****** ****** ****** ****** ****** ****** ****** ******
      ****** ****** ****** ****** ****** ****** ****** ****** ****** ******
      ****** ****** ****** ****** ****** ****** ****** ****** ****** ******
  22  ****** ****** ****** ****** ****** ****** ****** ****** ****** ******
      ****** ****** ****** ****** ****** ****** ****** ****** ****** ******
      ****** ****** ****** ****** ****** ****** ****** ****** ****** ******
  23  ****** ****** ****** ****** ****** ****** ****** ****** ****** ******
      ****** ****** ****** ****** ****** ****** ****** ****** ****** ******
      ****** ****** ****** ****** ****** ****** ****** ****** ****** ******
  24  ****** ****** ****** ****** ****** ****** ****** ****** ****** ******
      ****** ****** ****** ****** ****** ****** ****** ****** ****** ******
      ****** ****** ****** ****** ****** ****** ****** ****** ****** ******
  25  ****** ****** ****** ****** ****** ****** ****** ****** ****** ******
      ****** ****** ****** ****** ****** ****** ****** ****** ****** ******
      ****** ****** ****** ****** ****** ****** ****** ****** ****** ******

 HEAD WILL BE SAVED ON UNIT   51 AT END OF TIME STEP    1, STRESS PERIOD   12
1
  VOLUMETRIC BUDGET FOR ENTIRE MODEL AT END OF TIME STEP    1, STRESS PERIOD  12
  ------------------------------------------------------------------------------

     CUMULATIVE VOLUMES      L**3       RATES FOR THIS TIME STEP      L**3/T
     ------------------                 ------------------------

           IN:                                      IN:
           ---                                      ---
             STORAGE =    35997649.4547               STORAGE =           9.6059
       CONSTANT HEAD =    32344884.8006         CONSTANT HEAD =       34770.7866
               WELLS =           0.0000                 WELLS =           0.0000
            RECHARGE =    26413200.0000              RECHARGE =       27600.0000
      STREAM LEAKAGE =     8162117.4964        STREAM LEAKAGE =        8537.0525

            TOTAL IN =   102917851.7516              TOTAL IN =       70917.4450

          OUT:                                     OUT:
          ----                                     ----
             STORAGE =     2632076.8680               STORAGE =        3019.7492
       CONSTANT HEAD =           0.0000         CONSTANT HEAD =           0.0000
               WELLS =    33319914.3365                 WELLS =       30429.1455
            RECHARGE =           0.0000              RECHARGE =           0.0000
      STREAM LEAKAGE =    66965862.4480        STREAM LEAKAGE =       37468.5492

           TOTAL OUT =   102917853.6525             TOTAL OUT =       70917.4440

            IN - OUT =          -1.9009              IN - OUT =       9.7296E-04

 PERCENT DISCREPANCY =          -0.00     PERCENT DISCREPANCY =           0.00






         TIME SUMMARY AT END OF TIME STEP    1 IN STRESS PERIOD   12
                    SECONDS     MINUTES      HOURS       DAYS        YEARS
                    -----------------------------------------------------------
   TIME STEP LENGTH 7.86240E+06 1.31040E+05  2184.0      91.000     0.24914    
 STRESS PERIOD TIME 7.86240E+06 1.31040E+05  2184.0      91.000     0.24914    
         TOTAL TIME 9.46080E+07 1.57680E+06  26280.      1095.0      2.9979    
1

 Run end date and time (yyyy/mm/dd hh:mm:ss): 2018/10/10 18:20:55
 Elapsed run time:  0.052 Seconds

