                                  MODFLOW-2005     
      U.S. GEOLOGICAL SURVEY MODULAR FINITE-DIFFERENCE GROUND-WATER FLOW MODEL
                            VERSION 1.11.00 8/8/2013

 LIST FILE: supply2.lst
                         UNIT   10

 OPENING ..\data\supply.dis
 FILE TYPE:DIS   UNIT   11   STATUS:OLD    
 FORMAT:FORMATTED              ACCESS:SEQUENTIAL          

 OPENING ..\data\supply.ba6
 FILE TYPE:BAS6   UNIT   12   STATUS:OLD    
 FORMAT:FORMATTED              ACCESS:SEQUENTIAL          

 OPENING ..\data\supply_het.bc6
 FILE TYPE:BCF6   UNIT   13   STATUS:OLD    
 FORMAT:FORMATTED              ACCESS:SEQUENTIAL          

 OPENING ..\data\supply.rch
 FILE TYPE:RCH   UNIT   15   STATUS:OLD    
 FORMAT:FORMATTED              ACCESS:SEQUENTIAL          

 OPENING ..\data\supply2.sfr
 FILE TYPE:SFR   UNIT   16   STATUS:OLD    
 FORMAT:FORMATTED              ACCESS:SEQUENTIAL          

 OPENING ..\data\supply.oc
 FILE TYPE:OC   UNIT   17   STATUS:OLD    
 FORMAT:FORMATTED              ACCESS:SEQUENTIAL          

 OPENING ..\data\supply.pcg
 FILE TYPE:PCG   UNIT   18   STATUS:OLD    
 FORMAT:FORMATTED              ACCESS:SEQUENTIAL          

 OPENING supply2.wel
 FILE TYPE:WEL   UNIT   19   STATUS:OLD    
 FORMAT:FORMATTED              ACCESS:SEQUENTIAL          

 OPENING supply2sf.cbc
 FILE TYPE:DATA(BINARY)   UNIT   50   STATUS:UNKNOWN
 FORMAT:BINARY                 ACCESS:SEQUENTIAL          

 OPENING supply2hd.bhd
 FILE TYPE:DATA(BINARY)   UNIT   51   STATUS:UNKNOWN
 FORMAT:BINARY                 ACCESS:SEQUENTIAL          

 BAS -- BASIC PACKAGE, VERSION 7, 5/2/2005 INPUT READ FROM UNIT   12
 
 MODFLOW was compiled using uniform precision
 Precision of REAL and DOUBLE PRECISION variables:          15

 DISCRETIZATION INPUT DATA READ FROM UNIT   11
    1 LAYERS        25 ROWS        30 COLUMNS
   12 STRESS PERIOD(S) IN SIMULATION
 MODEL TIME UNIT IS DAYS
 MODEL LENGTH UNIT IS UNDEFINED
  Confining bed flag for each layer:
   0

                     DELR =   200.000    

                     DELC =   200.000    

 TOP ELEVATION OF LAYER 1 =  100.0000    

   MODEL LAYER BOTTOM EL. =   0.00000     FOR LAYER   1


 STRESS PERIOD     LENGTH       TIME STEPS     MULTIPLIER FOR DELT    SS FLAG
 ----------------------------------------------------------------------------
        1         92.00000          1                    1.500         TR
        2         91.00000          1                    1.500         TR
        3         91.00000          1                    1.500         TR
        4         91.00000          1                    1.500         TR
        5         92.00000          1                    1.500         TR
        6         91.00000          1                    1.500         TR
        7         91.00000          1                    1.500         TR
        8         91.00000          1                    1.500         TR
        9         92.00000          1                    1.500         TR
       10         91.00000          1                    1.500         TR
       11         91.00000          1                    1.500         TR
       12         91.00000          1                    1.500         TR

 TRANSIENT SIMULATION



 
 #MODOFC transient water supply sample problem                                   
 #                                                                               
 THE FREE FORMAT OPTION HAS BEEN SELECTED



                     BOUNDARY ARRAY FOR LAYER   1
 READING ON UNIT   12 WITH FORMAT: (20I4)              

 AQUIFER HEAD WILL BE SET TO   0.0000     AT ALL NO-FLOW NODES (IBOUND=0).



                       INITIAL HEAD FOR LAYER   1
 READING ON UNIT   12 WITH FORMAT: (10F13.0)           

 OUTPUT CONTROL IS SPECIFIED ONLY AT TIME STEPS FOR WHICH OUTPUT IS DESIRED
 COMPACT CELL-BY-CELL BUDGET FILES WILL BE WRITTEN
 HEAD PRINT FORMAT CODE IS  18    DRAWDOWN PRINT FORMAT CODE IS   0
 HEADS WILL BE SAVED ON UNIT   51    DRAWDOWNS WILL BE SAVED ON UNIT    0

 BCF -- BLOCK-CENTERED FLOW PACKAGE, VERSION 7, 5/2/2005
         INPUT READ FROM UNIT 13
 TRANSIENT SIMULATION
 HEAD AT CELLS THAT CONVERT TO DRY=   0.0000    
 WETTING CAPABILITY IS NOT ACTIVE
      LAYER  LAYER-TYPE CODE     INTERBLOCK T
      --------------------------------------------
         1            0          0 -- HARMONIC    

 COLUMN TO ROW ANISOTROPY =  1.000000    

     PRIMARY STORAGE COEF =  5.000000E-02 FOR LAYER   1



               TRANSMIS. ALONG ROWS FOR LAYER   1
 READING ON UNIT   13 WITH FORMAT: (FREE)              

 WEL -- WELL PACKAGE, VERSION 7, 5/2/2005 INPUT READ FROM UNIT   19
 # Well package input file written by MMProc
 No named parameters
 MAXIMUM OF      8 ACTIVE WELLS AT ONE TIME


     0 Well parameters

 RCH -- RECHARGE PACKAGE, VERSION 7, 5/2/2005 INPUT READ FROM UNIT   15
 No named parameters
 OPTION 1 -- RECHARGE TO TOP LAYER


     0 Recharge parameters

 SFR7 -- STREAMFLOW ROUTING PACKAGE, VERSION 1.0.7, 2013-01-15
         INPUT READ FROM UNIT  16
 #  Supply2 test problem for GWM-VI
 #  The eighth entry in the first data line is ISTCB2 -
 #    Setting this to a negative number indicates that
 #    streamflows out of the reach will be saved to a
 #    binary file.  The absolute value of ISTCB2 is the
 #    unit to which unformatted flows will be written.
 #
 No named parameters
 Segment information will not be 
 read by reach
 No named parameters
 No specifed inflow files


 NUMBER OF STREAM REACHES IS   40

 NUMBER OF STREAM SEGMENTS IS    3

 NUMBER OF STREAM PARAMETERS IS    0

 NUMBER OF STREAM SEGMENTS DEFINED USING PARAMETERS IS              0

 MAXIMUM ERROR FOR STREAM LEAKAGE RATES IS  1.00E-04

 CONSTANT FOR MANNINGS EQUATION IS  1.2839E+05





   STREAM NETWORK DESCRIPTION: 

   LAYER    ROW    COL   SEGMENT   REACH     LENGTH
                          NUMBER   NUMBER    IN CELL        
   --------------------------------------------------
      1     13      1       1        1    2.0000E+02
      1     13      2       1        2    2.0000E+02
      1     14      3       1        3    2.0000E+02
      1     15      4       1        4    2.0000E+02
      1     16      5       1        5    2.0000E+02
      1     16      6       1        6    2.0000E+02
      1     16      7       1        7    2.0000E+02
      1     16      8       1        8    2.0000E+02
      1     16      9       1        9    2.0000E+02
      1     16     10       1       10    2.0000E+02
      1     16     11       1       11    2.0000E+02
      1     16     12       1       12    2.0000E+02
      1     15     13       1       13    2.0000E+02
      1     14     14       1       14    2.0000E+02
      1     13     15       1       15    2.0000E+02
      1     12     16       1       16    2.0000E+02
      1     12     17       1       17    2.0000E+02
      1     12     18       1       18    2.0000E+02
      1     12     19       1       19    2.0000E+02
      1     13     20       1       20    2.0000E+02
      1     14     21       1       21    2.0000E+02
      1     14     22       1       22    2.0000E+02
      1      9     30       2        1    2.0000E+02
      1      9     29       2        2    2.0000E+02
      1      9     28       2        3    2.0000E+02
      1      9     27       2        4    2.0000E+02
      1     10     26       2        5    2.0000E+02
      1     11     25       2        6    2.0000E+02
      1     12     24       2        7    2.0000E+02
      1     13     23       2        8    2.0000E+02
      1     14     22       2        9    2.0000E+02
      1     14     22       3        1    2.0000E+02
      1     15     23       3        2    2.0000E+02
      1     15     24       3        3    2.0000E+02
      1     15     25       3        4    2.0000E+02
      1     15     26       3        5    2.0000E+02
      1     16     27       3        6    2.0000E+02
      1     17     28       3        7    2.0000E+02
      1     18     29       3        8    2.0000E+02
      1     18     30       3        9    2.0000E+02




 PCG -- CONJUGATE-GRADIENT SOLUTION PACKAGE, VERSION 7, 5/2/2005
 MAXIMUM OF    500 CALLS OF SOLUTION ROUTINE
 MAXIMUM OF      5 INTERNAL ITERATIONS PER CALL TO SOLUTION ROUTINE
 MATRIX PRECONDITIONING TYPE :    1



                                    SOLUTION BY THE CONJUGATE-GRADIENT METHOD
                                   -------------------------------------------
                    MAXIMUM NUMBER OF CALLS TO PCG ROUTINE =      500
                        MAXIMUM ITERATIONS PER CALL TO PCG =        5
                               MATRIX PRECONDITIONING TYPE =        1
        RELAXATION FACTOR (ONLY USED WITH PRECOND. TYPE 1) =    0.10000E+01
 PARAMETER OF POLYNOMIAL PRECOND. = 2 (2) OR IS CALCULATED :        0
                         HEAD CHANGE CRITERION FOR CLOSURE =    0.10000E-05
                     RESIDUAL CHANGE CRITERION FOR CLOSURE =    0.10000E+01
            PCG HEAD AND RESIDUAL CHANGE PRINTOUT INTERVAL =        1
     PRINTING FROM SOLVER IS LIMITED(1) OR SUPPRESSED (>1) =        1
                            STEADY-STATE DAMPING PARAMETER =    0.10000E+01
                               TRANSIENT DAMPING PARAMETER =    0.10000E+01
1
                            STRESS PERIOD NO.    1, LENGTH =   92.00000    
                            -----------------------------------------------

                              NUMBER OF TIME STEPS =     1

                               MULTIPLIER FOR DELT =     1.500

                            INITIAL TIME STEP SIZE =   92.00000    

 WELL NO.  LAYER   ROW   COL   STRESS RATE         
 --------------------------------------------------
      1      1     14      6       0.000    
      2      1      3      9       0.000    
      3      1     20     10       0.000    
      4      1     14     20       0.000    
      5      1     15     20     -0.1192E+05
      6      1     17     29     -0.1435E+05
      7      1     12     29      -6954.    
      8      1     12     26      -8791.    

      8 WELLS

                 RECHARGE =  5.000000E-04



 CLASSIFICATION & COUNT OF STREAM SEGMENTS BASED ON SOURCE OF INFLOW:

                HEADWATER     DIVERSION     RECEIVES TRIBUTARY FLOW
                ---------     ---------     -----------------------
                     2              0               1



                    INPUT DATA FOR EACH STREAM SEGMENT
 ---------------------------------------------------------------------------------------------

 SEGMENT    SEG.     INFLOW   OVERLAND   STREAM    STREAM   ICALC  OUTFLOW  DIVERSION PRIORITY
    NO.    LENGTH     RATE     RUNOFF      ET       PPT.    METH.  TO SEG.  FROM SEG.    NO.

      1  4.400E+03 1.000E+05 0.000E+00 0.000E+00 0.000E+00    1        3        0        0
      2  1.800E+03 5.000E+04 0.000E+00 0.000E+00 0.000E+00    1        3        0        0
      3  1.800E+03 0.000E+00 0.000E+00 0.000E+00 0.000E+00    1        0        0        0


         STREAMBED PROPERTIES AND STREAM DIMENSIONS

 SEGMENT     BED HYD. COND.      BED THICKNESS     ELEV.-TOP OF BED     WIDTH OF STREAM     DEPTH OF STREAM    STREAM ROUGHNESS
    No.     UPPER     LOWER     UPPER     LOWER     UPPER     LOWER     UPPER     LOWER     UPPER     LOWER   CHANNEL      BANK

     1  5.000E+00 5.000E+00 1.000E+00 1.000E+00 4.850E+01 3.800E+01 2.000E+01 2.000E+01                     5.000E-02
     2  5.000E+00 5.000E+00 1.000E+00 1.000E+00 4.025E+01 3.800E+01 2.000E+01 2.000E+01                     5.000E-02
     3  5.000E+00 5.000E+00 1.000E+00 1.000E+00 3.800E+01 3.000E+01 2.000E+01 2.000E+01                     5.000E-02



 
 SOLVING FOR HEAD 


     9 CALLS TO PCG ROUTINE FOR TIME STEP   1 IN STRESS PERIOD    1
    36 TOTAL ITERATIONS

 OUTPUT CONTROL FOR STRESS PERIOD    1   TIME STEP    1
    SAVE BUDGET
    SAVE HEAD FOR ALL LAYERS
    PRINT HEAD FOR ALL LAYERS
 UBDSV2 SAVING "STREAMFLOW OUT  " ON UNIT  50 AT TIME STEP  1, STRESS PERIOD   1



 STREAM LISTING     PERIOD      1   STEP        1

 LAYER ROW COL. STREAM  RCH.  FLOW INTO     FLOW TO   FLOW OUT OF   OVRLND.     DIRECT     STREAM       STREAM     STREAM     STREAM   STREAMBED  STREAMBED
                SEG.NO.  NO.  STRM. RCH.    AQUIFER    STRM. RCH.    RUNOFF     PRECIP       ET          HEAD       DEPTH      WIDTH   CONDCTNC.   GRADIENT

   1   13    1     1     1    1.0000E+05 -6.1243E+03   1.0612E+05  0.000E+00  0.000E+00  0.000E+00  4.84087E+01  1.473E-01  2.000E+01  2.000E+04 -3.062E-01
   1   13    2     1     2    1.0612E+05 -7.5940E+03   1.1372E+05  0.000E+00  0.000E+00  0.000E+00  4.79372E+01  1.531E-01  2.000E+01  2.000E+04 -3.797E-01
   1   14    3     1     3    1.1372E+05 -2.1990E+03   1.1592E+05  0.000E+00  0.000E+00  0.000E+00  4.74640E+01  1.572E-01  2.000E+01  2.000E+04 -1.100E-01
   1   15    4     1     4    1.1592E+05 -2.2701E+03   1.1819E+05  0.000E+00  0.000E+00  0.000E+00  4.69885E+01  1.590E-01  2.000E+01  2.000E+04 -1.135E-01
   1   16    5     1     5    1.1819E+05 -7.1818E+03   1.2537E+05  0.000E+00  0.000E+00  0.000E+00  4.65151E+01  1.628E-01  2.000E+01  2.000E+04 -3.591E-01
   1   16    6     1     6    1.2537E+05 -4.3007E+03   1.2967E+05  0.000E+00  0.000E+00  0.000E+00  4.60424E+01  1.674E-01  2.000E+01  2.000E+04 -2.150E-01
   1   16    7     1     7    1.2967E+05 -4.1343E+03   1.3380E+05  0.000E+00  0.000E+00  0.000E+00  4.55684E+01  1.707E-01  2.000E+01  2.000E+04 -2.067E-01
   1   16    8     1     8    1.3380E+05 -4.0915E+03   1.3790E+05  0.000E+00  0.000E+00  0.000E+00  4.50943E+01  1.738E-01  2.000E+01  2.000E+04 -2.046E-01
   1   16    9     1     9    1.3790E+05 -4.0775E+03   1.4197E+05  0.000E+00  0.000E+00  0.000E+00  4.46201E+01  1.770E-01  2.000E+01  2.000E+04 -2.039E-01
   1   16   10     1    10    1.4197E+05 -4.0691E+03   1.4604E+05  0.000E+00  0.000E+00  0.000E+00  4.41459E+01  1.800E-01  2.000E+01  2.000E+04 -2.035E-01
   1   16   11     1    11    1.4604E+05 -4.0927E+03   1.5013E+05  0.000E+00  0.000E+00  0.000E+00  4.36717E+01  1.831E-01  2.000E+01  2.000E+04 -2.046E-01
   1   16   12     1    12    1.5013E+05 -6.8998E+03   1.5703E+05  0.000E+00  0.000E+00  0.000E+00  4.31985E+01  1.871E-01  2.000E+01  2.000E+04 -3.450E-01
   1   15   13     1    13    1.5703E+05 -7.1841E+03   1.6422E+05  0.000E+00  0.000E+00  0.000E+00  4.27263E+01  1.922E-01  2.000E+01  2.000E+04 -3.592E-01
   1   14   14     1    14    1.6422E+05 -7.6280E+03   1.7185E+05  0.000E+00  0.000E+00  0.000E+00  4.22543E+01  1.975E-01  2.000E+01  2.000E+04 -3.814E-01
   1   13   15     1    15    1.7185E+05 -7.9487E+03   1.7980E+05  0.000E+00  0.000E+00  0.000E+00  4.17825E+01  2.029E-01  2.000E+01  2.000E+04 -3.974E-01
   1   12   16     1    16    1.7980E+05 -8.7519E+03   1.8855E+05  0.000E+00  0.000E+00  0.000E+00  4.13109E+01  2.087E-01  2.000E+01  2.000E+04 -4.376E-01
   1   12   17     1    17    1.8855E+05 -6.0751E+03   1.9462E+05  0.000E+00  0.000E+00  0.000E+00  4.08387E+01  2.137E-01  2.000E+01  2.000E+04 -3.038E-01
   1   12   18     1    18    1.9462E+05 -5.8081E+03   2.0043E+05  0.000E+00  0.000E+00  0.000E+00  4.03653E+01  2.176E-01  2.000E+01  2.000E+04 -2.904E-01
   1   12   19     1    19    2.0043E+05 -7.3532E+03   2.0778E+05  0.000E+00  0.000E+00  0.000E+00  3.98924E+01  2.219E-01  2.000E+01  2.000E+04 -3.677E-01
   1   13   20     1    20    2.0778E+05 -4.9909E+03   2.1277E+05  0.000E+00  0.000E+00  0.000E+00  3.94191E+01  2.259E-01  2.000E+01  2.000E+04 -2.495E-01
   1   14   21     1    21    2.1277E+05 -3.2264E+03   2.1600E+05  0.000E+00  0.000E+00  0.000E+00  3.89445E+01  2.286E-01  2.000E+01  2.000E+04 -1.613E-01
   1   14   22     1    22    2.1600E+05  4.0680E+03   2.1193E+05  0.000E+00  0.000E+00  0.000E+00  3.84670E+01  2.283E-01  2.000E+01  2.000E+04  2.034E-01
   1    9   30     2     1    5.0000E+04 -3.6650E+03   5.3665E+04  0.000E+00  0.000E+00  0.000E+00  4.02434E+01  1.184E-01  2.000E+01  2.000E+04 -1.832E-01
   1    9   29     2     2    5.3665E+04 -3.9471E+03   5.7612E+04  0.000E+00  0.000E+00  0.000E+00  3.99985E+01  1.235E-01  2.000E+01  2.000E+04 -1.974E-01
   1    9   28     2     3    5.7612E+04 -4.3982E+03   6.2010E+04  0.000E+00  0.000E+00  0.000E+00  3.97540E+01  1.290E-01  2.000E+01  2.000E+04 -2.199E-01
   1    9   27     2     4    6.2010E+04 -7.5172E+03   6.9528E+04  0.000E+00  0.000E+00  0.000E+00  3.95116E+01  1.366E-01  2.000E+01  2.000E+04 -3.759E-01
   1   10   26     2     5    6.9528E+04 -4.9401E+03   7.4468E+04  0.000E+00  0.000E+00  0.000E+00  3.92692E+01  1.442E-01  2.000E+01  2.000E+04 -2.470E-01
   1   11   25     2     6    7.4468E+04 -3.6014E+03   7.8069E+04  0.000E+00  0.000E+00  0.000E+00  3.90243E+01  1.493E-01  2.000E+01  2.000E+04 -1.801E-01
   1   12   24     2     7    7.8069E+04 -4.6721E+03   8.2741E+04  0.000E+00  0.000E+00  0.000E+00  3.87791E+01  1.541E-01  2.000E+01  2.000E+04 -2.336E-01
   1   13   23     2     8    8.2741E+04 -1.6152E+03   8.4356E+04  0.000E+00  0.000E+00  0.000E+00  3.85327E+01  1.577E-01  2.000E+01  2.000E+04 -8.076E-02
   1   14   22     2     9    8.4356E+04  3.9604E+02   8.3960E+04  0.000E+00  0.000E+00  0.000E+00  3.82834E+01  1.584E-01  2.000E+01  2.000E+04  1.980E-02
   1   14   22     3     1    2.9589E+05 -9.5130E+03   3.0541E+05  0.000E+00  0.000E+00  0.000E+00  3.77879E+01  2.323E-01  2.000E+01  2.000E+04 -4.757E-01
   1   15   23     3     2    3.0541E+05 -1.7541E+03   3.0716E+05  0.000E+00  0.000E+00  0.000E+00  3.69016E+01  2.349E-01  2.000E+01  2.000E+04 -8.771E-02
   1   15   24     3     3    3.0716E+05 -1.4871E+03   3.0865E+05  0.000E+00  0.000E+00  0.000E+00  3.60135E+01  2.357E-01  2.000E+01  2.000E+04 -7.436E-02
   1   15   25     3     4    3.0865E+05 -1.5111E+03   3.1016E+05  0.000E+00  0.000E+00  0.000E+00  3.51253E+01  2.364E-01  2.000E+01  2.000E+04 -7.555E-02
   1   15   26     3     5    3.1016E+05 -1.6487E+03   3.1181E+05  0.000E+00  0.000E+00  0.000E+00  3.42371E+01  2.371E-01  2.000E+01  2.000E+04 -8.243E-02
   1   16   27     3     6    3.1181E+05 -1.7355E+03   3.1354E+05  0.000E+00  0.000E+00  0.000E+00  3.33490E+01  2.379E-01  2.000E+01  2.000E+04 -8.677E-02
   1   17   28     3     7    3.1354E+05 -2.6750E+02   3.1381E+05  0.000E+00  0.000E+00  0.000E+00  3.24606E+01  2.383E-01  2.000E+01  2.000E+04 -1.337E-02
   1   18   29     3     8    3.1381E+05 -3.1945E+03   3.1701E+05  0.000E+00  0.000E+00  0.000E+00  3.15725E+01  2.391E-01  2.000E+01  2.000E+04 -1.597E-01
   1   18   30     3     9    3.1701E+05 -4.6081E+03   3.2161E+05  0.000E+00  0.000E+00  0.000E+00  3.06853E+01  2.409E-01  2.000E+01  2.000E+04 -2.304E-01



1
              HEAD IN LAYER   1 AT END OF TIME STEP   1 IN STRESS PERIOD    1
  ---------------------------------------------------------------------------

          1      2      3      4      5      6      7      8      9     10
         11     12     13     14     15     16     17     18     19     20
         21     22     23     24     25     26     27     28     29     30
 .........................................................................
   1  ****** ****** ****** ****** ****** ****** ****** ****** ****** ******
      ****** ****** ****** ****** ****** ****** ****** ****** ****** ******
      ****** ****** ****** ****** ****** ****** ****** ****** ****** ******
   2  ****** ****** ****** ****** ****** ****** ****** ****** ****** ******
      ****** ****** ****** ****** ****** ****** ****** ****** ****** ******
      ****** ****** ****** ****** ****** ****** ****** ****** ****** ******
   3  ****** ****** ****** ****** ****** ****** ****** ****** ****** ******
      ****** ****** ****** ****** ****** ****** ****** ****** ****** ******
      ****** ****** ****** ****** ****** ****** ****** ****** ****** ******
   4  ****** ****** ****** ****** ****** ****** ****** ****** ****** ******
      ****** ****** ****** ****** ****** ****** ****** ****** ****** ******
      ****** ****** ****** ****** ****** ****** ****** ****** ****** ******
   5  ****** ****** ****** ****** ****** ****** ****** ****** ****** ******
      ****** ****** ****** ****** ****** ****** ****** ****** ****** ******
      ****** ****** ****** ****** ****** ****** ****** ****** ****** ******
   6  ****** ****** ****** ****** ****** ****** ****** ****** ****** ******
      ****** ****** ****** ****** ****** ****** ****** ****** ****** ******
      ****** ****** ****** ****** ****** ****** ****** ****** ****** ******
   7  ****** ****** ****** ****** ****** ****** ****** ****** ****** ******
      ****** ****** ****** ****** ****** ****** ****** ****** ****** ******
      ****** ****** ****** ****** ****** ****** ****** ****** ****** ******
   8  ****** ****** ****** ****** ****** ****** ****** ****** ****** ******
      ****** ****** ****** ****** ****** ****** ****** ****** ****** ******
      ****** ****** ****** ****** ****** ****** ****** ****** ****** ******
   9  ****** ****** ****** ****** ****** ****** ****** ****** ****** ******
      ****** ****** ****** ****** ****** ****** ****** ****** ****** ******
      ****** ****** ****** ****** ****** ****** ****** ****** ****** ******
  10  ****** ****** ****** ****** ****** ****** ****** ****** ****** ******
      ****** ****** ****** ****** ****** ****** ****** ****** ****** ******
      ****** ****** ****** ****** ****** ****** ****** ****** ****** ******
  11  ****** ****** ****** ****** ****** ****** ****** ****** ****** ******
      ****** ****** ****** ****** ****** ****** ****** ****** ****** ******
      ****** ****** ****** ****** ****** ****** ****** ****** ****** ******
  12  ****** ****** ****** ****** ****** ****** ****** ****** ****** ******
      ****** ****** ****** ****** ****** ****** ****** ****** ****** ******
      ****** ****** ****** ****** ****** ****** ****** ****** ****** ******
  13  ****** ****** ****** ****** ****** ****** ****** ****** ****** ******
      ****** ****** ****** ****** ****** ****** ****** ****** ****** ******
      ****** ****** ****** ****** ****** ****** ****** ****** ****** ******
  14  ****** ****** ****** ****** ****** ****** ****** ****** ****** ******
      ****** ****** ****** ****** ****** ****** ****** ****** ****** ******
      ****** ****** ****** ****** ****** ****** ****** ****** ****** ******
  15  ****** ****** ****** ****** ****** ****** ****** ****** ****** ******
      ****** ****** ****** ****** ****** ****** ****** ****** ****** ******
      ****** ****** ****** ****** ****** ****** ****** ****** ****** ******
  16  ****** ****** ****** ****** ****** ****** ****** ****** ****** ******
      ****** ****** ****** ****** ****** ****** ****** ****** ****** ******
      ****** ****** ****** ****** ****** ****** ****** ****** ****** ******
  17  ****** ****** ****** ****** ****** ****** ****** ****** ****** ******
      ****** ****** ****** ****** ****** ****** ****** ****** ****** ******
      ****** ****** ****** ****** ****** ****** ****** ****** ****** ******
  18  ****** ****** ****** ****** ****** ****** ****** ****** ****** ******
      ****** ****** ****** ****** ****** ****** ****** ****** ****** ******
      ****** ****** ****** ****** ****** ****** ****** ****** ****** ******
  19  ****** ****** ****** ****** ****** ****** ****** ****** ****** ******
      ****** ****** ****** ****** ****** ****** ****** ****** ****** ******
      ****** ****** ****** ****** ****** ****** ****** ****** ****** ******
  20  ****** ****** ****** ****** ****** ****** ****** ****** ****** ******
      ****** ****** ****** ****** ****** ****** ****** ****** ****** ******
      ****** ****** ****** ****** ****** ****** ****** ****** ****** ******
  21  ****** ****** ****** ****** ****** ****** ****** ****** ****** ******
      ****** ****** ****** ****** ****** ****** ****** ****** ****** ******
      ****** ****** ****** ****** ****** ****** ****** ****** ****** ******
  22  ****** ****** ****** ****** ****** ****** ****** ****** ****** ******
      ****** ****** ****** ****** ****** ****** ****** ****** ****** ******
      ****** ****** ****** ****** ****** ****** ****** ****** ****** ******
  23  ****** ****** ****** ****** ****** ****** ****** ****** ****** ******
      ****** ****** ****** ****** ****** ****** ****** ****** ****** ******
      ****** ****** ****** ****** ****** ****** ****** ****** ****** ******
  24  ****** ****** ****** ****** ****** ****** ****** ****** ****** ******
      ****** ****** ****** ****** ****** ****** ****** ****** ****** ******
      ****** ****** ****** ****** ****** ****** ****** ****** ****** ******
  25  ****** ****** ****** ****** ****** ****** ****** ****** ****** ******
      ****** ****** ****** ****** ****** ****** ****** ****** ****** ******
      ****** ****** ****** ****** ****** ****** ****** ****** ****** ******

 HEAD WILL BE SAVED ON UNIT   51 AT END OF TIME STEP    1, STRESS PERIOD    1
1
  VOLUMETRIC BUDGET FOR ENTIRE MODEL AT END OF TIME STEP    1, STRESS PERIOD   1
  ------------------------------------------------------------------------------

     CUMULATIVE VOLUMES      L**3       RATES FOR THIS TIME STEP      L**3/T
     ------------------                 ------------------------

           IN:                                      IN:
           ---                                      ---
             STORAGE =    17286702.4898               STORAGE =      187898.9401
       CONSTANT HEAD =     1097861.8743         CONSTANT HEAD =       11933.2812
               WELLS =           0.0000                 WELLS =           0.0000
            RECHARGE =     1269600.0000              RECHARGE =       13800.0000
      STREAM LEAKAGE =      410687.1847        STREAM LEAKAGE =        4463.9911

            TOTAL IN =    20064851.5488              TOTAL IN =      218096.2125

          OUT:                                     OUT:
          ----                                     ----
             STORAGE =           0.0000               STORAGE =           0.0000
       CONSTANT HEAD =           0.0000         CONSTANT HEAD =           0.0000
               WELLS =     3865755.6617                 WELLS =       42019.0833
            RECHARGE =           0.0000              RECHARGE =           0.0000
      STREAM LEAKAGE =    16199096.1758        STREAM LEAKAGE =      176077.1323

           TOTAL OUT =    20064851.8375             TOTAL OUT =      218096.2156

            IN - OUT =          -0.2887              IN - OUT =      -3.1377E-03

 PERCENT DISCREPANCY =          -0.00     PERCENT DISCREPANCY =          -0.00






         TIME SUMMARY AT END OF TIME STEP    1 IN STRESS PERIOD    1
                    SECONDS     MINUTES      HOURS       DAYS        YEARS
                    -----------------------------------------------------------
   TIME STEP LENGTH 7.94880E+06 1.32480E+05  2208.0      92.000     0.25188    
 STRESS PERIOD TIME 7.94880E+06 1.32480E+05  2208.0      92.000     0.25188    
         TOTAL TIME 7.94880E+06 1.32480E+05  2208.0      92.000     0.25188    
1
1
                            STRESS PERIOD NO.    2, LENGTH =   91.00000    
                            -----------------------------------------------

                              NUMBER OF TIME STEPS =     1

                               MULTIPLIER FOR DELT =     1.500

                            INITIAL TIME STEP SIZE =   91.00000    

 WELL NO.  LAYER   ROW   COL   STRESS RATE         
 --------------------------------------------------
      1      1     14      6       0.000    
      2      1      3      9       0.000    
      3      1     20     10       0.000    
      4      1     14     20       0.000    
      5      1     15     20     -0.1192E+05
      6      1     17     29     -0.1435E+05
      7      1     12     29      -6954.    
      8      1     12     26      -8791.    

      8 WELLS

                 RECHARGE =  2.000000E-03

 REUSING STREAM SEGMENT DATA FROM LAST STRESS PERIOD
 
 SOLVING FOR HEAD 


     7 CALLS TO PCG ROUTINE FOR TIME STEP   1 IN STRESS PERIOD    2
    27 TOTAL ITERATIONS

 OUTPUT CONTROL FOR STRESS PERIOD    2   TIME STEP    1
    SAVE BUDGET
    SAVE HEAD FOR ALL LAYERS
    PRINT HEAD FOR ALL LAYERS
 UBDSV2 SAVING "STREAMFLOW OUT  " ON UNIT  50 AT TIME STEP  1, STRESS PERIOD   2



 STREAM LISTING     PERIOD      2   STEP        1

 LAYER ROW COL. STREAM  RCH.  FLOW INTO     FLOW TO   FLOW OUT OF   OVRLND.     DIRECT     STREAM       STREAM     STREAM     STREAM   STREAMBED  STREAMBED
                SEG.NO.  NO.  STRM. RCH.    AQUIFER    STRM. RCH.    RUNOFF     PRECIP       ET          HEAD       DEPTH      WIDTH   CONDCTNC.   GRADIENT

   1   13    1     1     1    1.0000E+05 -4.0154E+03   1.0402E+05  0.000E+00  0.000E+00  0.000E+00  4.84078E+01  1.464E-01  2.000E+01  2.000E+04 -2.008E-01
   1   13    2     1     2    1.0402E+05 -5.2781E+03   1.0929E+05  0.000E+00  0.000E+00  0.000E+00  4.79344E+01  1.504E-01  2.000E+01  2.000E+04 -2.639E-01
   1   14    3     1     3    1.0929E+05 -1.1167E+03   1.1041E+05  0.000E+00  0.000E+00  0.000E+00  4.74599E+01  1.530E-01  2.000E+01  2.000E+04 -5.583E-02
   1   15    4     1     4    1.1041E+05 -1.1440E+03   1.1155E+05  0.000E+00  0.000E+00  0.000E+00  4.69835E+01  1.540E-01  2.000E+01  2.000E+04 -5.720E-02
   1   16    5     1     5    1.1155E+05 -4.2474E+03   1.1580E+05  0.000E+00  0.000E+00  0.000E+00  4.65085E+01  1.562E-01  2.000E+01  2.000E+04 -2.124E-01
   1   16    6     1     6    1.1580E+05 -2.5022E+03   1.1830E+05  0.000E+00  0.000E+00  0.000E+00  4.60340E+01  1.590E-01  2.000E+01  2.000E+04 -1.251E-01
   1   16    7     1     7    1.1830E+05 -2.4058E+03   1.2071E+05  0.000E+00  0.000E+00  0.000E+00  4.55587E+01  1.610E-01  2.000E+01  2.000E+04 -1.203E-01
   1   16    8     1     8    1.2071E+05 -2.3732E+03   1.2308E+05  0.000E+00  0.000E+00  0.000E+00  4.50834E+01  1.629E-01  2.000E+01  2.000E+04 -1.187E-01
   1   16    9     1     9    1.2308E+05 -2.3468E+03   1.2543E+05  0.000E+00  0.000E+00  0.000E+00  4.46080E+01  1.648E-01  2.000E+01  2.000E+04 -1.173E-01
   1   16   10     1    10    1.2543E+05 -2.3130E+03   1.2774E+05  0.000E+00  0.000E+00  0.000E+00  4.41325E+01  1.666E-01  2.000E+01  2.000E+04 -1.156E-01
   1   16   11     1    11    1.2774E+05 -2.3003E+03   1.3004E+05  0.000E+00  0.000E+00  0.000E+00  4.36571E+01  1.684E-01  2.000E+01  2.000E+04 -1.150E-01
   1   16   12     1    12    1.3004E+05 -3.9714E+03   1.3401E+05  0.000E+00  0.000E+00  0.000E+00  4.31823E+01  1.709E-01  2.000E+01  2.000E+04 -1.986E-01
   1   15   13     1    13    1.3401E+05 -3.9195E+03   1.3793E+05  0.000E+00  0.000E+00  0.000E+00  4.27080E+01  1.739E-01  2.000E+01  2.000E+04 -1.960E-01
   1   14   14     1    14    1.3793E+05 -4.2517E+03   1.4219E+05  0.000E+00  0.000E+00  0.000E+00  4.22339E+01  1.771E-01  2.000E+01  2.000E+04 -2.126E-01
   1   13   15     1    15    1.4219E+05 -4.5960E+03   1.4678E+05  0.000E+00  0.000E+00  0.000E+00  4.17599E+01  1.804E-01  2.000E+01  2.000E+04 -2.298E-01
   1   12   16     1    16    1.4678E+05 -5.6610E+03   1.5244E+05  0.000E+00  0.000E+00  0.000E+00  4.12865E+01  1.842E-01  2.000E+01  2.000E+04 -2.831E-01
   1   12   17     1    17    1.5244E+05 -3.5839E+03   1.5603E+05  0.000E+00  0.000E+00  0.000E+00  4.08126E+01  1.876E-01  2.000E+01  2.000E+04 -1.792E-01
   1   12   18     1    18    1.5603E+05 -3.2998E+03   1.5933E+05  0.000E+00  0.000E+00  0.000E+00  4.03378E+01  1.901E-01  2.000E+01  2.000E+04 -1.650E-01
   1   12   19     1    19    1.5933E+05 -4.2554E+03   1.6358E+05  0.000E+00  0.000E+00  0.000E+00  3.98633E+01  1.928E-01  2.000E+01  2.000E+04 -2.128E-01
   1   13   20     1    20    1.6358E+05 -1.7534E+03   1.6533E+05  0.000E+00  0.000E+00  0.000E+00  3.93881E+01  1.950E-01  2.000E+01  2.000E+04 -8.767E-02
   1   14   21     1    21    1.6533E+05 -2.2893E+02   1.6556E+05  0.000E+00  0.000E+00  0.000E+00  3.89116E+01  1.957E-01  2.000E+01  2.000E+04 -1.145E-02
   1   14   22     1    22    1.6556E+05  4.8953E+03   1.6067E+05  0.000E+00  0.000E+00  0.000E+00  3.84326E+01  1.940E-01  2.000E+01  2.000E+04  2.448E-01
   1    9   30     2     1    5.0000E+04 -6.8396E+02   5.0684E+04  0.000E+00  0.000E+00  0.000E+00  4.02413E+01  1.163E-01  2.000E+01  2.000E+04 -3.420E-02
   1    9   29     2     2    5.0684E+04 -9.9589E+02   5.1680E+04  0.000E+00  0.000E+00  0.000E+00  3.99925E+01  1.175E-01  2.000E+01  2.000E+04 -4.979E-02
   1    9   28     2     3    5.1680E+04 -1.5075E+03   5.3187E+04  0.000E+00  0.000E+00  0.000E+00  3.97442E+01  1.192E-01  2.000E+01  2.000E+04 -7.538E-02
   1    9   27     2     4    5.3187E+04 -3.9502E+03   5.7138E+04  0.000E+00  0.000E+00  0.000E+00  3.94979E+01  1.229E-01  2.000E+01  2.000E+04 -1.975E-01
   1   10   26     2     5    5.7138E+04 -1.0486E+03   5.8186E+04  0.000E+00  0.000E+00  0.000E+00  3.92512E+01  1.262E-01  2.000E+01  2.000E+04 -5.243E-02
   1   11   25     2     6    5.8186E+04  1.4195E+02   5.8044E+04  0.000E+00  0.000E+00  0.000E+00  3.90018E+01  1.268E-01  2.000E+01  2.000E+04  7.098E-03
   1   12   24     2     7    5.8044E+04 -1.4528E+03   5.9497E+04  0.000E+00  0.000E+00  0.000E+00  3.87527E+01  1.277E-01  2.000E+01  2.000E+04 -7.264E-02
   1   13   23     2     8    5.9497E+04 -5.6584E+02   6.0063E+04  0.000E+00  0.000E+00  0.000E+00  3.85040E+01  1.290E-01  2.000E+01  2.000E+04 -2.829E-02
   1   14   22     2     9    6.0063E+04  1.3122E+03   5.8751E+04  0.000E+00  0.000E+00  0.000E+00  3.82535E+01  1.285E-01  2.000E+01  2.000E+04  6.561E-02
   1   14   22     3     1    2.1942E+05 -8.7539E+03   2.2817E+05  0.000E+00  0.000E+00  0.000E+00  3.77502E+01  1.946E-01  2.000E+01  2.000E+04 -4.377E-01
   1   15   23     3     2    2.2817E+05 -7.6398E+02   2.2894E+05  0.000E+00  0.000E+00  0.000E+00  3.68638E+01  1.971E-01  2.000E+01  2.000E+04 -3.820E-02
   1   15   24     3     3    2.2894E+05 -5.9681E+02   2.2953E+05  0.000E+00  0.000E+00  0.000E+00  3.59752E+01  1.975E-01  2.000E+01  2.000E+04 -2.984E-02
   1   15   25     3     4    2.2953E+05 -5.6693E+02   2.3010E+05  0.000E+00  0.000E+00  0.000E+00  3.50866E+01  1.978E-01  2.000E+01  2.000E+04 -2.835E-02
   1   15   26     3     5    2.3010E+05 -4.4130E+02   2.3054E+05  0.000E+00  0.000E+00  0.000E+00  3.41980E+01  1.980E-01  2.000E+01  2.000E+04 -2.206E-02
   1   16   27     3     6    2.3054E+05 -3.5326E+02   2.3090E+05  0.000E+00  0.000E+00  0.000E+00  3.33093E+01  1.982E-01  2.000E+01  2.000E+04 -1.766E-02
   1   17   28     3     7    2.3090E+05  3.6501E+03   2.2725E+05  0.000E+00  0.000E+00  0.000E+00  3.24196E+01  1.974E-01  2.000E+01  2.000E+04  1.825E-01
   1   18   29     3     8    2.2725E+05  4.1382E+01   2.2720E+05  0.000E+00  0.000E+00  0.000E+00  3.15297E+01  1.964E-01  2.000E+01  2.000E+04  2.069E-03
   1   18   30     3     9    2.2720E+05 -1.8098E+03   2.2901E+05  0.000E+00  0.000E+00  0.000E+00  3.06413E+01  1.969E-01  2.000E+01  2.000E+04 -9.049E-02



1
              HEAD IN LAYER   1 AT END OF TIME STEP   1 IN STRESS PERIOD    2
  ---------------------------------------------------------------------------

          1      2      3      4      5      6      7      8      9     10
         11     12     13     14     15     16     17     18     19     20
         21     22     23     24     25     26     27     28     29     30
 .........................................................................
   1  ****** ****** ****** ****** ****** ****** ****** ****** ****** ******
      ****** ****** ****** ****** ****** ****** ****** ****** ****** ******
      ****** ****** ****** ****** ****** ****** ****** ****** ****** ******
   2  ****** ****** ****** ****** ****** ****** ****** ****** ****** ******
      ****** ****** ****** ****** ****** ****** ****** ****** ****** ******
      ****** ****** ****** ****** ****** ****** ****** ****** ****** ******
   3  ****** ****** ****** ****** ****** ****** ****** ****** ****** ******
      ****** ****** ****** ****** ****** ****** ****** ****** ****** ******
      ****** ****** ****** ****** ****** ****** ****** ****** ****** ******
   4  ****** ****** ****** ****** ****** ****** ****** ****** ****** ******
      ****** ****** ****** ****** ****** ****** ****** ****** ****** ******
      ****** ****** ****** ****** ****** ****** ****** ****** ****** ******
   5  ****** ****** ****** ****** ****** ****** ****** ****** ****** ******
      ****** ****** ****** ****** ****** ****** ****** ****** ****** ******
      ****** ****** ****** ****** ****** ****** ****** ****** ****** ******
   6  ****** ****** ****** ****** ****** ****** ****** ****** ****** ******
      ****** ****** ****** ****** ****** ****** ****** ****** ****** ******
      ****** ****** ****** ****** ****** ****** ****** ****** ****** ******
   7  ****** ****** ****** ****** ****** ****** ****** ****** ****** ******
      ****** ****** ****** ****** ****** ****** ****** ****** ****** ******
      ****** ****** ****** ****** ****** ****** ****** ****** ****** ******
   8  ****** ****** ****** ****** ****** ****** ****** ****** ****** ******
      ****** ****** ****** ****** ****** ****** ****** ****** ****** ******
      ****** ****** ****** ****** ****** ****** ****** ****** ****** ******
   9  ****** ****** ****** ****** ****** ****** ****** ****** ****** ******
      ****** ****** ****** ****** ****** ****** ****** ****** ****** ******
      ****** ****** ****** ****** ****** ****** ****** ****** ****** ******
  10  ****** ****** ****** ****** ****** ****** ****** ****** ****** ******
      ****** ****** ****** ****** ****** ****** ****** ****** ****** ******
      ****** ****** ****** ****** ****** ****** ****** ****** ****** ******
  11  ****** ****** ****** ****** ****** ****** ****** ****** ****** ******
      ****** ****** ****** ****** ****** ****** ****** ****** ****** ******
      ****** ****** ****** ****** ****** ****** ****** ****** ****** ******
  12  ****** ****** ****** ****** ****** ****** ****** ****** ****** ******
      ****** ****** ****** ****** ****** ****** ****** ****** ****** ******
      ****** ****** ****** ****** ****** ****** ****** ****** ****** ******
  13  ****** ****** ****** ****** ****** ****** ****** ****** ****** ******
      ****** ****** ****** ****** ****** ****** ****** ****** ****** ******
      ****** ****** ****** ****** ****** ****** ****** ****** ****** ******
  14  ****** ****** ****** ****** ****** ****** ****** ****** ****** ******
      ****** ****** ****** ****** ****** ****** ****** ****** ****** ******
      ****** ****** ****** ****** ****** ****** ****** ****** ****** ******
  15  ****** ****** ****** ****** ****** ****** ****** ****** ****** ******
      ****** ****** ****** ****** ****** ****** ****** ****** ****** ******
      ****** ****** ****** ****** ****** ****** ****** ****** ****** ******
  16  ****** ****** ****** ****** ****** ****** ****** ****** ****** ******
      ****** ****** ****** ****** ****** ****** ****** ****** ****** ******
      ****** ****** ****** ****** ****** ****** ****** ****** ****** ******
  17  ****** ****** ****** ****** ****** ****** ****** ****** ****** ******
      ****** ****** ****** ****** ****** ****** ****** ****** ****** ******
      ****** ****** ****** ****** ****** ****** ****** ****** ****** ******
  18  ****** ****** ****** ****** ****** ****** ****** ****** ****** ******
      ****** ****** ****** ****** ****** ****** ****** ****** ****** ******
      ****** ****** ****** ****** ****** ****** ****** ****** ****** ******
  19  ****** ****** ****** ****** ****** ****** ****** ****** ****** ******
      ****** ****** ****** ****** ****** ****** ****** ****** ****** ******
      ****** ****** ****** ****** ****** ****** ****** ****** ****** ******
  20  ****** ****** ****** ****** ****** ****** ****** ****** ****** ******
      ****** ****** ****** ****** ****** ****** ****** ****** ****** ******
      ****** ****** ****** ****** ****** ****** ****** ****** ****** ******
  21  ****** ****** ****** ****** ****** ****** ****** ****** ****** ******
      ****** ****** ****** ****** ****** ****** ****** ****** ****** ******
      ****** ****** ****** ****** ****** ****** ****** ****** ****** ******
  22  ****** ****** ****** ****** ****** ****** ****** ****** ****** ******
      ****** ****** ****** ****** ****** ****** ****** ****** ****** ******
      ****** ****** ****** ****** ****** ****** ****** ****** ****** ******
  23  ****** ****** ****** ****** ****** ****** ****** ****** ****** ******
      ****** ****** ****** ****** ****** ****** ****** ****** ****** ******
      ****** ****** ****** ****** ****** ****** ****** ****** ****** ******
  24  ****** ****** ****** ****** ****** ****** ****** ****** ****** ******
      ****** ****** ****** ****** ****** ****** ****** ****** ****** ******
      ****** ****** ****** ****** ****** ****** ****** ****** ****** ******
  25  ****** ****** ****** ****** ****** ****** ****** ****** ****** ******
      ****** ****** ****** ****** ****** ****** ****** ****** ****** ******
      ****** ****** ****** ****** ****** ****** ****** ****** ****** ******

 HEAD WILL BE SAVED ON UNIT   51 AT END OF TIME STEP    1, STRESS PERIOD    2
1
  VOLUMETRIC BUDGET FOR ENTIRE MODEL AT END OF TIME STEP    1, STRESS PERIOD   2
  ------------------------------------------------------------------------------

     CUMULATIVE VOLUMES      L**3       RATES FOR THIS TIME STEP      L**3/T
     ------------------                 ------------------------

           IN:                                      IN:
           ---                                      ---
             STORAGE =    21832229.1339               STORAGE =       49950.8422
       CONSTANT HEAD =     2543112.2878         CONSTANT HEAD =       15881.8727
               WELLS =           0.0000                 WELLS =           0.0000
            RECHARGE =     6292800.0000              RECHARGE =       55200.0000
      STREAM LEAKAGE =     1324414.8861        STREAM LEAKAGE =       10040.9638

            TOTAL IN =    31992556.3078              TOTAL IN =      131073.6787

          OUT:                                     OUT:
          ----                                     ----
             STORAGE =           0.0000               STORAGE =           0.0000
       CONSTANT HEAD =           0.0000         CONSTANT HEAD =           0.0000
               WELLS =     7689492.2401                 WELLS =       42019.0833
            RECHARGE =           0.0000              RECHARGE =           0.0000
      STREAM LEAKAGE =    24303065.2886        STREAM LEAKAGE =       89054.6056

           TOTAL OUT =    31992557.5286             TOTAL OUT =      131073.6889

            IN - OUT =          -1.2209              IN - OUT =      -1.0244E-02

 PERCENT DISCREPANCY =          -0.00     PERCENT DISCREPANCY =          -0.00






         TIME SUMMARY AT END OF TIME STEP    1 IN STRESS PERIOD    2
                    SECONDS     MINUTES      HOURS       DAYS        YEARS
                    -----------------------------------------------------------
   TIME STEP LENGTH 7.86240E+06 1.31040E+05  2184.0      91.000     0.24914    
 STRESS PERIOD TIME 7.86240E+06 1.31040E+05  2184.0      91.000     0.24914    
         TOTAL TIME 1.58112E+07 2.63520E+05  4392.0      183.00     0.50103    
1
1
                            STRESS PERIOD NO.    3, LENGTH =   91.00000    
                            -----------------------------------------------

                              NUMBER OF TIME STEPS =     1

                               MULTIPLIER FOR DELT =     1.500

                            INITIAL TIME STEP SIZE =   91.00000    

 WELL NO.  LAYER   ROW   COL   STRESS RATE         
 --------------------------------------------------
      1      1     14      6       0.000    
      2      1      3      9       0.000    
      3      1     20     10       0.000    
      4      1     14     20       0.000    
      5      1     15     20     -0.1192E+05
      6      1     17     29     -0.1435E+05
      7      1     12     29      -6954.    
      8      1     12     26      -8791.    

      8 WELLS

                 RECHARGE =   0.00000    

 REUSING STREAM SEGMENT DATA FROM LAST STRESS PERIOD
 
 SOLVING FOR HEAD 


     7 CALLS TO PCG ROUTINE FOR TIME STEP   1 IN STRESS PERIOD    3
    27 TOTAL ITERATIONS

 OUTPUT CONTROL FOR STRESS PERIOD    3   TIME STEP    1
    SAVE BUDGET
    SAVE HEAD FOR ALL LAYERS
    PRINT HEAD FOR ALL LAYERS
 UBDSV2 SAVING "STREAMFLOW OUT  " ON UNIT  50 AT TIME STEP  1, STRESS PERIOD   3



 STREAM LISTING     PERIOD      3   STEP        1

 LAYER ROW COL. STREAM  RCH.  FLOW INTO     FLOW TO   FLOW OUT OF   OVRLND.     DIRECT     STREAM       STREAM     STREAM     STREAM   STREAMBED  STREAMBED
                SEG.NO.  NO.  STRM. RCH.    AQUIFER    STRM. RCH.    RUNOFF     PRECIP       ET          HEAD       DEPTH      WIDTH   CONDCTNC.   GRADIENT

   1   13    1     1     1    1.0000E+05 -2.7776E+03   1.0278E+05  0.000E+00  0.000E+00  0.000E+00  4.84072E+01  1.459E-01  2.000E+01  2.000E+04 -1.389E-01
   1   13    2     1     2    1.0278E+05 -3.8879E+03   1.0667E+05  0.000E+00  0.000E+00  0.000E+00  4.79328E+01  1.487E-01  2.000E+01  2.000E+04 -1.944E-01
   1   14    3     1     3    1.0667E+05 -6.5705E+02   1.0732E+05  0.000E+00  0.000E+00  0.000E+00  4.74575E+01  1.506E-01  2.000E+01  2.000E+04 -3.285E-02
   1   15    4     1     4    1.0732E+05 -6.3974E+02   1.0796E+05  0.000E+00  0.000E+00  0.000E+00  4.69807E+01  1.512E-01  2.000E+01  2.000E+04 -3.199E-02
   1   16    5     1     5    1.0796E+05 -2.4522E+03   1.1041E+05  0.000E+00  0.000E+00  0.000E+00  4.65048E+01  1.525E-01  2.000E+01  2.000E+04 -1.226E-01
   1   16    6     1     6    1.1041E+05 -1.4989E+03   1.1191E+05  0.000E+00  0.000E+00  0.000E+00  4.60291E+01  1.541E-01  2.000E+01  2.000E+04 -7.494E-02
   1   16    7     1     7    1.1191E+05 -1.4602E+03   1.1337E+05  0.000E+00  0.000E+00  0.000E+00  4.55531E+01  1.554E-01  2.000E+01  2.000E+04 -7.301E-02
   1   16    8     1     8    1.1337E+05 -1.4449E+03   1.1482E+05  0.000E+00  0.000E+00  0.000E+00  4.50770E+01  1.566E-01  2.000E+01  2.000E+04 -7.224E-02
   1   16    9     1     9    1.1482E+05 -1.4218E+03   1.1624E+05  0.000E+00  0.000E+00  0.000E+00  4.46009E+01  1.577E-01  2.000E+01  2.000E+04 -7.109E-02
   1   16   10     1    10    1.1624E+05 -1.3867E+03   1.1763E+05  0.000E+00  0.000E+00  0.000E+00  4.41248E+01  1.589E-01  2.000E+01  2.000E+04 -6.933E-02
   1   16   11     1    11    1.1763E+05 -1.3653E+03   1.1899E+05  0.000E+00  0.000E+00  0.000E+00  4.36486E+01  1.600E-01  2.000E+01  2.000E+04 -6.826E-02
   1   16   12     1    12    1.1899E+05 -2.3426E+03   1.2133E+05  0.000E+00  0.000E+00  0.000E+00  4.31729E+01  1.615E-01  2.000E+01  2.000E+04 -1.171E-01
   1   15   13     1    13    1.2133E+05 -2.2629E+03   1.2360E+05  0.000E+00  0.000E+00  0.000E+00  4.26974E+01  1.634E-01  2.000E+01  2.000E+04 -1.131E-01
   1   14   14     1    14    1.2360E+05 -2.5578E+03   1.2616E+05  0.000E+00  0.000E+00  0.000E+00  4.22221E+01  1.653E-01  2.000E+01  2.000E+04 -1.279E-01
   1   13   15     1    15    1.2616E+05 -2.9101E+03   1.2907E+05  0.000E+00  0.000E+00  0.000E+00  4.17470E+01  1.674E-01  2.000E+01  2.000E+04 -1.455E-01
   1   12   16     1    16    1.2907E+05 -3.9426E+03   1.3301E+05  0.000E+00  0.000E+00  0.000E+00  4.12724E+01  1.701E-01  2.000E+01  2.000E+04 -1.971E-01
   1   12   17     1    17    1.3301E+05 -2.3295E+03   1.3534E+05  0.000E+00  0.000E+00  0.000E+00  4.07976E+01  1.726E-01  2.000E+01  2.000E+04 -1.165E-01
   1   12   18     1    18    1.3534E+05 -2.0615E+03   1.3740E+05  0.000E+00  0.000E+00  0.000E+00  4.03220E+01  1.742E-01  2.000E+01  2.000E+04 -1.031E-01
   1   12   19     1    19    1.3740E+05 -2.7086E+03   1.4011E+05  0.000E+00  0.000E+00  0.000E+00  3.98465E+01  1.761E-01  2.000E+01  2.000E+04 -1.354E-01
   1   13   20     1    20    1.4011E+05 -2.9920E+02   1.4041E+05  0.000E+00  0.000E+00  0.000E+00  3.93704E+01  1.772E-01  2.000E+01  2.000E+04 -1.496E-02
   1   14   21     1    21    1.4041E+05  1.2831E+03   1.3912E+05  0.000E+00  0.000E+00  0.000E+00  3.88927E+01  1.768E-01  2.000E+01  2.000E+04  6.416E-02
   1   14   22     1    22    1.3912E+05  5.2680E+03   1.3386E+05  0.000E+00  0.000E+00  0.000E+00  3.84130E+01  1.743E-01  2.000E+01  2.000E+04  2.634E-01
   1    9   30     2     1    5.0000E+04  5.6150E+02   4.9439E+04  0.000E+00  0.000E+00  0.000E+00  4.02405E+01  1.155E-01  2.000E+01  2.000E+04  2.807E-02
   1    9   29     2     2    4.9439E+04  2.4291E+02   4.9196E+04  0.000E+00  0.000E+00  0.000E+00  3.99899E+01  1.149E-01  2.000E+01  2.000E+04  1.215E-02
   1    9   28     2     3    4.9196E+04 -2.6708E+02   4.9463E+04  0.000E+00  0.000E+00  0.000E+00  3.97399E+01  1.149E-01  2.000E+01  2.000E+04 -1.335E-02
   1    9   27     2     4    4.9463E+04 -2.2110E+03   5.1674E+04  0.000E+00  0.000E+00  0.000E+00  3.94917E+01  1.167E-01  2.000E+01  2.000E+04 -1.106E-01
   1   10   26     2     5    5.1674E+04  6.1164E+02   5.1062E+04  0.000E+00  0.000E+00  0.000E+00  3.92428E+01  1.178E-01  2.000E+01  2.000E+04  3.058E-02
   1   11   25     2     6    5.1062E+04  1.6904E+03   4.9372E+04  0.000E+00  0.000E+00  0.000E+00  3.89912E+01  1.162E-01  2.000E+01  2.000E+04  8.452E-02
   1   12   24     2     7    4.9372E+04 -9.1479E+01   4.9463E+04  0.000E+00  0.000E+00  0.000E+00  3.87401E+01  1.151E-01  2.000E+01  2.000E+04 -4.574E-03
   1   13   23     2     8    4.9463E+04 -2.2960E+02   4.9693E+04  0.000E+00  0.000E+00  0.000E+00  3.84903E+01  1.153E-01  2.000E+01  2.000E+04 -1.148E-02
   1   14   22     2     9    4.9693E+04  1.7922E+03   4.7901E+04  0.000E+00  0.000E+00  0.000E+00  3.82392E+01  1.142E-01  2.000E+01  2.000E+04  8.961E-02
   1   14   22     3     1    1.8176E+05 -8.3972E+03   1.9015E+05  0.000E+00  0.000E+00  0.000E+00  3.77297E+01  1.742E-01  2.000E+01  2.000E+04 -4.199E-01
   1   15   23     3     2    1.9015E+05 -3.5973E+02   1.9051E+05  0.000E+00  0.000E+00  0.000E+00  3.68433E+01  1.766E-01  2.000E+01  2.000E+04 -1.799E-02
   1   15   24     3     3    1.9051E+05 -2.6509E+02   1.9078E+05  0.000E+00  0.000E+00  0.000E+00  3.59546E+01  1.768E-01  2.000E+01  2.000E+04 -1.325E-02
   1   15   25     3     4    1.9078E+05 -2.1515E+02   1.9099E+05  0.000E+00  0.000E+00  0.000E+00  3.50658E+01  1.769E-01  2.000E+01  2.000E+04 -1.076E-02
   1   15   26     3     5    1.9099E+05 -7.8425E+00   1.9100E+05  0.000E+00  0.000E+00  0.000E+00  3.41770E+01  1.770E-01  2.000E+01  2.000E+04 -3.921E-04
   1   16   27     3     6    1.9100E+05  1.4212E+02   1.9086E+05  0.000E+00  0.000E+00  0.000E+00  3.32881E+01  1.769E-01  2.000E+01  2.000E+04  7.106E-03
   1   17   28     3     7    1.9086E+05  5.1836E+03   1.8568E+05  0.000E+00  0.000E+00  0.000E+00  3.23977E+01  1.755E-01  2.000E+01  2.000E+04  2.592E-01
   1   18   29     3     8    1.8568E+05  1.6205E+03   1.8406E+05  0.000E+00  0.000E+00  0.000E+00  3.15069E+01  1.735E-01  2.000E+01  2.000E+04  8.102E-02
   1   18   30     3     9    1.8406E+05 -6.1014E+02   1.8467E+05  0.000E+00  0.000E+00  0.000E+00  3.06177E+01  1.733E-01  2.000E+01  2.000E+04 -3.051E-02



1
              HEAD IN LAYER   1 AT END OF TIME STEP   1 IN STRESS PERIOD    3
  ---------------------------------------------------------------------------

          1      2      3      4      5      6      7      8      9     10
         11     12     13     14     15     16     17     18     19     20
         21     22     23     24     25     26     27     28     29     30
 .........................................................................
   1  ****** ****** ****** ****** ****** ****** ****** ****** ****** ******
      ****** ****** ****** ****** ****** ****** ****** ****** ****** ******
      ****** ****** ****** ****** ****** ****** ****** ****** ****** ******
   2  ****** ****** ****** ****** ****** ****** ****** ****** ****** ******
      ****** ****** ****** ****** ****** ****** ****** ****** ****** ******
      ****** ****** ****** ****** ****** ****** ****** ****** ****** ******
   3  ****** ****** ****** ****** ****** ****** ****** ****** ****** ******
      ****** ****** ****** ****** ****** ****** ****** ****** ****** ******
      ****** ****** ****** ****** ****** ****** ****** ****** ****** ******
   4  ****** ****** ****** ****** ****** ****** ****** ****** ****** ******
      ****** ****** ****** ****** ****** ****** ****** ****** ****** ******
      ****** ****** ****** ****** ****** ****** ****** ****** ****** ******
   5  ****** ****** ****** ****** ****** ****** ****** ****** ****** ******
      ****** ****** ****** ****** ****** ****** ****** ****** ****** ******
      ****** ****** ****** ****** ****** ****** ****** ****** ****** ******
   6  ****** ****** ****** ****** ****** ****** ****** ****** ****** ******
      ****** ****** ****** ****** ****** ****** ****** ****** ****** ******
      ****** ****** ****** ****** ****** ****** ****** ****** ****** ******
   7  ****** ****** ****** ****** ****** ****** ****** ****** ****** ******
      ****** ****** ****** ****** ****** ****** ****** ****** ****** ******
      ****** ****** ****** ****** ****** ****** ****** ****** ****** ******
   8  ****** ****** ****** ****** ****** ****** ****** ****** ****** ******
      ****** ****** ****** ****** ****** ****** ****** ****** ****** ******
      ****** ****** ****** ****** ****** ****** ****** ****** ****** ******
   9  ****** ****** ****** ****** ****** ****** ****** ****** ****** ******
      ****** ****** ****** ****** ****** ****** ****** ****** ****** ******
      ****** ****** ****** ****** ****** ****** ****** ****** ****** ******
  10  ****** ****** ****** ****** ****** ****** ****** ****** ****** ******
      ****** ****** ****** ****** ****** ****** ****** ****** ****** ******
      ****** ****** ****** ****** ****** ****** ****** ****** ****** ******
  11  ****** ****** ****** ****** ****** ****** ****** ****** ****** ******
      ****** ****** ****** ****** ****** ****** ****** ****** ****** ******
      ****** ****** ****** ****** ****** ****** ****** ****** ****** ******
  12  ****** ****** ****** ****** ****** ****** ****** ****** ****** ******
      ****** ****** ****** ****** ****** ****** ****** ****** ****** ******
      ****** ****** ****** ****** ****** ****** ****** ****** ****** ******
  13  ****** ****** ****** ****** ****** ****** ****** ****** ****** ******
      ****** ****** ****** ****** ****** ****** ****** ****** ****** ******
      ****** ****** ****** ****** ****** ****** ****** ****** ****** ******
  14  ****** ****** ****** ****** ****** ****** ****** ****** ****** ******
      ****** ****** ****** ****** ****** ****** ****** ****** ****** ******
      ****** ****** ****** ****** ****** ****** ****** ****** ****** ******
  15  ****** ****** ****** ****** ****** ****** ****** ****** ****** ******
      ****** ****** ****** ****** ****** ****** ****** ****** ****** ******
      ****** ****** ****** ****** ****** ****** ****** ****** ****** ******
  16  ****** ****** ****** ****** ****** ****** ****** ****** ****** ******
      ****** ****** ****** ****** ****** ****** ****** ****** ****** ******
      ****** ****** ****** ****** ****** ****** ****** ****** ****** ******
  17  ****** ****** ****** ****** ****** ****** ****** ****** ****** ******
      ****** ****** ****** ****** ****** ****** ****** ****** ****** ******
      ****** ****** ****** ****** ****** ****** ****** ****** ****** ******
  18  ****** ****** ****** ****** ****** ****** ****** ****** ****** ******
      ****** ****** ****** ****** ****** ****** ****** ****** ****** ******
      ****** ****** ****** ****** ****** ****** ****** ****** ****** ******
  19  ****** ****** ****** ****** ****** ****** ****** ****** ****** ******
      ****** ****** ****** ****** ****** ****** ****** ****** ****** ******
      ****** ****** ****** ****** ****** ****** ****** ****** ****** ******
  20  ****** ****** ****** ****** ****** ****** ****** ****** ****** ******
      ****** ****** ****** ****** ****** ****** ****** ****** ****** ******
      ****** ****** ****** ****** ****** ****** ****** ****** ****** ******
  21  ****** ****** ****** ****** ****** ****** ****** ****** ****** ******
      ****** ****** ****** ****** ****** ****** ****** ****** ****** ******
      ****** ****** ****** ****** ****** ****** ****** ****** ****** ******
  22  ****** ****** ****** ****** ****** ****** ****** ****** ****** ******
      ****** ****** ****** ****** ****** ****** ****** ****** ****** ******
      ****** ****** ****** ****** ****** ****** ****** ****** ****** ******
  23  ****** ****** ****** ****** ****** ****** ****** ****** ****** ******
      ****** ****** ****** ****** ****** ****** ****** ****** ****** ******
      ****** ****** ****** ****** ****** ****** ****** ****** ****** ******
  24  ****** ****** ****** ****** ****** ****** ****** ****** ****** ******
      ****** ****** ****** ****** ****** ****** ****** ****** ****** ******
      ****** ****** ****** ****** ****** ****** ****** ****** ****** ******
  25  ****** ****** ****** ****** ****** ****** ****** ****** ****** ******
      ****** ****** ****** ****** ****** ****** ****** ****** ****** ******
      ****** ****** ****** ****** ****** ****** ****** ****** ****** ******

 HEAD WILL BE SAVED ON UNIT   51 AT END OF TIME STEP    1, STRESS PERIOD    3
1
  VOLUMETRIC BUDGET FOR ENTIRE MODEL AT END OF TIME STEP    1, STRESS PERIOD   3
  ------------------------------------------------------------------------------

     CUMULATIVE VOLUMES      L**3       RATES FOR THIS TIME STEP      L**3/T
     ------------------                 ------------------------

           IN:                                      IN:
           ---                                      ---
             STORAGE =    26621547.2631               STORAGE =       52629.8696
       CONSTANT HEAD =     4732109.4330         CONSTANT HEAD =       24054.9137
               WELLS =           0.0000                 WELLS =           0.0000
            RECHARGE =     6292800.0000              RECHARGE =           0.0000
      STREAM LEAKAGE =     2998438.3200        STREAM LEAKAGE =       18395.8619

            TOTAL IN =    40644895.0162              TOTAL IN =       95080.6451

          OUT:                                     OUT:
          ----                                     ----
             STORAGE =           0.0000               STORAGE =           0.0000
       CONSTANT HEAD =           0.0000         CONSTANT HEAD =           0.0000
               WELLS =    11513228.8185                 WELLS =       42019.0833
            RECHARGE =           0.0000              RECHARGE =           0.0000
      STREAM LEAKAGE =    29131668.0872        STREAM LEAKAGE =       53061.5692

           TOTAL OUT =    40644896.9056             TOTAL OUT =       95080.6525

            IN - OUT =          -1.8895              IN - OUT =      -7.3473E-03

 PERCENT DISCREPANCY =          -0.00     PERCENT DISCREPANCY =          -0.00






         TIME SUMMARY AT END OF TIME STEP    1 IN STRESS PERIOD    3
                    SECONDS     MINUTES      HOURS       DAYS        YEARS
                    -----------------------------------------------------------
   TIME STEP LENGTH 7.86240E+06 1.31040E+05  2184.0      91.000     0.24914    
 STRESS PERIOD TIME 7.86240E+06 1.31040E+05  2184.0      91.000     0.24914    
         TOTAL TIME 2.36736E+07 3.94560E+05  6576.0      274.00     0.75017    
1
1
                            STRESS PERIOD NO.    4, LENGTH =   91.00000    
                            -----------------------------------------------

                              NUMBER OF TIME STEPS =     1

                               MULTIPLIER FOR DELT =     1.500

                            INITIAL TIME STEP SIZE =   91.00000    

 WELL NO.  LAYER   ROW   COL   STRESS RATE         
 --------------------------------------------------
      1      1     14      6       0.000    
      2      1      3      9       0.000    
      3      1     20     10       0.000    
      4      1     14     20       0.000    
      5      1     15     20     -0.1192E+05
      6      1     17     29     -0.1435E+05
      7      1     12     29      -6954.    
      8      1     12     26      -8791.    

      8 WELLS

                 RECHARGE =  1.000000E-03

 REUSING STREAM SEGMENT DATA FROM LAST STRESS PERIOD
 
 SOLVING FOR HEAD 


     7 CALLS TO PCG ROUTINE FOR TIME STEP   1 IN STRESS PERIOD    4
    24 TOTAL ITERATIONS

 OUTPUT CONTROL FOR STRESS PERIOD    4   TIME STEP    1
    SAVE BUDGET
    SAVE HEAD FOR ALL LAYERS
    PRINT HEAD FOR ALL LAYERS
 UBDSV2 SAVING "STREAMFLOW OUT  " ON UNIT  50 AT TIME STEP  1, STRESS PERIOD   4



 STREAM LISTING     PERIOD      4   STEP        1

 LAYER ROW COL. STREAM  RCH.  FLOW INTO     FLOW TO   FLOW OUT OF   OVRLND.     DIRECT     STREAM       STREAM     STREAM     STREAM   STREAMBED  STREAMBED
                SEG.NO.  NO.  STRM. RCH.    AQUIFER    STRM. RCH.    RUNOFF     PRECIP       ET          HEAD       DEPTH      WIDTH   CONDCTNC.   GRADIENT

   1   13    1     1     1    1.0000E+05 -2.5562E+03   1.0256E+05  0.000E+00  0.000E+00  0.000E+00  4.84071E+01  1.458E-01  2.000E+01  2.000E+04 -1.278E-01
   1   13    2     1     2    1.0256E+05 -3.6299E+03   1.0619E+05  0.000E+00  0.000E+00  0.000E+00  4.79325E+01  1.484E-01  2.000E+01  2.000E+04 -1.815E-01
   1   14    3     1     3    1.0619E+05 -6.3026E+02   1.0682E+05  0.000E+00  0.000E+00  0.000E+00  4.74570E+01  1.502E-01  2.000E+01  2.000E+04 -3.151E-02
   1   15    4     1     4    1.0682E+05 -6.0277E+02   1.0742E+05  0.000E+00  0.000E+00  0.000E+00  4.69803E+01  1.507E-01  2.000E+01  2.000E+04 -3.014E-02
   1   16    5     1     5    1.0742E+05 -2.1524E+03   1.0957E+05  0.000E+00  0.000E+00  0.000E+00  4.65042E+01  1.519E-01  2.000E+01  2.000E+04 -1.076E-01
   1   16    6     1     6    1.0957E+05 -1.3521E+03   1.1092E+05  0.000E+00  0.000E+00  0.000E+00  4.60284E+01  1.534E-01  2.000E+01  2.000E+04 -6.761E-02
   1   16    7     1     7    1.1092E+05 -1.3248E+03   1.1225E+05  0.000E+00  0.000E+00  0.000E+00  4.55522E+01  1.545E-01  2.000E+01  2.000E+04 -6.624E-02
   1   16    8     1     8    1.1225E+05 -1.3137E+03   1.1356E+05  0.000E+00  0.000E+00  0.000E+00  4.50760E+01  1.556E-01  2.000E+01  2.000E+04 -6.568E-02
   1   16    9     1     9    1.1356E+05 -1.2934E+03   1.1486E+05  0.000E+00  0.000E+00  0.000E+00  4.45998E+01  1.567E-01  2.000E+01  2.000E+04 -6.467E-02
   1   16   10     1    10    1.1486E+05 -1.2613E+03   1.1612E+05  0.000E+00  0.000E+00  0.000E+00  4.41236E+01  1.577E-01  2.000E+01  2.000E+04 -6.307E-02
   1   16   11     1    11    1.1612E+05 -1.2393E+03   1.1736E+05  0.000E+00  0.000E+00  0.000E+00  4.36474E+01  1.587E-01  2.000E+01  2.000E+04 -6.196E-02
   1   16   12     1    12    1.1736E+05 -2.0786E+03   1.1943E+05  0.000E+00  0.000E+00  0.000E+00  4.31714E+01  1.601E-01  2.000E+01  2.000E+04 -1.039E-01
   1   15   13     1    13    1.1943E+05 -2.0259E+03   1.2146E+05  0.000E+00  0.000E+00  0.000E+00  4.26958E+01  1.617E-01  2.000E+01  2.000E+04 -1.013E-01
   1   14   14     1    14    1.2146E+05 -2.3056E+03   1.2377E+05  0.000E+00  0.000E+00  0.000E+00  4.22203E+01  1.635E-01  2.000E+01  2.000E+04 -1.153E-01
   1   13   15     1    15    1.2377E+05 -2.6405E+03   1.2641E+05  0.000E+00  0.000E+00  0.000E+00  4.17450E+01  1.654E-01  2.000E+01  2.000E+04 -1.320E-01
   1   12   16     1    16    1.2641E+05 -3.5919E+03   1.3000E+05  0.000E+00  0.000E+00  0.000E+00  4.12702E+01  1.679E-01  2.000E+01  2.000E+04 -1.796E-01
   1   12   17     1    17    1.3000E+05 -2.1189E+03   1.3212E+05  0.000E+00  0.000E+00  0.000E+00  4.07951E+01  1.701E-01  2.000E+01  2.000E+04 -1.059E-01
   1   12   18     1    18    1.3212E+05 -1.8658E+03   1.3398E+05  0.000E+00  0.000E+00  0.000E+00  4.03194E+01  1.717E-01  2.000E+01  2.000E+04 -9.329E-02
   1   12   19     1    19    1.3398E+05 -2.4682E+03   1.3645E+05  0.000E+00  0.000E+00  0.000E+00  3.98438E+01  1.734E-01  2.000E+01  2.000E+04 -1.234E-01
   1   13   20     1    20    1.3645E+05 -1.3860E+02   1.3659E+05  0.000E+00  0.000E+00  0.000E+00  3.93675E+01  1.744E-01  2.000E+01  2.000E+04 -6.930E-03
   1   14   21     1    21    1.3659E+05  1.5156E+03   1.3507E+05  0.000E+00  0.000E+00  0.000E+00  3.88897E+01  1.738E-01  2.000E+01  2.000E+04  7.578E-02
   1   14   22     1    22    1.3507E+05  5.3045E+03   1.2977E+05  0.000E+00  0.000E+00  0.000E+00  3.84098E+01  1.712E-01  2.000E+01  2.000E+04  2.652E-01
   1    9   30     2     1    5.0000E+04  6.5316E+02   4.9347E+04  0.000E+00  0.000E+00  0.000E+00  4.02404E+01  1.154E-01  2.000E+01  2.000E+04  3.266E-02
   1    9   29     2     2    4.9347E+04  3.4015E+02   4.9007E+04  0.000E+00  0.000E+00  0.000E+00  3.99897E+01  1.147E-01  2.000E+01  2.000E+04  1.701E-02
   1    9   28     2     3    4.9007E+04 -1.5302E+02   4.9160E+04  0.000E+00  0.000E+00  0.000E+00  3.97396E+01  1.146E-01  2.000E+01  2.000E+04 -7.651E-03
   1    9   27     2     4    4.9160E+04 -1.9607E+03   5.1120E+04  0.000E+00  0.000E+00  0.000E+00  3.94911E+01  1.161E-01  2.000E+01  2.000E+04 -9.803E-02
   1   10   26     2     5    5.1120E+04  7.6221E+02   5.0358E+04  0.000E+00  0.000E+00  0.000E+00  3.92419E+01  1.169E-01  2.000E+01  2.000E+04  3.811E-02
   1   11   25     2     6    5.0358E+04  1.8023E+03   4.8556E+04  0.000E+00  0.000E+00  0.000E+00  3.89901E+01  1.151E-01  2.000E+01  2.000E+04  9.012E-02
   1   12   24     2     7    4.8556E+04 -1.0983E+00   4.8557E+04  0.000E+00  0.000E+00  0.000E+00  3.87388E+01  1.138E-01  2.000E+01  2.000E+04 -5.492E-05
   1   13   23     2     8    4.8557E+04 -2.5618E+02   4.8813E+04  0.000E+00  0.000E+00  0.000E+00  3.84890E+01  1.140E-01  2.000E+01  2.000E+04 -1.281E-02
   1   14   22     2     9    4.8813E+04  1.8656E+03   4.6947E+04  0.000E+00  0.000E+00  0.000E+00  3.82379E+01  1.129E-01  2.000E+01  2.000E+04  9.328E-02
   1   14   22     3     1    1.7672E+05 -8.3551E+03   1.8507E+05  0.000E+00  0.000E+00  0.000E+00  3.77269E+01  1.713E-01  2.000E+01  2.000E+04 -4.178E-01
   1   15   23     3     2    1.8507E+05 -3.3339E+02   1.8541E+05  0.000E+00  0.000E+00  0.000E+00  3.68404E+01  1.738E-01  2.000E+01  2.000E+04 -1.667E-02
   1   15   24     3     3    1.8541E+05 -2.6153E+02   1.8567E+05  0.000E+00  0.000E+00  0.000E+00  3.59517E+01  1.739E-01  2.000E+01  2.000E+04 -1.308E-02
   1   15   25     3     4    1.8567E+05 -2.1040E+02   1.8588E+05  0.000E+00  0.000E+00  0.000E+00  3.50629E+01  1.741E-01  2.000E+01  2.000E+04 -1.052E-02
   1   15   26     3     5    1.8588E+05 -8.8212E+00   1.8589E+05  0.000E+00  0.000E+00  0.000E+00  3.41741E+01  1.741E-01  2.000E+01  2.000E+04 -4.411E-04
   1   16   27     3     6    1.8589E+05  1.4934E+02   1.8574E+05  0.000E+00  0.000E+00  0.000E+00  3.32852E+01  1.741E-01  2.000E+01  2.000E+04  7.467E-03
   1   17   28     3     7    1.8574E+05  5.2750E+03   1.8046E+05  0.000E+00  0.000E+00  0.000E+00  3.23948E+01  1.725E-01  2.000E+01  2.000E+04  2.638E-01
   1   18   29     3     8    1.8046E+05  1.8534E+03   1.7861E+05  0.000E+00  0.000E+00  0.000E+00  3.15039E+01  1.705E-01  2.000E+01  2.000E+04  9.267E-02
   1   18   30     3     9    1.7861E+05 -4.8740E+02   1.7910E+05  0.000E+00  0.000E+00  0.000E+00  3.06146E+01  1.701E-01  2.000E+01  2.000E+04 -2.437E-02



1
              HEAD IN LAYER   1 AT END OF TIME STEP   1 IN STRESS PERIOD    4
  ---------------------------------------------------------------------------

          1      2      3      4      5      6      7      8      9     10
         11     12     13     14     15     16     17     18     19     20
         21     22     23     24     25     26     27     28     29     30
 .........................................................................
   1  ****** ****** ****** ****** ****** ****** ****** ****** ****** ******
      ****** ****** ****** ****** ****** ****** ****** ****** ****** ******
      ****** ****** ****** ****** ****** ****** ****** ****** ****** ******
   2  ****** ****** ****** ****** ****** ****** ****** ****** ****** ******
      ****** ****** ****** ****** ****** ****** ****** ****** ****** ******
      ****** ****** ****** ****** ****** ****** ****** ****** ****** ******
   3  ****** ****** ****** ****** ****** ****** ****** ****** ****** ******
      ****** ****** ****** ****** ****** ****** ****** ****** ****** ******
      ****** ****** ****** ****** ****** ****** ****** ****** ****** ******
   4  ****** ****** ****** ****** ****** ****** ****** ****** ****** ******
      ****** ****** ****** ****** ****** ****** ****** ****** ****** ******
      ****** ****** ****** ****** ****** ****** ****** ****** ****** ******
   5  ****** ****** ****** ****** ****** ****** ****** ****** ****** ******
      ****** ****** ****** ****** ****** ****** ****** ****** ****** ******
      ****** ****** ****** ****** ****** ****** ****** ****** ****** ******
   6  ****** ****** ****** ****** ****** ****** ****** ****** ****** ******
      ****** ****** ****** ****** ****** ****** ****** ****** ****** ******
      ****** ****** ****** ****** ****** ****** ****** ****** ****** ******
   7  ****** ****** ****** ****** ****** ****** ****** ****** ****** ******
      ****** ****** ****** ****** ****** ****** ****** ****** ****** ******
      ****** ****** ****** ****** ****** ****** ****** ****** ****** ******
   8  ****** ****** ****** ****** ****** ****** ****** ****** ****** ******
      ****** ****** ****** ****** ****** ****** ****** ****** ****** ******
      ****** ****** ****** ****** ****** ****** ****** ****** ****** ******
   9  ****** ****** ****** ****** ****** ****** ****** ****** ****** ******
      ****** ****** ****** ****** ****** ****** ****** ****** ****** ******
      ****** ****** ****** ****** ****** ****** ****** ****** ****** ******
  10  ****** ****** ****** ****** ****** ****** ****** ****** ****** ******
      ****** ****** ****** ****** ****** ****** ****** ****** ****** ******
      ****** ****** ****** ****** ****** ****** ****** ****** ****** ******
  11  ****** ****** ****** ****** ****** ****** ****** ****** ****** ******
      ****** ****** ****** ****** ****** ****** ****** ****** ****** ******
      ****** ****** ****** ****** ****** ****** ****** ****** ****** ******
  12  ****** ****** ****** ****** ****** ****** ****** ****** ****** ******
      ****** ****** ****** ****** ****** ****** ****** ****** ****** ******
      ****** ****** ****** ****** ****** ****** ****** ****** ****** ******
  13  ****** ****** ****** ****** ****** ****** ****** ****** ****** ******
      ****** ****** ****** ****** ****** ****** ****** ****** ****** ******
      ****** ****** ****** ****** ****** ****** ****** ****** ****** ******
  14  ****** ****** ****** ****** ****** ****** ****** ****** ****** ******
      ****** ****** ****** ****** ****** ****** ****** ****** ****** ******
      ****** ****** ****** ****** ****** ****** ****** ****** ****** ******
  15  ****** ****** ****** ****** ****** ****** ****** ****** ****** ******
      ****** ****** ****** ****** ****** ****** ****** ****** ****** ******
      ****** ****** ****** ****** ****** ****** ****** ****** ****** ******
  16  ****** ****** ****** ****** ****** ****** ****** ****** ****** ******
      ****** ****** ****** ****** ****** ****** ****** ****** ****** ******
      ****** ****** ****** ****** ****** ****** ****** ****** ****** ******
  17  ****** ****** ****** ****** ****** ****** ****** ****** ****** ******
      ****** ****** ****** ****** ****** ****** ****** ****** ****** ******
      ****** ****** ****** ****** ****** ****** ****** ****** ****** ******
  18  ****** ****** ****** ****** ****** ****** ****** ****** ****** ******
      ****** ****** ****** ****** ****** ****** ****** ****** ****** ******
      ****** ****** ****** ****** ****** ****** ****** ****** ****** ******
  19  ****** ****** ****** ****** ****** ****** ****** ****** ****** ******
      ****** ****** ****** ****** ****** ****** ****** ****** ****** ******
      ****** ****** ****** ****** ****** ****** ****** ****** ****** ******
  20  ****** ****** ****** ****** ****** ****** ****** ****** ****** ******
      ****** ****** ****** ****** ****** ****** ****** ****** ****** ******
      ****** ****** ****** ****** ****** ****** ****** ****** ****** ******
  21  ****** ****** ****** ****** ****** ****** ****** ****** ****** ******
      ****** ****** ****** ****** ****** ****** ****** ****** ****** ******
      ****** ****** ****** ****** ****** ****** ****** ****** ****** ******
  22  ****** ****** ****** ****** ****** ****** ****** ****** ****** ******
      ****** ****** ****** ****** ****** ****** ****** ****** ****** ******
      ****** ****** ****** ****** ****** ****** ****** ****** ****** ******
  23  ****** ****** ****** ****** ****** ****** ****** ****** ****** ******
      ****** ****** ****** ****** ****** ****** ****** ****** ****** ******
      ****** ****** ****** ****** ****** ****** ****** ****** ****** ******
  24  ****** ****** ****** ****** ****** ****** ****** ****** ****** ******
      ****** ****** ****** ****** ****** ****** ****** ****** ****** ******
      ****** ****** ****** ****** ****** ****** ****** ****** ****** ******
  25  ****** ****** ****** ****** ****** ****** ****** ****** ****** ******
      ****** ****** ****** ****** ****** ****** ****** ****** ****** ******
      ****** ****** ****** ****** ****** ****** ****** ****** ****** ******

 HEAD WILL BE SAVED ON UNIT   51 AT END OF TIME STEP    1, STRESS PERIOD    4
1
  VOLUMETRIC BUDGET FOR ENTIRE MODEL AT END OF TIME STEP    1, STRESS PERIOD   4
  ------------------------------------------------------------------------------

     CUMULATIVE VOLUMES      L**3       RATES FOR THIS TIME STEP      L**3/T
     ------------------                 ------------------------

           IN:                                      IN:
           ---                                      ---
             STORAGE =    28176560.9354               STORAGE =       17088.0623
       CONSTANT HEAD =     7137342.0885         CONSTANT HEAD =       26431.1281
               WELLS =           0.0000                 WELLS =           0.0000
            RECHARGE =     8804400.0000              RECHARGE =       27600.0000
      STREAM LEAKAGE =     4774881.8886        STREAM LEAKAGE =       19521.3579

            TOTAL IN =    48893184.9126              TOTAL IN =       90640.5483

          OUT:                                     OUT:
          ----                                     ----
             STORAGE =         330.3621               STORAGE =           3.6304
       CONSTANT HEAD =           0.0000         CONSTANT HEAD =           0.0000
               WELLS =    15336965.3969                 WELLS =       42019.0833
            RECHARGE =           0.0000              RECHARGE =           0.0000
      STREAM LEAKAGE =    33555891.1467        STREAM LEAKAGE =       48617.8358

           TOTAL OUT =    48893186.9056             TOTAL OUT =       90640.5495

            IN - OUT =          -1.9930              IN - OUT =      -1.1383E-03

 PERCENT DISCREPANCY =          -0.00     PERCENT DISCREPANCY =          -0.00






         TIME SUMMARY AT END OF TIME STEP    1 IN STRESS PERIOD    4
                    SECONDS     MINUTES      HOURS       DAYS        YEARS
                    -----------------------------------------------------------
   TIME STEP LENGTH 7.86240E+06 1.31040E+05  2184.0      91.000     0.24914    
 STRESS PERIOD TIME 7.86240E+06 1.31040E+05  2184.0      91.000     0.24914    
         TOTAL TIME 3.15360E+07 5.25600E+05  8760.0      365.00     0.99932    
1
1
                            STRESS PERIOD NO.    5, LENGTH =   92.00000    
                            -----------------------------------------------

                              NUMBER OF TIME STEPS =     1

                               MULTIPLIER FOR DELT =     1.500

                            INITIAL TIME STEP SIZE =   92.00000    

 WELL NO.  LAYER   ROW   COL   STRESS RATE         
 --------------------------------------------------
      1      1     14      6       0.000    
      2      1      3      9       0.000    
      3      1     20     10       0.000    
      4      1     14     20       0.000    
      5      1     15     20     -0.1192E+05
      6      1     17     29     -0.1435E+05
      7      1     12     29      -6954.    
      8      1     12     26      -8791.    

      8 WELLS

                 RECHARGE =  5.000000E-04

 REUSING STREAM SEGMENT DATA FROM LAST STRESS PERIOD
 
 SOLVING FOR HEAD 


     7 CALLS TO PCG ROUTINE FOR TIME STEP   1 IN STRESS PERIOD    5
    26 TOTAL ITERATIONS

 OUTPUT CONTROL FOR STRESS PERIOD    5   TIME STEP    1
    SAVE BUDGET
    SAVE HEAD FOR ALL LAYERS
    PRINT HEAD FOR ALL LAYERS
 UBDSV2 SAVING "STREAMFLOW OUT  " ON UNIT  50 AT TIME STEP  1, STRESS PERIOD   5



 STREAM LISTING     PERIOD      5   STEP        1

 LAYER ROW COL. STREAM  RCH.  FLOW INTO     FLOW TO   FLOW OUT OF   OVRLND.     DIRECT     STREAM       STREAM     STREAM     STREAM   STREAMBED  STREAMBED
                SEG.NO.  NO.  STRM. RCH.    AQUIFER    STRM. RCH.    RUNOFF     PRECIP       ET          HEAD       DEPTH      WIDTH   CONDCTNC.   GRADIENT

   1   13    1     1     1    1.0000E+05 -2.1538E+03   1.0215E+05  0.000E+00  0.000E+00  0.000E+00  4.84069E+01  1.456E-01  2.000E+01  2.000E+04 -1.077E-01
   1   13    2     1     2    1.0215E+05 -3.1750E+03   1.0533E+05  0.000E+00  0.000E+00  0.000E+00  4.79320E+01  1.479E-01  2.000E+01  2.000E+04 -1.588E-01
   1   14    3     1     3    1.0533E+05 -5.0977E+02   1.0584E+05  0.000E+00  0.000E+00  0.000E+00  4.74563E+01  1.494E-01  2.000E+01  2.000E+04 -2.549E-02
   1   15    4     1     4    1.0584E+05 -4.7540E+02   1.0631E+05  0.000E+00  0.000E+00  0.000E+00  4.69794E+01  1.499E-01  2.000E+01  2.000E+04 -2.377E-02
   1   16    5     1     5    1.0631E+05 -1.7239E+03   1.0804E+05  0.000E+00  0.000E+00  0.000E+00  4.65031E+01  1.508E-01  2.000E+01  2.000E+04 -8.620E-02
   1   16    6     1     6    1.0804E+05 -1.1018E+03   1.0914E+05  0.000E+00  0.000E+00  0.000E+00  4.60270E+01  1.520E-01  2.000E+01  2.000E+04 -5.509E-02
   1   16    7     1     7    1.0914E+05 -1.0851E+03   1.1022E+05  0.000E+00  0.000E+00  0.000E+00  4.55506E+01  1.529E-01  2.000E+01  2.000E+04 -5.425E-02
   1   16    8     1     8    1.1022E+05 -1.0777E+03   1.1130E+05  0.000E+00  0.000E+00  0.000E+00  4.50743E+01  1.538E-01  2.000E+01  2.000E+04 -5.388E-02
   1   16    9     1     9    1.1130E+05 -1.0603E+03   1.1236E+05  0.000E+00  0.000E+00  0.000E+00  4.45979E+01  1.547E-01  2.000E+01  2.000E+04 -5.301E-02
   1   16   10     1    10    1.1236E+05 -1.0315E+03   1.1339E+05  0.000E+00  0.000E+00  0.000E+00  4.41215E+01  1.556E-01  2.000E+01  2.000E+04 -5.157E-02
   1   16   11     1    11    1.1339E+05 -1.0087E+03   1.1440E+05  0.000E+00  0.000E+00  0.000E+00  4.36450E+01  1.564E-01  2.000E+01  2.000E+04 -5.044E-02
   1   16   12     1    12    1.1440E+05 -1.6669E+03   1.1607E+05  0.000E+00  0.000E+00  0.000E+00  4.31689E+01  1.575E-01  2.000E+01  2.000E+04 -8.335E-02
   1   15   13     1    13    1.1607E+05 -1.5973E+03   1.1767E+05  0.000E+00  0.000E+00  0.000E+00  4.26929E+01  1.588E-01  2.000E+01  2.000E+04 -7.987E-02
   1   14   14     1    14    1.1767E+05 -1.8537E+03   1.1952E+05  0.000E+00  0.000E+00  0.000E+00  4.22171E+01  1.602E-01  2.000E+01  2.000E+04 -9.268E-02
   1   13   15     1    15    1.1952E+05 -2.1755E+03   1.2170E+05  0.000E+00  0.000E+00  0.000E+00  4.17414E+01  1.619E-01  2.000E+01  2.000E+04 -1.088E-01
   1   12   16     1    16    1.2170E+05 -3.0889E+03   1.2479E+05  0.000E+00  0.000E+00  0.000E+00  4.12662E+01  1.640E-01  2.000E+01  2.000E+04 -1.544E-01
   1   12   17     1    17    1.2479E+05 -1.7789E+03   1.2656E+05  0.000E+00  0.000E+00  0.000E+00  4.07909E+01  1.659E-01  2.000E+01  2.000E+04 -8.894E-02
   1   12   18     1    18    1.2656E+05 -1.5415E+03   1.2811E+05  0.000E+00  0.000E+00  0.000E+00  4.03149E+01  1.672E-01  2.000E+01  2.000E+04 -7.708E-02
   1   12   19     1    19    1.2811E+05 -2.0766E+03   1.3018E+05  0.000E+00  0.000E+00  0.000E+00  3.98391E+01  1.686E-01  2.000E+01  2.000E+04 -1.038E-01
   1   13   20     1    20    1.3018E+05  2.0942E+02   1.2997E+05  0.000E+00  0.000E+00  0.000E+00  3.93626E+01  1.694E-01  2.000E+01  2.000E+04  1.047E-02
   1   14   21     1    21    1.2997E+05  1.8932E+03   1.2808E+05  0.000E+00  0.000E+00  0.000E+00  3.88845E+01  1.686E-01  2.000E+01  2.000E+04  9.466E-02
   1   14   22     1    22    1.2808E+05  5.3856E+03   1.2269E+05  0.000E+00  0.000E+00  0.000E+00  3.84043E+01  1.657E-01  2.000E+01  2.000E+04  2.693E-01
   1    9   30     2     1    5.0000E+04  8.8132E+02   4.9119E+04  0.000E+00  0.000E+00  0.000E+00  4.02403E+01  1.153E-01  2.000E+01  2.000E+04  4.407E-02
   1    9   29     2     2    4.9119E+04  5.7130E+02   4.8547E+04  0.000E+00  0.000E+00  0.000E+00  3.99892E+01  1.142E-01  2.000E+01  2.000E+04  2.856E-02
   1    9   28     2     3    4.8547E+04  8.8571E+01   4.8459E+04  0.000E+00  0.000E+00  0.000E+00  3.97388E+01  1.138E-01  2.000E+01  2.000E+04  4.429E-03
   1    9   27     2     4    4.8459E+04 -1.5847E+03   5.0044E+04  0.000E+00  0.000E+00  0.000E+00  3.94898E+01  1.148E-01  2.000E+01  2.000E+04 -7.924E-02
   1   10   26     2     5    5.0044E+04  1.0932E+03   4.8950E+04  0.000E+00  0.000E+00  0.000E+00  3.92402E+01  1.152E-01  2.000E+01  2.000E+04  5.466E-02
   1   11   25     2     6    4.8950E+04  2.1066E+03   4.6844E+04  0.000E+00  0.000E+00  0.000E+00  3.89879E+01  1.129E-01  2.000E+01  2.000E+04  1.053E-01
   1   12   24     2     7    4.6844E+04  2.7564E+02   4.6568E+04  0.000E+00  0.000E+00  0.000E+00  3.87362E+01  1.112E-01  2.000E+01  2.000E+04  1.378E-02
   1   13   23     2     8    4.6568E+04 -1.8880E+02   4.6757E+04  0.000E+00  0.000E+00  0.000E+00  3.84862E+01  1.112E-01  2.000E+01  2.000E+04 -9.440E-03
   1   14   22     2     9    4.6757E+04  1.9965E+03   4.4760E+04  0.000E+00  0.000E+00  0.000E+00  3.82349E+01  1.099E-01  2.000E+01  2.000E+04  9.983E-02
   1   14   22     3     1    1.6745E+05 -8.2705E+03   1.7572E+05  0.000E+00  0.000E+00  0.000E+00  3.77215E+01  1.660E-01  2.000E+01  2.000E+04 -4.135E-01
   1   15   23     3     2    1.7572E+05 -2.3368E+02   1.7596E+05  0.000E+00  0.000E+00  0.000E+00  3.68351E+01  1.684E-01  2.000E+01  2.000E+04 -1.168E-02
   1   15   24     3     3    1.7596E+05 -1.8820E+02   1.7615E+05  0.000E+00  0.000E+00  0.000E+00  3.59463E+01  1.685E-01  2.000E+01  2.000E+04 -9.410E-03
   1   15   25     3     4    1.7615E+05 -1.3743E+02   1.7628E+05  0.000E+00  0.000E+00  0.000E+00  3.50575E+01  1.686E-01  2.000E+01  2.000E+04 -6.872E-03
   1   15   26     3     5    1.7628E+05  6.5739E+01   1.7622E+05  0.000E+00  0.000E+00  0.000E+00  3.41686E+01  1.686E-01  2.000E+01  2.000E+04  3.287E-03
   1   16   27     3     6    1.7622E+05  2.4238E+02   1.7598E+05  0.000E+00  0.000E+00  0.000E+00  3.32797E+01  1.686E-01  2.000E+01  2.000E+04  1.212E-02
   1   17   28     3     7    1.7598E+05  5.5517E+03   1.7042E+05  0.000E+00  0.000E+00  0.000E+00  3.23891E+01  1.669E-01  2.000E+01  2.000E+04  2.776E-01
   1   18   29     3     8    1.7042E+05  2.2361E+03   1.6819E+05  0.000E+00  0.000E+00  0.000E+00  3.14980E+01  1.646E-01  2.000E+01  2.000E+04  1.118E-01
   1   18   30     3     9    1.6819E+05 -2.2352E+02   1.6841E+05  0.000E+00  0.000E+00  0.000E+00  3.06085E+01  1.640E-01  2.000E+01  2.000E+04 -1.118E-02



1
              HEAD IN LAYER   1 AT END OF TIME STEP   1 IN STRESS PERIOD    5
  ---------------------------------------------------------------------------

          1      2      3      4      5      6      7      8      9     10
         11     12     13     14     15     16     17     18     19     20
         21     22     23     24     25     26     27     28     29     30
 .........................................................................
   1  ****** ****** ****** ****** ****** ****** ****** ****** ****** ******
      ****** ****** ****** ****** ****** ****** ****** ****** ****** ******
      ****** ****** ****** ****** ****** ****** ****** ****** ****** ******
   2  ****** ****** ****** ****** ****** ****** ****** ****** ****** ******
      ****** ****** ****** ****** ****** ****** ****** ****** ****** ******
      ****** ****** ****** ****** ****** ****** ****** ****** ****** ******
   3  ****** ****** ****** ****** ****** ****** ****** ****** ****** ******
      ****** ****** ****** ****** ****** ****** ****** ****** ****** ******
      ****** ****** ****** ****** ****** ****** ****** ****** ****** ******
   4  ****** ****** ****** ****** ****** ****** ****** ****** ****** ******
      ****** ****** ****** ****** ****** ****** ****** ****** ****** ******
      ****** ****** ****** ****** ****** ****** ****** ****** ****** ******
   5  ****** ****** ****** ****** ****** ****** ****** ****** ****** ******
      ****** ****** ****** ****** ****** ****** ****** ****** ****** ******
      ****** ****** ****** ****** ****** ****** ****** ****** ****** ******
   6  ****** ****** ****** ****** ****** ****** ****** ****** ****** ******
      ****** ****** ****** ****** ****** ****** ****** ****** ****** ******
      ****** ****** ****** ****** ****** ****** ****** ****** ****** ******
   7  ****** ****** ****** ****** ****** ****** ****** ****** ****** ******
      ****** ****** ****** ****** ****** ****** ****** ****** ****** ******
      ****** ****** ****** ****** ****** ****** ****** ****** ****** ******
   8  ****** ****** ****** ****** ****** ****** ****** ****** ****** ******
      ****** ****** ****** ****** ****** ****** ****** ****** ****** ******
      ****** ****** ****** ****** ****** ****** ****** ****** ****** ******
   9  ****** ****** ****** ****** ****** ****** ****** ****** ****** ******
      ****** ****** ****** ****** ****** ****** ****** ****** ****** ******
      ****** ****** ****** ****** ****** ****** ****** ****** ****** ******
  10  ****** ****** ****** ****** ****** ****** ****** ****** ****** ******
      ****** ****** ****** ****** ****** ****** ****** ****** ****** ******
      ****** ****** ****** ****** ****** ****** ****** ****** ****** ******
  11  ****** ****** ****** ****** ****** ****** ****** ****** ****** ******
      ****** ****** ****** ****** ****** ****** ****** ****** ****** ******
      ****** ****** ****** ****** ****** ****** ****** ****** ****** ******
  12  ****** ****** ****** ****** ****** ****** ****** ****** ****** ******
      ****** ****** ****** ****** ****** ****** ****** ****** ****** ******
      ****** ****** ****** ****** ****** ****** ****** ****** ****** ******
  13  ****** ****** ****** ****** ****** ****** ****** ****** ****** ******
      ****** ****** ****** ****** ****** ****** ****** ****** ****** ******
      ****** ****** ****** ****** ****** ****** ****** ****** ****** ******
  14  ****** ****** ****** ****** ****** ****** ****** ****** ****** ******
      ****** ****** ****** ****** ****** ****** ****** ****** ****** ******
      ****** ****** ****** ****** ****** ****** ****** ****** ****** ******
  15  ****** ****** ****** ****** ****** ****** ****** ****** ****** ******
      ****** ****** ****** ****** ****** ****** ****** ****** ****** ******
      ****** ****** ****** ****** ****** ****** ****** ****** ****** ******
  16  ****** ****** ****** ****** ****** ****** ****** ****** ****** ******
      ****** ****** ****** ****** ****** ****** ****** ****** ****** ******
      ****** ****** ****** ****** ****** ****** ****** ****** ****** ******
  17  ****** ****** ****** ****** ****** ****** ****** ****** ****** ******
      ****** ****** ****** ****** ****** ****** ****** ****** ****** ******
      ****** ****** ****** ****** ****** ****** ****** ****** ****** ******
  18  ****** ****** ****** ****** ****** ****** ****** ****** ****** ******
      ****** ****** ****** ****** ****** ****** ****** ****** ****** ******
      ****** ****** ****** ****** ****** ****** ****** ****** ****** ******
  19  ****** ****** ****** ****** ****** ****** ****** ****** ****** ******
      ****** ****** ****** ****** ****** ****** ****** ****** ****** ******
      ****** ****** ****** ****** ****** ****** ****** ****** ****** ******
  20  ****** ****** ****** ****** ****** ****** ****** ****** ****** ******
      ****** ****** ****** ****** ****** ****** ****** ****** ****** ******
      ****** ****** ****** ****** ****** ****** ****** ****** ****** ******
  21  ****** ****** ****** ****** ****** ****** ****** ****** ****** ******
      ****** ****** ****** ****** ****** ****** ****** ****** ****** ******
      ****** ****** ****** ****** ****** ****** ****** ****** ****** ******
  22  ****** ****** ****** ****** ****** ****** ****** ****** ****** ******
      ****** ****** ****** ****** ****** ****** ****** ****** ****** ******
      ****** ****** ****** ****** ****** ****** ****** ****** ****** ******
  23  ****** ****** ****** ****** ****** ****** ****** ****** ****** ******
      ****** ****** ****** ****** ****** ****** ****** ****** ****** ******
      ****** ****** ****** ****** ****** ****** ****** ****** ****** ******
  24  ****** ****** ****** ****** ****** ****** ****** ****** ****** ******
      ****** ****** ****** ****** ****** ****** ****** ****** ****** ******
      ****** ****** ****** ****** ****** ****** ****** ****** ****** ******
  25  ****** ****** ****** ****** ****** ****** ****** ****** ****** ******
      ****** ****** ****** ****** ****** ****** ****** ****** ****** ******
      ****** ****** ****** ****** ****** ****** ****** ****** ****** ******

 HEAD WILL BE SAVED ON UNIT   51 AT END OF TIME STEP    1, STRESS PERIOD    5
1
  VOLUMETRIC BUDGET FOR ENTIRE MODEL AT END OF TIME STEP    1, STRESS PERIOD   5
  ------------------------------------------------------------------------------

     CUMULATIVE VOLUMES      L**3       RATES FOR THIS TIME STEP      L**3/T
     ------------------                 ------------------------

           IN:                                      IN:
           ---                                      ---
             STORAGE =    29778556.6830               STORAGE =       17412.9973
       CONSTANT HEAD =     9825396.8390         CONSTANT HEAD =       29217.9864
               WELLS =           0.0000                 WELLS =           0.0000
            RECHARGE =    10074000.0000              RECHARGE =       13800.0000
      STREAM LEAKAGE =     6853825.3374        STREAM LEAKAGE =       22597.2114

            TOTAL IN =    56531778.8594              TOTAL IN =       83028.1951

          OUT:                                     OUT:
          ----                                     ----
             STORAGE =         330.3621               STORAGE =           0.0000
       CONSTANT HEAD =           0.0000         CONSTANT HEAD =           0.0000
               WELLS =    19202721.0585                 WELLS =       42019.0833
            RECHARGE =           0.0000              RECHARGE =           0.0000
      STREAM LEAKAGE =    37328729.7005        STREAM LEAKAGE =       41009.1147

           TOTAL OUT =    56531781.1212             TOTAL OUT =       83028.1980

            IN - OUT =          -2.2618              IN - OUT =      -2.9211E-03

 PERCENT DISCREPANCY =          -0.00     PERCENT DISCREPANCY =          -0.00






         TIME SUMMARY AT END OF TIME STEP    1 IN STRESS PERIOD    5
                    SECONDS     MINUTES      HOURS       DAYS        YEARS
                    -----------------------------------------------------------
   TIME STEP LENGTH 7.94880E+06 1.32480E+05  2208.0      92.000     0.25188    
 STRESS PERIOD TIME 7.94880E+06 1.32480E+05  2208.0      92.000     0.25188    
         TOTAL TIME 3.94848E+07 6.58080E+05  10968.      457.00      1.2512    
1
1
                            STRESS PERIOD NO.    6, LENGTH =   91.00000    
                            -----------------------------------------------

                              NUMBER OF TIME STEPS =     1

                               MULTIPLIER FOR DELT =     1.500

                            INITIAL TIME STEP SIZE =   91.00000    

 WELL NO.  LAYER   ROW   COL   STRESS RATE         
 --------------------------------------------------
      1      1     14      6       0.000    
      2      1      3      9       0.000    
      3      1     20     10       0.000    
      4      1     14     20       0.000    
      5      1     15     20     -0.1192E+05
      6      1     17     29     -0.1435E+05
      7      1     12     29      -6954.    
      8      1     12     26      -8791.    

      8 WELLS

                 RECHARGE =  2.000000E-03

 REUSING STREAM SEGMENT DATA FROM LAST STRESS PERIOD
 
 SOLVING FOR HEAD 


     7 CALLS TO PCG ROUTINE FOR TIME STEP   1 IN STRESS PERIOD    6
    26 TOTAL ITERATIONS

 OUTPUT CONTROL FOR STRESS PERIOD    6   TIME STEP    1
    SAVE BUDGET
    SAVE HEAD FOR ALL LAYERS
    PRINT HEAD FOR ALL LAYERS
 UBDSV2 SAVING "STREAMFLOW OUT  " ON UNIT  50 AT TIME STEP  1, STRESS PERIOD   6



 STREAM LISTING     PERIOD      6   STEP        1

 LAYER ROW COL. STREAM  RCH.  FLOW INTO     FLOW TO   FLOW OUT OF   OVRLND.     DIRECT     STREAM       STREAM     STREAM     STREAM   STREAMBED  STREAMBED
                SEG.NO.  NO.  STRM. RCH.    AQUIFER    STRM. RCH.    RUNOFF     PRECIP       ET          HEAD       DEPTH      WIDTH   CONDCTNC.   GRADIENT

   1   13    1     1     1    1.0000E+05 -2.4793E+03   1.0248E+05  0.000E+00  0.000E+00  0.000E+00  4.84071E+01  1.457E-01  2.000E+01  2.000E+04 -1.240E-01
   1   13    2     1     2    1.0248E+05 -3.5319E+03   1.0601E+05  0.000E+00  0.000E+00  0.000E+00  4.79324E+01  1.483E-01  2.000E+01  2.000E+04 -1.766E-01
   1   14    3     1     3    1.0601E+05 -6.6625E+02   1.0668E+05  0.000E+00  0.000E+00  0.000E+00  4.74569E+01  1.501E-01  2.000E+01  2.000E+04 -3.331E-02
   1   15    4     1     4    1.0668E+05 -6.4304E+02   1.0732E+05  0.000E+00  0.000E+00  0.000E+00  4.69802E+01  1.506E-01  2.000E+01  2.000E+04 -3.215E-02
   1   16    5     1     5    1.0732E+05 -2.2222E+03   1.0954E+05  0.000E+00  0.000E+00  0.000E+00  4.65041E+01  1.519E-01  2.000E+01  2.000E+04 -1.111E-01
   1   16    6     1     6    1.0954E+05 -1.3947E+03   1.1094E+05  0.000E+00  0.000E+00  0.000E+00  4.60284E+01  1.534E-01  2.000E+01  2.000E+04 -6.973E-02
   1   16    7     1     7    1.1094E+05 -1.3628E+03   1.1230E+05  0.000E+00  0.000E+00  0.000E+00  4.55522E+01  1.545E-01  2.000E+01  2.000E+04 -6.814E-02
   1   16    8     1     8    1.1230E+05 -1.3508E+03   1.1365E+05  0.000E+00  0.000E+00  0.000E+00  4.50761E+01  1.556E-01  2.000E+01  2.000E+04 -6.754E-02
   1   16    9     1     9    1.1365E+05 -1.3330E+03   1.1498E+05  0.000E+00  0.000E+00  0.000E+00  4.45999E+01  1.567E-01  2.000E+01  2.000E+04 -6.665E-02
   1   16   10     1    10    1.1498E+05 -1.3056E+03   1.1629E+05  0.000E+00  0.000E+00  0.000E+00  4.41237E+01  1.578E-01  2.000E+01  2.000E+04 -6.528E-02
   1   16   11     1    11    1.1629E+05 -1.2859E+03   1.1758E+05  0.000E+00  0.000E+00  0.000E+00  4.36475E+01  1.589E-01  2.000E+01  2.000E+04 -6.430E-02
   1   16   12     1    12    1.1758E+05 -2.1156E+03   1.1969E+05  0.000E+00  0.000E+00  0.000E+00  4.31716E+01  1.603E-01  2.000E+01  2.000E+04 -1.058E-01
   1   15   13     1    13    1.1969E+05 -2.0593E+03   1.2175E+05  0.000E+00  0.000E+00  0.000E+00  4.26960E+01  1.620E-01  2.000E+01  2.000E+04 -1.030E-01
   1   14   14     1    14    1.2175E+05 -2.3134E+03   1.2406E+05  0.000E+00  0.000E+00  0.000E+00  4.22205E+01  1.637E-01  2.000E+01  2.000E+04 -1.157E-01
   1   13   15     1    15    1.2406E+05 -2.6182E+03   1.2668E+05  0.000E+00  0.000E+00  0.000E+00  4.17452E+01  1.657E-01  2.000E+01  2.000E+04 -1.309E-01
   1   12   16     1    16    1.2668E+05 -3.4904E+03   1.3017E+05  0.000E+00  0.000E+00  0.000E+00  4.12704E+01  1.681E-01  2.000E+01  2.000E+04 -1.745E-01
   1   12   17     1    17    1.3017E+05 -2.1020E+03   1.3227E+05  0.000E+00  0.000E+00  0.000E+00  4.07953E+01  1.703E-01  2.000E+01  2.000E+04 -1.051E-01
   1   12   18     1    18    1.3227E+05 -1.8674E+03   1.3414E+05  0.000E+00  0.000E+00  0.000E+00  4.03195E+01  1.718E-01  2.000E+01  2.000E+04 -9.337E-02
   1   12   19     1    19    1.3414E+05 -2.4819E+03   1.3662E+05  0.000E+00  0.000E+00  0.000E+00  3.98439E+01  1.735E-01  2.000E+01  2.000E+04 -1.241E-01
   1   13   20     1    20    1.3662E+05 -2.1793E+02   1.3684E+05  0.000E+00  0.000E+00  0.000E+00  3.93677E+01  1.745E-01  2.000E+01  2.000E+04 -1.090E-02
   1   14   21     1    21    1.3684E+05  1.4791E+03   1.3536E+05  0.000E+00  0.000E+00  0.000E+00  3.88899E+01  1.740E-01  2.000E+01  2.000E+04  7.395E-02
   1   14   22     1    22    1.3536E+05  5.2749E+03   1.3009E+05  0.000E+00  0.000E+00  0.000E+00  3.84101E+01  1.714E-01  2.000E+01  2.000E+04  2.637E-01
   1    9   30     2     1    5.0000E+04  5.1444E+02   4.9486E+04  0.000E+00  0.000E+00  0.000E+00  4.02405E+01  1.155E-01  2.000E+01  2.000E+04  2.572E-02
   1    9   29     2     2    4.9486E+04  2.0852E+02   4.9277E+04  0.000E+00  0.000E+00  0.000E+00  3.99900E+01  1.150E-01  2.000E+01  2.000E+04  1.043E-02
   1    9   28     2     3    4.9277E+04 -2.6815E+02   4.9545E+04  0.000E+00  0.000E+00  0.000E+00  3.97400E+01  1.150E-01  2.000E+01  2.000E+04 -1.341E-02
   1    9   27     2     4    4.9545E+04 -2.0393E+03   5.1584E+04  0.000E+00  0.000E+00  0.000E+00  3.94916E+01  1.166E-01  2.000E+01  2.000E+04 -1.020E-01
   1   10   26     2     5    5.1584E+04  6.1669E+02   5.0968E+04  0.000E+00  0.000E+00  0.000E+00  3.92426E+01  1.176E-01  2.000E+01  2.000E+04  3.083E-02
   1   11   25     2     6    5.0968E+04  1.6455E+03   4.9322E+04  0.000E+00  0.000E+00  0.000E+00  3.89911E+01  1.161E-01  2.000E+01  2.000E+04  8.228E-02
   1   12   24     2     7    4.9322E+04 -1.4042E+02   4.9463E+04  0.000E+00  0.000E+00  0.000E+00  3.87400E+01  1.150E-01  2.000E+01  2.000E+04 -7.021E-03
   1   13   23     2     8    4.9463E+04 -3.2754E+02   4.9790E+04  0.000E+00  0.000E+00  0.000E+00  3.84903E+01  1.153E-01  2.000E+01  2.000E+04 -1.638E-02
   1   14   22     2     9    4.9790E+04  1.8590E+03   4.7931E+04  0.000E+00  0.000E+00  0.000E+00  3.82393E+01  1.143E-01  2.000E+01  2.000E+04  9.295E-02
   1   14   22     3     1    1.7802E+05 -8.3745E+03   1.8639E+05  0.000E+00  0.000E+00  0.000E+00  3.77276E+01  1.720E-01  2.000E+01  2.000E+04 -4.187E-01
   1   15   23     3     2    1.8639E+05 -3.7097E+02   1.8676E+05  0.000E+00  0.000E+00  0.000E+00  3.68412E+01  1.745E-01  2.000E+01  2.000E+04 -1.855E-02
   1   15   24     3     3    1.8676E+05 -3.0999E+02   1.8707E+05  0.000E+00  0.000E+00  0.000E+00  3.59525E+01  1.747E-01  2.000E+01  2.000E+04 -1.550E-02
   1   15   25     3     4    1.8707E+05 -2.6361E+02   1.8734E+05  0.000E+00  0.000E+00  0.000E+00  3.50637E+01  1.749E-01  2.000E+01  2.000E+04 -1.318E-02
   1   15   26     3     5    1.8734E+05 -8.5189E+01   1.8742E+05  0.000E+00  0.000E+00  0.000E+00  3.41750E+01  1.750E-01  2.000E+01  2.000E+04 -4.259E-03
   1   16   27     3     6    1.8742E+05  7.4013E+01   1.8735E+05  0.000E+00  0.000E+00  0.000E+00  3.32861E+01  1.750E-01  2.000E+01  2.000E+04  3.701E-03
   1   17   28     3     7    1.8735E+05  5.0899E+03   1.8226E+05  0.000E+00  0.000E+00  0.000E+00  3.23957E+01  1.735E-01  2.000E+01  2.000E+04  2.545E-01
   1   18   29     3     8    1.8226E+05  1.7962E+03   1.8046E+05  0.000E+00  0.000E+00  0.000E+00  3.15049E+01  1.716E-01  2.000E+01  2.000E+04  8.981E-02
   1   18   30     3     9    1.8046E+05 -5.7967E+02   1.8104E+05  0.000E+00  0.000E+00  0.000E+00  3.06157E+01  1.712E-01  2.000E+01  2.000E+04 -2.898E-02



1
              HEAD IN LAYER   1 AT END OF TIME STEP   1 IN STRESS PERIOD    6
  ---------------------------------------------------------------------------

          1      2      3      4      5      6      7      8      9     10
         11     12     13     14     15     16     17     18     19     20
         21     22     23     24     25     26     27     28     29     30
 .........................................................................
   1  ****** ****** ****** ****** ****** ****** ****** ****** ****** ******
      ****** ****** ****** ****** ****** ****** ****** ****** ****** ******
      ****** ****** ****** ****** ****** ****** ****** ****** ****** ******
   2  ****** ****** ****** ****** ****** ****** ****** ****** ****** ******
      ****** ****** ****** ****** ****** ****** ****** ****** ****** ******
      ****** ****** ****** ****** ****** ****** ****** ****** ****** ******
   3  ****** ****** ****** ****** ****** ****** ****** ****** ****** ******
      ****** ****** ****** ****** ****** ****** ****** ****** ****** ******
      ****** ****** ****** ****** ****** ****** ****** ****** ****** ******
   4  ****** ****** ****** ****** ****** ****** ****** ****** ****** ******
      ****** ****** ****** ****** ****** ****** ****** ****** ****** ******
      ****** ****** ****** ****** ****** ****** ****** ****** ****** ******
   5  ****** ****** ****** ****** ****** ****** ****** ****** ****** ******
      ****** ****** ****** ****** ****** ****** ****** ****** ****** ******
      ****** ****** ****** ****** ****** ****** ****** ****** ****** ******
   6  ****** ****** ****** ****** ****** ****** ****** ****** ****** ******
      ****** ****** ****** ****** ****** ****** ****** ****** ****** ******
      ****** ****** ****** ****** ****** ****** ****** ****** ****** ******
   7  ****** ****** ****** ****** ****** ****** ****** ****** ****** ******
      ****** ****** ****** ****** ****** ****** ****** ****** ****** ******
      ****** ****** ****** ****** ****** ****** ****** ****** ****** ******
   8  ****** ****** ****** ****** ****** ****** ****** ****** ****** ******
      ****** ****** ****** ****** ****** ****** ****** ****** ****** ******
      ****** ****** ****** ****** ****** ****** ****** ****** ****** ******
   9  ****** ****** ****** ****** ****** ****** ****** ****** ****** ******
      ****** ****** ****** ****** ****** ****** ****** ****** ****** ******
      ****** ****** ****** ****** ****** ****** ****** ****** ****** ******
  10  ****** ****** ****** ****** ****** ****** ****** ****** ****** ******
      ****** ****** ****** ****** ****** ****** ****** ****** ****** ******
      ****** ****** ****** ****** ****** ****** ****** ****** ****** ******
  11  ****** ****** ****** ****** ****** ****** ****** ****** ****** ******
      ****** ****** ****** ****** ****** ****** ****** ****** ****** ******
      ****** ****** ****** ****** ****** ****** ****** ****** ****** ******
  12  ****** ****** ****** ****** ****** ****** ****** ****** ****** ******
      ****** ****** ****** ****** ****** ****** ****** ****** ****** ******
      ****** ****** ****** ****** ****** ****** ****** ****** ****** ******
  13  ****** ****** ****** ****** ****** ****** ****** ****** ****** ******
      ****** ****** ****** ****** ****** ****** ****** ****** ****** ******
      ****** ****** ****** ****** ****** ****** ****** ****** ****** ******
  14  ****** ****** ****** ****** ****** ****** ****** ****** ****** ******
      ****** ****** ****** ****** ****** ****** ****** ****** ****** ******
      ****** ****** ****** ****** ****** ****** ****** ****** ****** ******
  15  ****** ****** ****** ****** ****** ****** ****** ****** ****** ******
      ****** ****** ****** ****** ****** ****** ****** ****** ****** ******
      ****** ****** ****** ****** ****** ****** ****** ****** ****** ******
  16  ****** ****** ****** ****** ****** ****** ****** ****** ****** ******
      ****** ****** ****** ****** ****** ****** ****** ****** ****** ******
      ****** ****** ****** ****** ****** ****** ****** ****** ****** ******
  17  ****** ****** ****** ****** ****** ****** ****** ****** ****** ******
      ****** ****** ****** ****** ****** ****** ****** ****** ****** ******
      ****** ****** ****** ****** ****** ****** ****** ****** ****** ******
  18  ****** ****** ****** ****** ****** ****** ****** ****** ****** ******
      ****** ****** ****** ****** ****** ****** ****** ****** ****** ******
      ****** ****** ****** ****** ****** ****** ****** ****** ****** ******
  19  ****** ****** ****** ****** ****** ****** ****** ****** ****** ******
      ****** ****** ****** ****** ****** ****** ****** ****** ****** ******
      ****** ****** ****** ****** ****** ****** ****** ****** ****** ******
  20  ****** ****** ****** ****** ****** ****** ****** ****** ****** ******
      ****** ****** ****** ****** ****** ****** ****** ****** ****** ******
      ****** ****** ****** ****** ****** ****** ****** ****** ****** ******
  21  ****** ****** ****** ****** ****** ****** ****** ****** ****** ******
      ****** ****** ****** ****** ****** ****** ****** ****** ****** ******
      ****** ****** ****** ****** ****** ****** ****** ****** ****** ******
  22  ****** ****** ****** ****** ****** ****** ****** ****** ****** ******
      ****** ****** ****** ****** ****** ****** ****** ****** ****** ******
      ****** ****** ****** ****** ****** ****** ****** ****** ****** ******
  23  ****** ****** ****** ****** ****** ****** ****** ****** ****** ******
      ****** ****** ****** ****** ****** ****** ****** ****** ****** ******
      ****** ****** ****** ****** ****** ****** ****** ****** ****** ******
  24  ****** ****** ****** ****** ****** ****** ****** ****** ****** ******
      ****** ****** ****** ****** ****** ****** ****** ****** ****** ******
      ****** ****** ****** ****** ****** ****** ****** ****** ****** ******
  25  ****** ****** ****** ****** ****** ****** ****** ****** ****** ******
      ****** ****** ****** ****** ****** ****** ****** ****** ****** ******
      ****** ****** ****** ****** ****** ****** ****** ****** ****** ******

 HEAD WILL BE SAVED ON UNIT   51 AT END OF TIME STEP    1, STRESS PERIOD    6
1
  VOLUMETRIC BUDGET FOR ENTIRE MODEL AT END OF TIME STEP    1, STRESS PERIOD   6
  ------------------------------------------------------------------------------

     CUMULATIVE VOLUMES      L**3       RATES FOR THIS TIME STEP      L**3/T
     ------------------                 ------------------------

           IN:                                      IN:
           ---                                      ---
             STORAGE =    29778556.6830               STORAGE =           0.0000
       CONSTANT HEAD =    12303165.0996         CONSTANT HEAD =       27228.2226
               WELLS =           0.0000                 WELLS =           0.0000
            RECHARGE =    15097200.0000              RECHARGE =       55200.0000
      STREAM LEAKAGE =     8542613.5304        STREAM LEAKAGE =       18558.1120

            TOTAL IN =    65721535.3129              TOTAL IN =      100986.3347

          OUT:                                     OUT:
          ----                                     ----
             STORAGE =      852658.3177               STORAGE =        9366.2413
       CONSTANT HEAD =           0.0000         CONSTANT HEAD =           0.0000
               WELLS =    23026457.6369                 WELLS =       42019.0833
            RECHARGE =           0.0000              RECHARGE =           0.0000
      STREAM LEAKAGE =    41842421.3603        STREAM LEAKAGE =       49601.0073

           TOTAL OUT =    65721537.3150             TOTAL OUT =      100986.3318

            IN - OUT =          -2.0021              IN - OUT =       2.8539E-03

 PERCENT DISCREPANCY =          -0.00     PERCENT DISCREPANCY =           0.00






         TIME SUMMARY AT END OF TIME STEP    1 IN STRESS PERIOD    6
                    SECONDS     MINUTES      HOURS       DAYS        YEARS
                    -----------------------------------------------------------
   TIME STEP LENGTH 7.86240E+06 1.31040E+05  2184.0      91.000     0.24914    
 STRESS PERIOD TIME 7.86240E+06 1.31040E+05  2184.0      91.000     0.24914    
         TOTAL TIME 4.73472E+07 7.89120E+05  13152.      548.00      1.5003    
1
1
                            STRESS PERIOD NO.    7, LENGTH =   91.00000    
                            -----------------------------------------------

                              NUMBER OF TIME STEPS =     1

                               MULTIPLIER FOR DELT =     1.500

                            INITIAL TIME STEP SIZE =   91.00000    

 WELL NO.  LAYER   ROW   COL   STRESS RATE         
 --------------------------------------------------
      1      1     14      6       0.000    
      2      1      3      9       0.000    
      3      1     20     10       0.000    
      4      1     14     20       0.000    
      5      1     15     20     -0.1192E+05
      6      1     17     29     -0.1435E+05
      7      1     12     29      -6954.    
      8      1     12     26      -8791.    

      8 WELLS

                 RECHARGE =   0.00000    

 REUSING STREAM SEGMENT DATA FROM LAST STRESS PERIOD
 
 SOLVING FOR HEAD 


     7 CALLS TO PCG ROUTINE FOR TIME STEP   1 IN STRESS PERIOD    7
    26 TOTAL ITERATIONS

 OUTPUT CONTROL FOR STRESS PERIOD    7   TIME STEP    1
    SAVE BUDGET
    SAVE HEAD FOR ALL LAYERS
    PRINT HEAD FOR ALL LAYERS
 UBDSV2 SAVING "STREAMFLOW OUT  " ON UNIT  50 AT TIME STEP  1, STRESS PERIOD   7



 STREAM LISTING     PERIOD      7   STEP        1

 LAYER ROW COL. STREAM  RCH.  FLOW INTO     FLOW TO   FLOW OUT OF   OVRLND.     DIRECT     STREAM       STREAM     STREAM     STREAM   STREAMBED  STREAMBED
                SEG.NO.  NO.  STRM. RCH.    AQUIFER    STRM. RCH.    RUNOFF     PRECIP       ET          HEAD       DEPTH      WIDTH   CONDCTNC.   GRADIENT

   1   13    1     1     1    1.0000E+05 -1.8221E+03   1.0182E+05  0.000E+00  0.000E+00  0.000E+00  4.84068E+01  1.454E-01  2.000E+01  2.000E+04 -9.111E-02
   1   13    2     1     2    1.0182E+05 -2.7969E+03   1.0462E+05  0.000E+00  0.000E+00  0.000E+00  4.79315E+01  1.474E-01  2.000E+01  2.000E+04 -1.398E-01
   1   14    3     1     3    1.0462E+05 -4.1569E+02   1.0503E+05  0.000E+00  0.000E+00  0.000E+00  4.74556E+01  1.488E-01  2.000E+01  2.000E+04 -2.078E-02
   1   15    4     1     4    1.0503E+05 -3.8145E+02   1.0542E+05  0.000E+00  0.000E+00  0.000E+00  4.69787E+01  1.491E-01  2.000E+01  2.000E+04 -1.907E-02
   1   16    5     1     5    1.0542E+05 -1.4703E+03   1.0689E+05  0.000E+00  0.000E+00  0.000E+00  4.65022E+01  1.499E-01  2.000E+01  2.000E+04 -7.352E-02
   1   16    6     1     6    1.0689E+05 -9.4153E+02   1.0783E+05  0.000E+00  0.000E+00  0.000E+00  4.60259E+01  1.509E-01  2.000E+01  2.000E+04 -4.708E-02
   1   16    7     1     7    1.0783E+05 -9.2810E+02   1.0876E+05  0.000E+00  0.000E+00  0.000E+00  4.55495E+01  1.517E-01  2.000E+01  2.000E+04 -4.640E-02
   1   16    8     1     8    1.0876E+05 -9.2213E+02   1.0968E+05  0.000E+00  0.000E+00  0.000E+00  4.50730E+01  1.525E-01  2.000E+01  2.000E+04 -4.611E-02
   1   16    9     1     9    1.0968E+05 -9.0731E+02   1.1059E+05  0.000E+00  0.000E+00  0.000E+00  4.45965E+01  1.533E-01  2.000E+01  2.000E+04 -4.537E-02
   1   16   10     1    10    1.1059E+05 -8.8225E+02   1.1147E+05  0.000E+00  0.000E+00  0.000E+00  4.41199E+01  1.540E-01  2.000E+01  2.000E+04 -4.411E-02
   1   16   11     1    11    1.1147E+05 -8.6109E+02   1.1233E+05  0.000E+00  0.000E+00  0.000E+00  4.36434E+01  1.547E-01  2.000E+01  2.000E+04 -4.305E-02
   1   16   12     1    12    1.1233E+05 -1.4023E+03   1.1373E+05  0.000E+00  0.000E+00  0.000E+00  4.31670E+01  1.557E-01  2.000E+01  2.000E+04 -7.011E-02
   1   15   13     1    13    1.1373E+05 -1.2964E+03   1.1503E+05  0.000E+00  0.000E+00  0.000E+00  4.26909E+01  1.568E-01  2.000E+01  2.000E+04 -6.482E-02
   1   14   14     1    14    1.1503E+05 -1.5246E+03   1.1655E+05  0.000E+00  0.000E+00  0.000E+00  4.22148E+01  1.580E-01  2.000E+01  2.000E+04 -7.623E-02
   1   13   15     1    15    1.1655E+05 -1.8292E+03   1.1838E+05  0.000E+00  0.000E+00  0.000E+00  4.17389E+01  1.593E-01  2.000E+01  2.000E+04 -9.146E-02
   1   12   16     1    16    1.1838E+05 -2.7108E+03   1.2109E+05  0.000E+00  0.000E+00  0.000E+00  4.12634E+01  1.612E-01  2.000E+01  2.000E+04 -1.355E-01
   1   12   17     1    17    1.2109E+05 -1.5327E+03   1.2262E+05  0.000E+00  0.000E+00  0.000E+00  4.07879E+01  1.629E-01  2.000E+01  2.000E+04 -7.664E-02
   1   12   18     1    18    1.2262E+05 -1.3113E+03   1.2394E+05  0.000E+00  0.000E+00  0.000E+00  4.03117E+01  1.640E-01  2.000E+01  2.000E+04 -6.557E-02
   1   12   19     1    19    1.2394E+05 -1.8025E+03   1.2574E+05  0.000E+00  0.000E+00  0.000E+00  3.98357E+01  1.652E-01  2.000E+01  2.000E+04 -9.013E-02
   1   13   20     1    20    1.2574E+05  4.4760E+02   1.2529E+05  0.000E+00  0.000E+00  0.000E+00  3.93590E+01  1.658E-01  2.000E+01  2.000E+04  2.238E-02
   1   14   21     1    21    1.2529E+05  2.1378E+03   1.2315E+05  0.000E+00  0.000E+00  0.000E+00  3.88807E+01  1.648E-01  2.000E+01  2.000E+04  1.069E-01
   1   14   22     1    22    1.2315E+05  5.4371E+03   1.1772E+05  0.000E+00  0.000E+00  0.000E+00  3.84004E+01  1.617E-01  2.000E+01  2.000E+04  2.719E-01
   1    9   30     2     1    5.0000E+04  1.0259E+03   4.8974E+04  0.000E+00  0.000E+00  0.000E+00  4.02402E+01  1.152E-01  2.000E+01  2.000E+04  5.130E-02
   1    9   29     2     2    4.8974E+04  7.1805E+02   4.8256E+04  0.000E+00  0.000E+00  0.000E+00  3.99889E+01  1.139E-01  2.000E+01  2.000E+04  3.590E-02
   1    9   28     2     3    4.8256E+04  2.4230E+02   4.8014E+04  0.000E+00  0.000E+00  0.000E+00  3.97383E+01  1.133E-01  2.000E+01  2.000E+04  1.211E-02
   1    9   27     2     4    4.8014E+04 -1.3476E+03   4.9361E+04  0.000E+00  0.000E+00  0.000E+00  3.94890E+01  1.140E-01  2.000E+01  2.000E+04 -6.738E-02
   1   10   26     2     5    4.9361E+04  1.3114E+03   4.8050E+04  0.000E+00  0.000E+00  0.000E+00  3.92391E+01  1.141E-01  2.000E+01  2.000E+04  6.557E-02
   1   11   25     2     6    4.8050E+04  2.3119E+03   4.5738E+04  0.000E+00  0.000E+00  0.000E+00  3.89865E+01  1.115E-01  2.000E+01  2.000E+04  1.156E-01
   1   12   24     2     7    4.5738E+04  4.6672E+02   4.5271E+04  0.000E+00  0.000E+00  0.000E+00  3.87345E+01  1.095E-01  2.000E+01  2.000E+04  2.334E-02
   1   13   23     2     8    4.5271E+04 -1.3637E+02   4.5408E+04  0.000E+00  0.000E+00  0.000E+00  3.84843E+01  1.093E-01  2.000E+01  2.000E+04 -6.819E-03
   1   14   22     2     9    4.5408E+04  2.0867E+03   4.3321E+04  0.000E+00  0.000E+00  0.000E+00  3.82328E+01  1.078E-01  2.000E+01  2.000E+04  1.043E-01
   1   14   22     3     1    1.6104E+05 -8.2152E+03   1.6925E+05  0.000E+00  0.000E+00  0.000E+00  3.77177E+01  1.622E-01  2.000E+01  2.000E+04 -4.108E-01
   1   15   23     3     2    1.6925E+05 -1.6505E+02   1.6942E+05  0.000E+00  0.000E+00  0.000E+00  3.68313E+01  1.646E-01  2.000E+01  2.000E+04 -8.252E-03
   1   15   24     3     3    1.6942E+05 -1.3661E+02   1.6955E+05  0.000E+00  0.000E+00  0.000E+00  3.59425E+01  1.647E-01  2.000E+01  2.000E+04 -6.831E-03
   1   15   25     3     4    1.6955E+05 -8.7115E+01   1.6964E+05  0.000E+00  0.000E+00  0.000E+00  3.50537E+01  1.648E-01  2.000E+01  2.000E+04 -4.356E-03
   1   15   26     3     5    1.6964E+05  1.1593E+02   1.6953E+05  0.000E+00  0.000E+00  0.000E+00  3.41648E+01  1.648E-01  2.000E+01  2.000E+04  5.797E-03
   1   16   27     3     6    1.6953E+05  3.0611E+02   1.6922E+05  0.000E+00  0.000E+00  0.000E+00  3.32758E+01  1.647E-01  2.000E+01  2.000E+04  1.531E-02
   1   17   28     3     7    1.6922E+05  5.7304E+03   1.6349E+05  0.000E+00  0.000E+00  0.000E+00  3.23851E+01  1.629E-01  2.000E+01  2.000E+04  2.865E-01
   1   18   29     3     8    1.6349E+05  2.4798E+03   1.6101E+05  0.000E+00  0.000E+00  0.000E+00  3.14938E+01  1.605E-01  2.000E+01  2.000E+04  1.240E-01
   1   18   30     3     9    1.6101E+05 -5.2750E+01   1.6106E+05  0.000E+00  0.000E+00  0.000E+00  3.06042E+01  1.598E-01  2.000E+01  2.000E+04 -2.638E-03



1
              HEAD IN LAYER   1 AT END OF TIME STEP   1 IN STRESS PERIOD    7
  ---------------------------------------------------------------------------

          1      2      3      4      5      6      7      8      9     10
         11     12     13     14     15     16     17     18     19     20
         21     22     23     24     25     26     27     28     29     30
 .........................................................................
   1  ****** ****** ****** ****** ****** ****** ****** ****** ****** ******
      ****** ****** ****** ****** ****** ****** ****** ****** ****** ******
      ****** ****** ****** ****** ****** ****** ****** ****** ****** ******
   2  ****** ****** ****** ****** ****** ****** ****** ****** ****** ******
      ****** ****** ****** ****** ****** ****** ****** ****** ****** ******
      ****** ****** ****** ****** ****** ****** ****** ****** ****** ******
   3  ****** ****** ****** ****** ****** ****** ****** ****** ****** ******
      ****** ****** ****** ****** ****** ****** ****** ****** ****** ******
      ****** ****** ****** ****** ****** ****** ****** ****** ****** ******
   4  ****** ****** ****** ****** ****** ****** ****** ****** ****** ******
      ****** ****** ****** ****** ****** ****** ****** ****** ****** ******
      ****** ****** ****** ****** ****** ****** ****** ****** ****** ******
   5  ****** ****** ****** ****** ****** ****** ****** ****** ****** ******
      ****** ****** ****** ****** ****** ****** ****** ****** ****** ******
      ****** ****** ****** ****** ****** ****** ****** ****** ****** ******
   6  ****** ****** ****** ****** ****** ****** ****** ****** ****** ******
      ****** ****** ****** ****** ****** ****** ****** ****** ****** ******
      ****** ****** ****** ****** ****** ****** ****** ****** ****** ******
   7  ****** ****** ****** ****** ****** ****** ****** ****** ****** ******
      ****** ****** ****** ****** ****** ****** ****** ****** ****** ******
      ****** ****** ****** ****** ****** ****** ****** ****** ****** ******
   8  ****** ****** ****** ****** ****** ****** ****** ****** ****** ******
      ****** ****** ****** ****** ****** ****** ****** ****** ****** ******
      ****** ****** ****** ****** ****** ****** ****** ****** ****** ******
   9  ****** ****** ****** ****** ****** ****** ****** ****** ****** ******
      ****** ****** ****** ****** ****** ****** ****** ****** ****** ******
      ****** ****** ****** ****** ****** ****** ****** ****** ****** ******
  10  ****** ****** ****** ****** ****** ****** ****** ****** ****** ******
      ****** ****** ****** ****** ****** ****** ****** ****** ****** ******
      ****** ****** ****** ****** ****** ****** ****** ****** ****** ******
  11  ****** ****** ****** ****** ****** ****** ****** ****** ****** ******
      ****** ****** ****** ****** ****** ****** ****** ****** ****** ******
      ****** ****** ****** ****** ****** ****** ****** ****** ****** ******
  12  ****** ****** ****** ****** ****** ****** ****** ****** ****** ******
      ****** ****** ****** ****** ****** ****** ****** ****** ****** ******
      ****** ****** ****** ****** ****** ****** ****** ****** ****** ******
  13  ****** ****** ****** ****** ****** ****** ****** ****** ****** ******
      ****** ****** ****** ****** ****** ****** ****** ****** ****** ******
      ****** ****** ****** ****** ****** ****** ****** ****** ****** ******
  14  ****** ****** ****** ****** ****** ****** ****** ****** ****** ******
      ****** ****** ****** ****** ****** ****** ****** ****** ****** ******
      ****** ****** ****** ****** ****** ****** ****** ****** ****** ******
  15  ****** ****** ****** ****** ****** ****** ****** ****** ****** ******
      ****** ****** ****** ****** ****** ****** ****** ****** ****** ******
      ****** ****** ****** ****** ****** ****** ****** ****** ****** ******
  16  ****** ****** ****** ****** ****** ****** ****** ****** ****** ******
      ****** ****** ****** ****** ****** ****** ****** ****** ****** ******
      ****** ****** ****** ****** ****** ****** ****** ****** ****** ******
  17  ****** ****** ****** ****** ****** ****** ****** ****** ****** ******
      ****** ****** ****** ****** ****** ****** ****** ****** ****** ******
      ****** ****** ****** ****** ****** ****** ****** ****** ****** ******
  18  ****** ****** ****** ****** ****** ****** ****** ****** ****** ******
      ****** ****** ****** ****** ****** ****** ****** ****** ****** ******
      ****** ****** ****** ****** ****** ****** ****** ****** ****** ******
  19  ****** ****** ****** ****** ****** ****** ****** ****** ****** ******
      ****** ****** ****** ****** ****** ****** ****** ****** ****** ******
      ****** ****** ****** ****** ****** ****** ****** ****** ****** ******
  20  ****** ****** ****** ****** ****** ****** ****** ****** ****** ******
      ****** ****** ****** ****** ****** ****** ****** ****** ****** ******
      ****** ****** ****** ****** ****** ****** ****** ****** ****** ******
  21  ****** ****** ****** ****** ****** ****** ****** ****** ****** ******
      ****** ****** ****** ****** ****** ****** ****** ****** ****** ******
      ****** ****** ****** ****** ****** ****** ****** ****** ****** ******
  22  ****** ****** ****** ****** ****** ****** ****** ****** ****** ******
      ****** ****** ****** ****** ****** ****** ****** ****** ****** ******
      ****** ****** ****** ****** ****** ****** ****** ****** ****** ******
  23  ****** ****** ****** ****** ****** ****** ****** ****** ****** ******
      ****** ****** ****** ****** ****** ****** ****** ****** ****** ******
      ****** ****** ****** ****** ****** ****** ****** ****** ****** ******
  24  ****** ****** ****** ****** ****** ****** ****** ****** ****** ******
      ****** ****** ****** ****** ****** ****** ****** ****** ****** ******
      ****** ****** ****** ****** ****** ****** ****** ****** ****** ******
  25  ****** ****** ****** ****** ****** ****** ****** ****** ****** ******
      ****** ****** ****** ****** ****** ****** ****** ****** ****** ******
      ****** ****** ****** ****** ****** ****** ****** ****** ****** ******

 HEAD WILL BE SAVED ON UNIT   51 AT END OF TIME STEP    1, STRESS PERIOD    7
1
  VOLUMETRIC BUDGET FOR ENTIRE MODEL AT END OF TIME STEP    1, STRESS PERIOD   7
  ------------------------------------------------------------------------------

     CUMULATIVE VOLUMES      L**3       RATES FOR THIS TIME STEP      L**3/T
     ------------------                 ------------------------

           IN:                                      IN:
           ---                                      ---
             STORAGE =    31778629.3506               STORAGE =       21978.8205
       CONSTANT HEAD =    15133431.6609         CONSTANT HEAD =       31101.8303
               WELLS =           0.0000                 WELLS =           0.0000
            RECHARGE =    15097200.0000              RECHARGE =           0.0000
      STREAM LEAKAGE =    10801037.5245        STREAM LEAKAGE =       24817.8461

            TOTAL IN =    72810298.5360              TOTAL IN =       77898.4970

          OUT:                                     OUT:
          ----                                     ----
             STORAGE =      852658.3177               STORAGE =           0.0000
       CONSTANT HEAD =           0.0000         CONSTANT HEAD =           0.0000
               WELLS =    26850194.2153                 WELLS =       42019.0833
            RECHARGE =           0.0000              RECHARGE =           0.0000
      STREAM LEAKAGE =    45107448.4860        STREAM LEAKAGE =       35879.4190

           TOTAL OUT =    72810301.0190             TOTAL OUT =       77898.5022

            IN - OUT =          -2.4830              IN - OUT =      -5.2853E-03

 PERCENT DISCREPANCY =          -0.00     PERCENT DISCREPANCY =          -0.00






         TIME SUMMARY AT END OF TIME STEP    1 IN STRESS PERIOD    7
                    SECONDS     MINUTES      HOURS       DAYS        YEARS
                    -----------------------------------------------------------
   TIME STEP LENGTH 7.86240E+06 1.31040E+05  2184.0      91.000     0.24914    
 STRESS PERIOD TIME 7.86240E+06 1.31040E+05  2184.0      91.000     0.24914    
         TOTAL TIME 5.52096E+07 9.20160E+05  15336.      639.00      1.7495    
1
1
                            STRESS PERIOD NO.    8, LENGTH =   91.00000    
                            -----------------------------------------------

                              NUMBER OF TIME STEPS =     1

                               MULTIPLIER FOR DELT =     1.500

                            INITIAL TIME STEP SIZE =   91.00000    

 WELL NO.  LAYER   ROW   COL   STRESS RATE         
 --------------------------------------------------
      1      1     14      6       0.000    
      2      1      3      9       0.000    
      3      1     20     10       0.000    
      4      1     14     20       0.000    
      5      1     15     20     -0.1192E+05
      6      1     17     29     -0.1435E+05
      7      1     12     29      -6954.    
      8      1     12     26      -8791.    

      8 WELLS

                 RECHARGE =  1.000000E-03

 REUSING STREAM SEGMENT DATA FROM LAST STRESS PERIOD
 
 SOLVING FOR HEAD 


     6 CALLS TO PCG ROUTINE FOR TIME STEP   1 IN STRESS PERIOD    8
    22 TOTAL ITERATIONS

 OUTPUT CONTROL FOR STRESS PERIOD    8   TIME STEP    1
    SAVE BUDGET
    SAVE HEAD FOR ALL LAYERS
    PRINT HEAD FOR ALL LAYERS
 UBDSV2 SAVING "STREAMFLOW OUT  " ON UNIT  50 AT TIME STEP  1, STRESS PERIOD   8



 STREAM LISTING     PERIOD      8   STEP        1

 LAYER ROW COL. STREAM  RCH.  FLOW INTO     FLOW TO   FLOW OUT OF   OVRLND.     DIRECT     STREAM       STREAM     STREAM     STREAM   STREAMBED  STREAMBED
                SEG.NO.  NO.  STRM. RCH.    AQUIFER    STRM. RCH.    RUNOFF     PRECIP       ET          HEAD       DEPTH      WIDTH   CONDCTNC.   GRADIENT

   1   13    1     1     1    1.0000E+05 -1.9025E+03   1.0190E+05  0.000E+00  0.000E+00  0.000E+00  4.84068E+01  1.455E-01  2.000E+01  2.000E+04 -9.512E-02
   1   13    2     1     2    1.0190E+05 -2.8779E+03   1.0478E+05  0.000E+00  0.000E+00  0.000E+00  4.79316E+01  1.475E-01  2.000E+01  2.000E+04 -1.439E-01
   1   14    3     1     3    1.0478E+05 -4.8084E+02   1.0526E+05  0.000E+00  0.000E+00  0.000E+00  4.74558E+01  1.490E-01  2.000E+01  2.000E+04 -2.404E-02
   1   15    4     1     4    1.0526E+05 -4.5101E+02   1.0571E+05  0.000E+00  0.000E+00  0.000E+00  4.69789E+01  1.494E-01  2.000E+01  2.000E+04 -2.255E-02
   1   16    5     1     5    1.0571E+05 -1.6452E+03   1.0736E+05  0.000E+00  0.000E+00  0.000E+00  4.65025E+01  1.503E-01  2.000E+01  2.000E+04 -8.226E-02
   1   16    6     1     6    1.0736E+05 -1.0494E+03   1.0841E+05  0.000E+00  0.000E+00  0.000E+00  4.60264E+01  1.514E-01  2.000E+01  2.000E+04 -5.247E-02
   1   16    7     1     7    1.0841E+05 -1.0311E+03   1.0944E+05  0.000E+00  0.000E+00  0.000E+00  4.55500E+01  1.523E-01  2.000E+01  2.000E+04 -5.155E-02
   1   16    8     1     8    1.0944E+05 -1.0243E+03   1.1046E+05  0.000E+00  0.000E+00  0.000E+00  4.50736E+01  1.531E-01  2.000E+01  2.000E+04 -5.121E-02
   1   16    9     1     9    1.1046E+05 -1.0106E+03   1.1147E+05  0.000E+00  0.000E+00  0.000E+00  4.45972E+01  1.540E-01  2.000E+01  2.000E+04 -5.053E-02
   1   16   10     1    10    1.1147E+05 -9.8789E+02   1.1246E+05  0.000E+00  0.000E+00  0.000E+00  4.41207E+01  1.548E-01  2.000E+01  2.000E+04 -4.939E-02
   1   16   11     1    11    1.1246E+05 -9.6965E+02   1.1343E+05  0.000E+00  0.000E+00  0.000E+00  4.36442E+01  1.556E-01  2.000E+01  2.000E+04 -4.848E-02
   1   16   12     1    12    1.1343E+05 -1.5652E+03   1.1500E+05  0.000E+00  0.000E+00  0.000E+00  4.31680E+01  1.567E-01  2.000E+01  2.000E+04 -7.826E-02
   1   15   13     1    13    1.1500E+05 -1.4676E+03   1.1646E+05  0.000E+00  0.000E+00  0.000E+00  4.26920E+01  1.579E-01  2.000E+01  2.000E+04 -7.338E-02
   1   14   14     1    14    1.1646E+05 -1.6899E+03   1.1815E+05  0.000E+00  0.000E+00  0.000E+00  4.22160E+01  1.592E-01  2.000E+01  2.000E+04 -8.449E-02
   1   13   15     1    15    1.1815E+05 -1.9824E+03   1.2014E+05  0.000E+00  0.000E+00  0.000E+00  4.17402E+01  1.607E-01  2.000E+01  2.000E+04 -9.912E-02
   1   12   16     1    16    1.2014E+05 -2.8276E+03   1.2296E+05  0.000E+00  0.000E+00  0.000E+00  4.12649E+01  1.626E-01  2.000E+01  2.000E+04 -1.414E-01
   1   12   17     1    17    1.2296E+05 -1.6470E+03   1.2461E+05  0.000E+00  0.000E+00  0.000E+00  4.07894E+01  1.644E-01  2.000E+01  2.000E+04 -8.235E-02
   1   12   18     1    18    1.2461E+05 -1.4320E+03   1.2604E+05  0.000E+00  0.000E+00  0.000E+00  4.03134E+01  1.656E-01  2.000E+01  2.000E+04 -7.160E-02
   1   12   19     1    19    1.2604E+05 -1.9546E+03   1.2800E+05  0.000E+00  0.000E+00  0.000E+00  3.98374E+01  1.670E-01  2.000E+01  2.000E+04 -9.773E-02
   1   13   20     1    20    1.2800E+05  2.6781E+02   1.2773E+05  0.000E+00  0.000E+00  0.000E+00  3.93608E+01  1.676E-01  2.000E+01  2.000E+04  1.339E-02
   1   14   21     1    21    1.2773E+05  1.9782E+03   1.2575E+05  0.000E+00  0.000E+00  0.000E+00  3.88827E+01  1.668E-01  2.000E+01  2.000E+04  9.891E-02
   1   14   22     1    22    1.2575E+05  5.3878E+03   1.2036E+05  0.000E+00  0.000E+00  0.000E+00  3.84025E+01  1.638E-01  2.000E+01  2.000E+04  2.694E-01
   1    9   30     2     1    5.0000E+04  8.6182E+02   4.9138E+04  0.000E+00  0.000E+00  0.000E+00  4.02403E+01  1.153E-01  2.000E+01  2.000E+04  4.309E-02
   1    9   29     2     2    4.9138E+04  5.5670E+02   4.8581E+04  0.000E+00  0.000E+00  0.000E+00  3.99893E+01  1.143E-01  2.000E+01  2.000E+04  2.783E-02
   1    9   28     2     3    4.8581E+04  8.6357E+01   4.8495E+04  0.000E+00  0.000E+00  0.000E+00  3.97388E+01  1.138E-01  2.000E+01  2.000E+04  4.318E-03
   1    9   27     2     4    4.8495E+04 -1.5278E+03   5.0023E+04  0.000E+00  0.000E+00  0.000E+00  3.94898E+01  1.148E-01  2.000E+01  2.000E+04 -7.639E-02
   1   10   26     2     5    5.0023E+04  1.1045E+03   4.8918E+04  0.000E+00  0.000E+00  0.000E+00  3.92401E+01  1.151E-01  2.000E+01  2.000E+04  5.522E-02
   1   11   25     2     6    4.8918E+04  2.1067E+03   4.6812E+04  0.000E+00  0.000E+00  0.000E+00  3.89879E+01  1.129E-01  2.000E+01  2.000E+04  1.053E-01
   1   12   24     2     7    4.6812E+04  2.8043E+02   4.6531E+04  0.000E+00  0.000E+00  0.000E+00  3.87362E+01  1.112E-01  2.000E+01  2.000E+04  1.402E-02
   1   13   23     2     8    4.6531E+04 -2.1084E+02   4.6742E+04  0.000E+00  0.000E+00  0.000E+00  3.84861E+01  1.111E-01  2.000E+01  2.000E+04 -1.054E-02
   1   14   22     2     9    4.6742E+04  2.0348E+03   4.4707E+04  0.000E+00  0.000E+00  0.000E+00  3.82348E+01  1.098E-01  2.000E+01  2.000E+04  1.017E-01
   1   14   22     3     1    1.6507E+05 -8.2591E+03   1.7333E+05  0.000E+00  0.000E+00  0.000E+00  3.77201E+01  1.646E-01  2.000E+01  2.000E+04 -4.130E-01
   1   15   23     3     2    1.7333E+05 -2.2939E+02   1.7356E+05  0.000E+00  0.000E+00  0.000E+00  3.68337E+01  1.670E-01  2.000E+01  2.000E+04 -1.147E-02
   1   15   24     3     3    1.7356E+05 -1.9718E+02   1.7376E+05  0.000E+00  0.000E+00  0.000E+00  3.59449E+01  1.672E-01  2.000E+01  2.000E+04 -9.859E-03
   1   15   25     3     4    1.7376E+05 -1.4939E+02   1.7391E+05  0.000E+00  0.000E+00  0.000E+00  3.50561E+01  1.673E-01  2.000E+01  2.000E+04 -7.470E-03
   1   15   26     3     5    1.7391E+05  4.1263E+01   1.7386E+05  0.000E+00  0.000E+00  0.000E+00  3.41673E+01  1.673E-01  2.000E+01  2.000E+04  2.063E-03
   1   16   27     3     6    1.7386E+05  2.2423E+02   1.7364E+05  0.000E+00  0.000E+00  0.000E+00  3.32783E+01  1.672E-01  2.000E+01  2.000E+04  1.121E-02
   1   17   28     3     7    1.7364E+05  5.5265E+03   1.6811E+05  0.000E+00  0.000E+00  0.000E+00  3.23878E+01  1.655E-01  2.000E+01  2.000E+04  2.763E-01
   1   18   29     3     8    1.6811E+05  2.3138E+03   1.6580E+05  0.000E+00  0.000E+00  0.000E+00  3.14966E+01  1.633E-01  2.000E+01  2.000E+04  1.157E-01
   1   18   30     3     9    1.6580E+05 -1.9974E+02   1.6600E+05  0.000E+00  0.000E+00  0.000E+00  3.06071E+01  1.626E-01  2.000E+01  2.000E+04 -9.987E-03



1
              HEAD IN LAYER   1 AT END OF TIME STEP   1 IN STRESS PERIOD    8
  ---------------------------------------------------------------------------

          1      2      3      4      5      6      7      8      9     10
         11     12     13     14     15     16     17     18     19     20
         21     22     23     24     25     26     27     28     29     30
 .........................................................................
   1  ****** ****** ****** ****** ****** ****** ****** ****** ****** ******
      ****** ****** ****** ****** ****** ****** ****** ****** ****** ******
      ****** ****** ****** ****** ****** ****** ****** ****** ****** ******
   2  ****** ****** ****** ****** ****** ****** ****** ****** ****** ******
      ****** ****** ****** ****** ****** ****** ****** ****** ****** ******
      ****** ****** ****** ****** ****** ****** ****** ****** ****** ******
   3  ****** ****** ****** ****** ****** ****** ****** ****** ****** ******
      ****** ****** ****** ****** ****** ****** ****** ****** ****** ******
      ****** ****** ****** ****** ****** ****** ****** ****** ****** ******
   4  ****** ****** ****** ****** ****** ****** ****** ****** ****** ******
      ****** ****** ****** ****** ****** ****** ****** ****** ****** ******
      ****** ****** ****** ****** ****** ****** ****** ****** ****** ******
   5  ****** ****** ****** ****** ****** ****** ****** ****** ****** ******
      ****** ****** ****** ****** ****** ****** ****** ****** ****** ******
      ****** ****** ****** ****** ****** ****** ****** ****** ****** ******
   6  ****** ****** ****** ****** ****** ****** ****** ****** ****** ******
      ****** ****** ****** ****** ****** ****** ****** ****** ****** ******
      ****** ****** ****** ****** ****** ****** ****** ****** ****** ******
   7  ****** ****** ****** ****** ****** ****** ****** ****** ****** ******
      ****** ****** ****** ****** ****** ****** ****** ****** ****** ******
      ****** ****** ****** ****** ****** ****** ****** ****** ****** ******
   8  ****** ****** ****** ****** ****** ****** ****** ****** ****** ******
      ****** ****** ****** ****** ****** ****** ****** ****** ****** ******
      ****** ****** ****** ****** ****** ****** ****** ****** ****** ******
   9  ****** ****** ****** ****** ****** ****** ****** ****** ****** ******
      ****** ****** ****** ****** ****** ****** ****** ****** ****** ******
      ****** ****** ****** ****** ****** ****** ****** ****** ****** ******
  10  ****** ****** ****** ****** ****** ****** ****** ****** ****** ******
      ****** ****** ****** ****** ****** ****** ****** ****** ****** ******
      ****** ****** ****** ****** ****** ****** ****** ****** ****** ******
  11  ****** ****** ****** ****** ****** ****** ****** ****** ****** ******
      ****** ****** ****** ****** ****** ****** ****** ****** ****** ******
      ****** ****** ****** ****** ****** ****** ****** ****** ****** ******
  12  ****** ****** ****** ****** ****** ****** ****** ****** ****** ******
      ****** ****** ****** ****** ****** ****** ****** ****** ****** ******
      ****** ****** ****** ****** ****** ****** ****** ****** ****** ******
  13  ****** ****** ****** ****** ****** ****** ****** ****** ****** ******
      ****** ****** ****** ****** ****** ****** ****** ****** ****** ******
      ****** ****** ****** ****** ****** ****** ****** ****** ****** ******
  14  ****** ****** ****** ****** ****** ****** ****** ****** ****** ******
      ****** ****** ****** ****** ****** ****** ****** ****** ****** ******
      ****** ****** ****** ****** ****** ****** ****** ****** ****** ******
  15  ****** ****** ****** ****** ****** ****** ****** ****** ****** ******
      ****** ****** ****** ****** ****** ****** ****** ****** ****** ******
      ****** ****** ****** ****** ****** ****** ****** ****** ****** ******
  16  ****** ****** ****** ****** ****** ****** ****** ****** ****** ******
      ****** ****** ****** ****** ****** ****** ****** ****** ****** ******
      ****** ****** ****** ****** ****** ****** ****** ****** ****** ******
  17  ****** ****** ****** ****** ****** ****** ****** ****** ****** ******
      ****** ****** ****** ****** ****** ****** ****** ****** ****** ******
      ****** ****** ****** ****** ****** ****** ****** ****** ****** ******
  18  ****** ****** ****** ****** ****** ****** ****** ****** ****** ******
      ****** ****** ****** ****** ****** ****** ****** ****** ****** ******
      ****** ****** ****** ****** ****** ****** ****** ****** ****** ******
  19  ****** ****** ****** ****** ****** ****** ****** ****** ****** ******
      ****** ****** ****** ****** ****** ****** ****** ****** ****** ******
      ****** ****** ****** ****** ****** ****** ****** ****** ****** ******
  20  ****** ****** ****** ****** ****** ****** ****** ****** ****** ******
      ****** ****** ****** ****** ****** ****** ****** ****** ****** ******
      ****** ****** ****** ****** ****** ****** ****** ****** ****** ******
  21  ****** ****** ****** ****** ****** ****** ****** ****** ****** ******
      ****** ****** ****** ****** ****** ****** ****** ****** ****** ******
      ****** ****** ****** ****** ****** ****** ****** ****** ****** ******
  22  ****** ****** ****** ****** ****** ****** ****** ****** ****** ******
      ****** ****** ****** ****** ****** ****** ****** ****** ****** ******
      ****** ****** ****** ****** ****** ****** ****** ****** ****** ******
  23  ****** ****** ****** ****** ****** ****** ****** ****** ****** ******
      ****** ****** ****** ****** ****** ****** ****** ****** ****** ******
      ****** ****** ****** ****** ****** ****** ****** ****** ****** ******
  24  ****** ****** ****** ****** ****** ****** ****** ****** ****** ******
      ****** ****** ****** ****** ****** ****** ****** ****** ****** ******
      ****** ****** ****** ****** ****** ****** ****** ****** ****** ******
  25  ****** ****** ****** ****** ****** ****** ****** ****** ****** ******
      ****** ****** ****** ****** ****** ****** ****** ****** ****** ******
      ****** ****** ****** ****** ****** ****** ****** ****** ****** ******

 HEAD WILL BE SAVED ON UNIT   51 AT END OF TIME STEP    1, STRESS PERIOD    8
1
  VOLUMETRIC BUDGET FOR ENTIRE MODEL AT END OF TIME STEP    1, STRESS PERIOD   8
  ------------------------------------------------------------------------------

     CUMULATIVE VOLUMES      L**3       RATES FOR THIS TIME STEP      L**3/T
     ------------------                 ------------------------

           IN:                                      IN:
           ---                                      ---
             STORAGE =    31894382.3800               STORAGE =        1272.0113
       CONSTANT HEAD =    17933721.0685         CONSTANT HEAD =       30772.4111
               WELLS =           0.0000                 WELLS =           0.0000
            RECHARGE =    17608800.0000              RECHARGE =       27600.0000
      STREAM LEAKAGE =    12873188.3977        STREAM LEAKAGE =       22770.8887

            TOTAL IN =    80310091.8462              TOTAL IN =       82415.3111

          OUT:                                     OUT:
          ----                                     ----
             STORAGE =     1000641.4159               STORAGE =        1626.1879
       CONSTANT HEAD =           0.0000         CONSTANT HEAD =           0.0000
               WELLS =    30673930.7937                 WELLS =       42019.0833
            RECHARGE =           0.0000              RECHARGE =           0.0000
      STREAM LEAKAGE =    48635521.3536        STREAM LEAKAGE =       38770.0315

           TOTAL OUT =    80310093.5632             TOTAL OUT =       82415.3027

            IN - OUT =          -1.7170              IN - OUT =       8.4176E-03

 PERCENT DISCREPANCY =          -0.00     PERCENT DISCREPANCY =           0.00






         TIME SUMMARY AT END OF TIME STEP    1 IN STRESS PERIOD    8
                    SECONDS     MINUTES      HOURS       DAYS        YEARS
                    -----------------------------------------------------------
   TIME STEP LENGTH 7.86240E+06 1.31040E+05  2184.0      91.000     0.24914    
 STRESS PERIOD TIME 7.86240E+06 1.31040E+05  2184.0      91.000     0.24914    
         TOTAL TIME 6.30720E+07 1.05120E+06  17520.      730.00      1.9986    
1
1
                            STRESS PERIOD NO.    9, LENGTH =   92.00000    
                            -----------------------------------------------

                              NUMBER OF TIME STEPS =     1

                               MULTIPLIER FOR DELT =     1.500

                            INITIAL TIME STEP SIZE =   92.00000    

 WELL NO.  LAYER   ROW   COL   STRESS RATE         
 --------------------------------------------------
      1      1     14      6       0.000    
      2      1      3      9       0.000    
      3      1     20     10       0.000    
      4      1     14     20       0.000    
      5      1     15     20     -0.1192E+05
      6      1     17     29     -0.1435E+05
      7      1     12     29      -6954.    
      8      1     12     26      -8791.    

      8 WELLS

                 RECHARGE =  5.000000E-04

 REUSING STREAM SEGMENT DATA FROM LAST STRESS PERIOD
 
 SOLVING FOR HEAD 


     6 CALLS TO PCG ROUTINE FOR TIME STEP   1 IN STRESS PERIOD    9
    23 TOTAL ITERATIONS

 OUTPUT CONTROL FOR STRESS PERIOD    9   TIME STEP    1
    SAVE BUDGET
    SAVE HEAD FOR ALL LAYERS
    PRINT HEAD FOR ALL LAYERS
 UBDSV2 SAVING "STREAMFLOW OUT  " ON UNIT  50 AT TIME STEP  1, STRESS PERIOD   9



 STREAM LISTING     PERIOD      9   STEP        1

 LAYER ROW COL. STREAM  RCH.  FLOW INTO     FLOW TO   FLOW OUT OF   OVRLND.     DIRECT     STREAM       STREAM     STREAM     STREAM   STREAMBED  STREAMBED
                SEG.NO.  NO.  STRM. RCH.    AQUIFER    STRM. RCH.    RUNOFF     PRECIP       ET          HEAD       DEPTH      WIDTH   CONDCTNC.   GRADIENT

   1   13    1     1     1    1.0000E+05 -1.6933E+03   1.0169E+05  0.000E+00  0.000E+00  0.000E+00  4.84067E+01  1.454E-01  2.000E+01  2.000E+04 -8.466E-02
   1   13    2     1     2    1.0169E+05 -2.6411E+03   1.0433E+05  0.000E+00  0.000E+00  0.000E+00  4.79313E+01  1.473E-01  2.000E+01  2.000E+04 -1.321E-01
   1   14    3     1     3    1.0433E+05 -4.1089E+02   1.0475E+05  0.000E+00  0.000E+00  0.000E+00  4.74554E+01  1.486E-01  2.000E+01  2.000E+04 -2.054E-02
   1   15    4     1     4    1.0475E+05 -3.7989E+02   1.0513E+05  0.000E+00  0.000E+00  0.000E+00  4.69784E+01  1.489E-01  2.000E+01  2.000E+04 -1.899E-02
   1   16    5     1     5    1.0513E+05 -1.4535E+03   1.0658E+05  0.000E+00  0.000E+00  0.000E+00  4.65019E+01  1.497E-01  2.000E+01  2.000E+04 -7.268E-02
   1   16    6     1     6    1.0658E+05 -9.3024E+02   1.0751E+05  0.000E+00  0.000E+00  0.000E+00  4.60257E+01  1.507E-01  2.000E+01  2.000E+04 -4.651E-02
   1   16    7     1     7    1.0751E+05 -9.1566E+02   1.0842E+05  0.000E+00  0.000E+00  0.000E+00  4.55492E+01  1.515E-01  2.000E+01  2.000E+04 -4.578E-02
   1   16    8     1     8    1.0842E+05 -9.1040E+02   1.0934E+05  0.000E+00  0.000E+00  0.000E+00  4.50727E+01  1.522E-01  2.000E+01  2.000E+04 -4.552E-02
   1   16    9     1     9    1.0934E+05 -8.9824E+02   1.1023E+05  0.000E+00  0.000E+00  0.000E+00  4.45962E+01  1.530E-01  2.000E+01  2.000E+04 -4.491E-02
   1   16   10     1    10    1.1023E+05 -8.7748E+02   1.1111E+05  0.000E+00  0.000E+00  0.000E+00  4.41196E+01  1.537E-01  2.000E+01  2.000E+04 -4.387E-02
   1   16   11     1    11    1.1111E+05 -8.6011E+02   1.1197E+05  0.000E+00  0.000E+00  0.000E+00  4.36431E+01  1.544E-01  2.000E+01  2.000E+04 -4.301E-02
   1   16   12     1    12    1.1197E+05 -1.3781E+03   1.1335E+05  0.000E+00  0.000E+00  0.000E+00  4.31667E+01  1.554E-01  2.000E+01  2.000E+04 -6.891E-02
   1   15   13     1    13    1.1335E+05 -1.2604E+03   1.1461E+05  0.000E+00  0.000E+00  0.000E+00  4.26906E+01  1.565E-01  2.000E+01  2.000E+04 -6.302E-02
   1   14   14     1    14    1.1461E+05 -1.4701E+03   1.1608E+05  0.000E+00  0.000E+00  0.000E+00  4.22144E+01  1.576E-01  2.000E+01  2.000E+04 -7.350E-02
   1   13   15     1    15    1.1608E+05 -1.7575E+03   1.1784E+05  0.000E+00  0.000E+00  0.000E+00  4.17385E+01  1.589E-01  2.000E+01  2.000E+04 -8.787E-02
   1   12   16     1    16    1.1784E+05 -2.5957E+03   1.2043E+05  0.000E+00  0.000E+00  0.000E+00  4.12629E+01  1.607E-01  2.000E+01  2.000E+04 -1.298E-01
   1   12   17     1    17    1.2043E+05 -1.4870E+03   1.2192E+05  0.000E+00  0.000E+00  0.000E+00  4.07873E+01  1.623E-01  2.000E+01  2.000E+04 -7.435E-02
   1   12   18     1    18    1.2192E+05 -1.2790E+03   1.2320E+05  0.000E+00  0.000E+00  0.000E+00  4.03112E+01  1.634E-01  2.000E+01  2.000E+04 -6.395E-02
   1   12   19     1    19    1.2320E+05 -1.7704E+03   1.2497E+05  0.000E+00  0.000E+00  0.000E+00  3.98351E+01  1.646E-01  2.000E+01  2.000E+04 -8.852E-02
   1   13   20     1    20    1.2497E+05  4.3993E+02   1.2453E+05  0.000E+00  0.000E+00  0.000E+00  3.93584E+01  1.652E-01  2.000E+01  2.000E+04  2.200E-02
   1   14   21     1    21    1.2453E+05  2.1489E+03   1.2238E+05  0.000E+00  0.000E+00  0.000E+00  3.88801E+01  1.641E-01  2.000E+01  2.000E+04  1.074E-01
   1   14   22     1    22    1.2238E+05  5.4273E+03   1.1695E+05  0.000E+00  0.000E+00  0.000E+00  3.83997E+01  1.611E-01  2.000E+01  2.000E+04  2.714E-01
   1    9   30     2     1    5.0000E+04  9.8444E+02   4.9016E+04  0.000E+00  0.000E+00  0.000E+00  4.02402E+01  1.152E-01  2.000E+01  2.000E+04  4.922E-02
   1    9   29     2     2    4.9016E+04  6.7948E+02   4.8336E+04  0.000E+00  0.000E+00  0.000E+00  3.99890E+01  1.140E-01  2.000E+01  2.000E+04  3.397E-02
   1    9   28     2     3    4.8336E+04  2.1090E+02   4.8125E+04  0.000E+00  0.000E+00  0.000E+00  3.97384E+01  1.134E-01  2.000E+01  2.000E+04  1.055E-02
   1    9   27     2     4    4.8125E+04 -1.3531E+03   4.9478E+04  0.000E+00  0.000E+00  0.000E+00  3.94892E+01  1.142E-01  2.000E+01  2.000E+04 -6.766E-02
   1   10   26     2     5    4.9478E+04  1.2766E+03   4.8202E+04  0.000E+00  0.000E+00  0.000E+00  3.92392E+01  1.142E-01  2.000E+01  2.000E+04  6.383E-02
   1   11   25     2     6    4.8202E+04  2.2714E+03   4.5930E+04  0.000E+00  0.000E+00  0.000E+00  3.89867E+01  1.117E-01  2.000E+01  2.000E+04  1.136E-01
   1   12   24     2     7    4.5930E+04  4.3178E+02   4.5498E+04  0.000E+00  0.000E+00  0.000E+00  3.87348E+01  1.098E-01  2.000E+01  2.000E+04  2.159E-02
   1   13   23     2     8    4.5498E+04 -1.6397E+02   4.5662E+04  0.000E+00  0.000E+00  0.000E+00  3.84846E+01  1.096E-01  2.000E+01  2.000E+04 -8.198E-03
   1   14   22     2     9    4.5662E+04  2.0966E+03   4.3566E+04  0.000E+00  0.000E+00  0.000E+00  3.82332E+01  1.082E-01  2.000E+01  2.000E+04  1.048E-01
   1   14   22     3     1    1.6052E+05 -8.2188E+03   1.6874E+05  0.000E+00  0.000E+00  0.000E+00  3.77174E+01  1.619E-01  2.000E+01  2.000E+04 -4.109E-01
   1   15   23     3     2    1.6874E+05 -1.7698E+02   1.6891E+05  0.000E+00  0.000E+00  0.000E+00  3.68310E+01  1.643E-01  2.000E+01  2.000E+04 -8.849E-03
   1   15   24     3     3    1.6891E+05 -1.5427E+02   1.6907E+05  0.000E+00  0.000E+00  0.000E+00  3.59422E+01  1.644E-01  2.000E+01  2.000E+04 -7.713E-03
   1   15   25     3     4    1.6907E+05 -1.0621E+02   1.6917E+05  0.000E+00  0.000E+00  0.000E+00  3.50534E+01  1.645E-01  2.000E+01  2.000E+04 -5.311E-03
   1   15   26     3     5    1.6917E+05  8.8799E+01   1.6909E+05  0.000E+00  0.000E+00  0.000E+00  3.41645E+01  1.645E-01  2.000E+01  2.000E+04  4.440E-03
   1   16   27     3     6    1.6909E+05  2.8012E+02   1.6881E+05  0.000E+00  0.000E+00  0.000E+00  3.32755E+01  1.644E-01  2.000E+01  2.000E+04  1.401E-02
   1   17   28     3     7    1.6881E+05  5.6796E+03   1.6313E+05  0.000E+00  0.000E+00  0.000E+00  3.23849E+01  1.627E-01  2.000E+01  2.000E+04  2.840E-01
   1   18   29     3     8    1.6313E+05  2.4890E+03   1.6064E+05  0.000E+00  0.000E+00  0.000E+00  3.14936E+01  1.603E-01  2.000E+01  2.000E+04  1.244E-01
   1   18   30     3     9    1.6064E+05 -6.8052E+01   1.6071E+05  0.000E+00  0.000E+00  0.000E+00  3.06040E+01  1.595E-01  2.000E+01  2.000E+04 -3.403E-03



1
              HEAD IN LAYER   1 AT END OF TIME STEP   1 IN STRESS PERIOD    9
  ---------------------------------------------------------------------------

          1      2      3      4      5      6      7      8      9     10
         11     12     13     14     15     16     17     18     19     20
         21     22     23     24     25     26     27     28     29     30
 .........................................................................
   1  ****** ****** ****** ****** ****** ****** ****** ****** ****** ******
      ****** ****** ****** ****** ****** ****** ****** ****** ****** ******
      ****** ****** ****** ****** ****** ****** ****** ****** ****** ******
   2  ****** ****** ****** ****** ****** ****** ****** ****** ****** ******
      ****** ****** ****** ****** ****** ****** ****** ****** ****** ******
      ****** ****** ****** ****** ****** ****** ****** ****** ****** ******
   3  ****** ****** ****** ****** ****** ****** ****** ****** ****** ******
      ****** ****** ****** ****** ****** ****** ****** ****** ****** ******
      ****** ****** ****** ****** ****** ****** ****** ****** ****** ******
   4  ****** ****** ****** ****** ****** ****** ****** ****** ****** ******
      ****** ****** ****** ****** ****** ****** ****** ****** ****** ******
      ****** ****** ****** ****** ****** ****** ****** ****** ****** ******
   5  ****** ****** ****** ****** ****** ****** ****** ****** ****** ******
      ****** ****** ****** ****** ****** ****** ****** ****** ****** ******
      ****** ****** ****** ****** ****** ****** ****** ****** ****** ******
   6  ****** ****** ****** ****** ****** ****** ****** ****** ****** ******
      ****** ****** ****** ****** ****** ****** ****** ****** ****** ******
      ****** ****** ****** ****** ****** ****** ****** ****** ****** ******
   7  ****** ****** ****** ****** ****** ****** ****** ****** ****** ******
      ****** ****** ****** ****** ****** ****** ****** ****** ****** ******
      ****** ****** ****** ****** ****** ****** ****** ****** ****** ******
   8  ****** ****** ****** ****** ****** ****** ****** ****** ****** ******
      ****** ****** ****** ****** ****** ****** ****** ****** ****** ******
      ****** ****** ****** ****** ****** ****** ****** ****** ****** ******
   9  ****** ****** ****** ****** ****** ****** ****** ****** ****** ******
      ****** ****** ****** ****** ****** ****** ****** ****** ****** ******
      ****** ****** ****** ****** ****** ****** ****** ****** ****** ******
  10  ****** ****** ****** ****** ****** ****** ****** ****** ****** ******
      ****** ****** ****** ****** ****** ****** ****** ****** ****** ******
      ****** ****** ****** ****** ****** ****** ****** ****** ****** ******
  11  ****** ****** ****** ****** ****** ****** ****** ****** ****** ******
      ****** ****** ****** ****** ****** ****** ****** ****** ****** ******
      ****** ****** ****** ****** ****** ****** ****** ****** ****** ******
  12  ****** ****** ****** ****** ****** ****** ****** ****** ****** ******
      ****** ****** ****** ****** ****** ****** ****** ****** ****** ******
      ****** ****** ****** ****** ****** ****** ****** ****** ****** ******
  13  ****** ****** ****** ****** ****** ****** ****** ****** ****** ******
      ****** ****** ****** ****** ****** ****** ****** ****** ****** ******
      ****** ****** ****** ****** ****** ****** ****** ****** ****** ******
  14  ****** ****** ****** ****** ****** ****** ****** ****** ****** ******
      ****** ****** ****** ****** ****** ****** ****** ****** ****** ******
      ****** ****** ****** ****** ****** ****** ****** ****** ****** ******
  15  ****** ****** ****** ****** ****** ****** ****** ****** ****** ******
      ****** ****** ****** ****** ****** ****** ****** ****** ****** ******
      ****** ****** ****** ****** ****** ****** ****** ****** ****** ******
  16  ****** ****** ****** ****** ****** ****** ****** ****** ****** ******
      ****** ****** ****** ****** ****** ****** ****** ****** ****** ******
      ****** ****** ****** ****** ****** ****** ****** ****** ****** ******
  17  ****** ****** ****** ****** ****** ****** ****** ****** ****** ******
      ****** ****** ****** ****** ****** ****** ****** ****** ****** ******
      ****** ****** ****** ****** ****** ****** ****** ****** ****** ******
  18  ****** ****** ****** ****** ****** ****** ****** ****** ****** ******
      ****** ****** ****** ****** ****** ****** ****** ****** ****** ******
      ****** ****** ****** ****** ****** ****** ****** ****** ****** ******
  19  ****** ****** ****** ****** ****** ****** ****** ****** ****** ******
      ****** ****** ****** ****** ****** ****** ****** ****** ****** ******
      ****** ****** ****** ****** ****** ****** ****** ****** ****** ******
  20  ****** ****** ****** ****** ****** ****** ****** ****** ****** ******
      ****** ****** ****** ****** ****** ****** ****** ****** ****** ******
      ****** ****** ****** ****** ****** ****** ****** ****** ****** ******
  21  ****** ****** ****** ****** ****** ****** ****** ****** ****** ******
      ****** ****** ****** ****** ****** ****** ****** ****** ****** ******
      ****** ****** ****** ****** ****** ****** ****** ****** ****** ******
  22  ****** ****** ****** ****** ****** ****** ****** ****** ****** ******
      ****** ****** ****** ****** ****** ****** ****** ****** ****** ******
      ****** ****** ****** ****** ****** ****** ****** ****** ****** ******
  23  ****** ****** ****** ****** ****** ****** ****** ****** ****** ******
      ****** ****** ****** ****** ****** ****** ****** ****** ****** ******
      ****** ****** ****** ****** ****** ****** ****** ****** ****** ******
  24  ****** ****** ****** ****** ****** ****** ****** ****** ****** ******
      ****** ****** ****** ****** ****** ****** ****** ****** ****** ******
      ****** ****** ****** ****** ****** ****** ****** ****** ****** ******
  25  ****** ****** ****** ****** ****** ****** ****** ****** ****** ******
      ****** ****** ****** ****** ****** ****** ****** ****** ****** ******
      ****** ****** ****** ****** ****** ****** ****** ****** ****** ******

 HEAD WILL BE SAVED ON UNIT   51 AT END OF TIME STEP    1, STRESS PERIOD    9
1
  VOLUMETRIC BUDGET FOR ENTIRE MODEL AT END OF TIME STEP    1, STRESS PERIOD   9
  ------------------------------------------------------------------------------

     CUMULATIVE VOLUMES      L**3       RATES FOR THIS TIME STEP      L**3/T
     ------------------                 ------------------------

           IN:                                      IN:
           ---                                      ---
             STORAGE =    32539283.6586               STORAGE =        7009.7965
       CONSTANT HEAD =    20869881.3901         CONSTANT HEAD =       31914.7861
               WELLS =           0.0000                 WELLS =           0.0000
            RECHARGE =    18878400.0000              RECHARGE =       13800.0000
      STREAM LEAKAGE =    15127636.8011        STREAM LEAKAGE =       24504.8739

            TOTAL IN =    87415201.8497              TOTAL IN =       77229.4566

          OUT:                                     OUT:
          ----                                     ----
             STORAGE =     1000641.4159               STORAGE =           0.0000
       CONSTANT HEAD =           0.0000         CONSTANT HEAD =           0.0000
               WELLS =    34539686.4554                 WELLS =       42019.0833
            RECHARGE =           0.0000              RECHARGE =           0.0000
      STREAM LEAKAGE =    51874875.7618        STREAM LEAKAGE =       35210.3740

           TOTAL OUT =    87415203.6331             TOTAL OUT =       77229.4573

            IN - OUT =          -1.7834              IN - OUT =      -7.2116E-04

 PERCENT DISCREPANCY =          -0.00     PERCENT DISCREPANCY =          -0.00






         TIME SUMMARY AT END OF TIME STEP    1 IN STRESS PERIOD    9
                    SECONDS     MINUTES      HOURS       DAYS        YEARS
                    -----------------------------------------------------------
   TIME STEP LENGTH 7.94880E+06 1.32480E+05  2208.0      92.000     0.25188    
 STRESS PERIOD TIME 7.94880E+06 1.32480E+05  2208.0      92.000     0.25188    
         TOTAL TIME 7.10208E+07 1.18368E+06  19728.      822.00      2.2505    
1
1
                            STRESS PERIOD NO.   10, LENGTH =   91.00000    
                            -----------------------------------------------

                              NUMBER OF TIME STEPS =     1

                               MULTIPLIER FOR DELT =     1.500

                            INITIAL TIME STEP SIZE =   91.00000    

 WELL NO.  LAYER   ROW   COL   STRESS RATE         
 --------------------------------------------------
      1      1     14      6       0.000    
      2      1      3      9       0.000    
      3      1     20     10       0.000    
      4      1     14     20       0.000    
      5      1     15     20     -0.1192E+05
      6      1     17     29     -0.1435E+05
      7      1     12     29      -6954.    
      8      1     12     26      -8791.    

      8 WELLS

                 RECHARGE =  2.000000E-03

 REUSING STREAM SEGMENT DATA FROM LAST STRESS PERIOD
 
 SOLVING FOR HEAD 


     7 CALLS TO PCG ROUTINE FOR TIME STEP   1 IN STRESS PERIOD   10
    26 TOTAL ITERATIONS

 OUTPUT CONTROL FOR STRESS PERIOD   10   TIME STEP    1
    SAVE BUDGET
    SAVE HEAD FOR ALL LAYERS
    PRINT HEAD FOR ALL LAYERS
 UBDSV2 SAVING "STREAMFLOW OUT  " ON UNIT  50 AT TIME STEP  1, STRESS PERIOD  10



 STREAM LISTING     PERIOD     10   STEP        1

 LAYER ROW COL. STREAM  RCH.  FLOW INTO     FLOW TO   FLOW OUT OF   OVRLND.     DIRECT     STREAM       STREAM     STREAM     STREAM   STREAMBED  STREAMBED
                SEG.NO.  NO.  STRM. RCH.    AQUIFER    STRM. RCH.    RUNOFF     PRECIP       ET          HEAD       DEPTH      WIDTH   CONDCTNC.   GRADIENT

   1   13    1     1     1    1.0000E+05 -2.1496E+03   1.0215E+05  0.000E+00  0.000E+00  0.000E+00  4.84069E+01  1.456E-01  2.000E+01  2.000E+04 -1.075E-01
   1   13    2     1     2    1.0215E+05 -3.1471E+03   1.0530E+05  0.000E+00  0.000E+00  0.000E+00  4.79320E+01  1.479E-01  2.000E+01  2.000E+04 -1.574E-01
   1   14    3     1     3    1.0530E+05 -5.9808E+02   1.0589E+05  0.000E+00  0.000E+00  0.000E+00  4.74563E+01  1.495E-01  2.000E+01  2.000E+04 -2.990E-02
   1   15    4     1     4    1.0589E+05 -5.7986E+02   1.0647E+05  0.000E+00  0.000E+00  0.000E+00  4.69795E+01  1.500E-01  2.000E+01  2.000E+04 -2.899E-02
   1   16    5     1     5    1.0647E+05 -2.0731E+03   1.0855E+05  0.000E+00  0.000E+00  0.000E+00  4.65033E+01  1.511E-01  2.000E+01  2.000E+04 -1.037E-01
   1   16    6     1     6    1.0855E+05 -1.2930E+03   1.0984E+05  0.000E+00  0.000E+00  0.000E+00  4.60275E+01  1.525E-01  2.000E+01  2.000E+04 -6.465E-02
   1   16    7     1     7    1.0984E+05 -1.2607E+03   1.1110E+05  0.000E+00  0.000E+00  0.000E+00  4.55513E+01  1.536E-01  2.000E+01  2.000E+04 -6.304E-02
   1   16    8     1     8    1.1110E+05 -1.2500E+03   1.1235E+05  0.000E+00  0.000E+00  0.000E+00  4.50751E+01  1.546E-01  2.000E+01  2.000E+04 -6.250E-02
   1   16    9     1     9    1.1235E+05 -1.2363E+03   1.1359E+05  0.000E+00  0.000E+00  0.000E+00  4.45988E+01  1.556E-01  2.000E+01  2.000E+04 -6.181E-02
   1   16   10     1    10    1.1359E+05 -1.2156E+03   1.1480E+05  0.000E+00  0.000E+00  0.000E+00  4.41226E+01  1.566E-01  2.000E+01  2.000E+04 -6.078E-02
   1   16   11     1    11    1.1480E+05 -1.2016E+03   1.1600E+05  0.000E+00  0.000E+00  0.000E+00  4.36463E+01  1.576E-01  2.000E+01  2.000E+04 -6.008E-02
   1   16   12     1    12    1.1600E+05 -1.9484E+03   1.1795E+05  0.000E+00  0.000E+00  0.000E+00  4.31703E+01  1.589E-01  2.000E+01  2.000E+04 -9.742E-02
   1   15   13     1    13    1.1795E+05 -1.8485E+03   1.1980E+05  0.000E+00  0.000E+00  0.000E+00  4.26946E+01  1.605E-01  2.000E+01  2.000E+04 -9.242E-02
   1   14   14     1    14    1.1980E+05 -2.0660E+03   1.2187E+05  0.000E+00  0.000E+00  0.000E+00  4.22189E+01  1.620E-01  2.000E+01  2.000E+04 -1.033E-01
   1   13   15     1    15    1.2187E+05 -2.3439E+03   1.2421E+05  0.000E+00  0.000E+00  0.000E+00  4.17434E+01  1.638E-01  2.000E+01  2.000E+04 -1.172E-01
   1   12   16     1    16    1.2421E+05 -3.1616E+03   1.2737E+05  0.000E+00  0.000E+00  0.000E+00  4.12683E+01  1.660E-01  2.000E+01  2.000E+04 -1.581E-01
   1   12   17     1    17    1.2737E+05 -1.9146E+03   1.2929E+05  0.000E+00  0.000E+00  0.000E+00  4.07930E+01  1.680E-01  2.000E+01  2.000E+04 -9.573E-02
   1   12   18     1    18    1.2929E+05 -1.7022E+03   1.3099E+05  0.000E+00  0.000E+00  0.000E+00  4.03171E+01  1.694E-01  2.000E+01  2.000E+04 -8.511E-02
   1   12   19     1    19    1.3099E+05 -2.2911E+03   1.3328E+05  0.000E+00  0.000E+00  0.000E+00  3.98414E+01  1.710E-01  2.000E+01  2.000E+04 -1.146E-01
   1   13   20     1    20    1.3328E+05 -8.2485E+01   1.3336E+05  0.000E+00  0.000E+00  0.000E+00  3.93651E+01  1.719E-01  2.000E+01  2.000E+04 -4.124E-03
   1   14   21     1    21    1.3336E+05  1.6231E+03   1.3174E+05  0.000E+00  0.000E+00  0.000E+00  3.88872E+01  1.713E-01  2.000E+01  2.000E+04  8.115E-02
   1   14   22     1    22    1.3174E+05  5.2964E+03   1.2644E+05  0.000E+00  0.000E+00  0.000E+00  3.84072E+01  1.686E-01  2.000E+01  2.000E+04  2.648E-01
   1    9   30     2     1    5.0000E+04  5.6971E+02   4.9430E+04  0.000E+00  0.000E+00  0.000E+00  4.02405E+01  1.155E-01  2.000E+01  2.000E+04  2.849E-02
   1    9   29     2     2    4.9430E+04  2.6701E+02   4.9163E+04  0.000E+00  0.000E+00  0.000E+00  3.99899E+01  1.149E-01  2.000E+01  2.000E+04  1.335E-02
   1    9   28     2     3    4.9163E+04 -2.0084E+02   4.9364E+04  0.000E+00  0.000E+00  0.000E+00  3.97398E+01  1.148E-01  2.000E+01  2.000E+04 -1.004E-02
   1    9   27     2     4    4.9364E+04 -1.9074E+03   5.1271E+04  0.000E+00  0.000E+00  0.000E+00  3.94913E+01  1.163E-01  2.000E+01  2.000E+04 -9.537E-02
   1   10   26     2     5    5.1271E+04  7.2263E+02   5.0549E+04  0.000E+00  0.000E+00  0.000E+00  3.92421E+01  1.171E-01  2.000E+01  2.000E+04  3.613E-02
   1   11   25     2     6    5.0549E+04  1.7421E+03   4.8807E+04  0.000E+00  0.000E+00  0.000E+00  3.89904E+01  1.154E-01  2.000E+01  2.000E+04  8.710E-02
   1   12   24     2     7    4.8807E+04 -4.7290E+01   4.8854E+04  0.000E+00  0.000E+00  0.000E+00  3.87392E+01  1.142E-01  2.000E+01  2.000E+04 -2.364E-03
   1   13   23     2     8    4.8854E+04 -3.1276E+02   4.9167E+04  0.000E+00  0.000E+00  0.000E+00  3.84895E+01  1.145E-01  2.000E+01  2.000E+04 -1.564E-02
   1   14   22     2     9    4.9167E+04  1.9187E+03   4.7248E+04  0.000E+00  0.000E+00  0.000E+00  3.82384E+01  1.134E-01  2.000E+01  2.000E+04  9.594E-02
   1   14   22     3     1    1.7369E+05 -8.3458E+03   1.8204E+05  0.000E+00  0.000E+00  0.000E+00  3.77251E+01  1.696E-01  2.000E+01  2.000E+04 -4.173E-01
   1   15   23     3     2    1.8204E+05 -3.3960E+02   1.8238E+05  0.000E+00  0.000E+00  0.000E+00  3.68387E+01  1.720E-01  2.000E+01  2.000E+04 -1.698E-02
   1   15   24     3     3    1.8238E+05 -2.9149E+02   1.8267E+05  0.000E+00  0.000E+00  0.000E+00  3.59500E+01  1.722E-01  2.000E+01  2.000E+04 -1.457E-02
   1   15   25     3     4    1.8267E+05 -2.4684E+02   1.8292E+05  0.000E+00  0.000E+00  0.000E+00  3.50613E+01  1.724E-01  2.000E+01  2.000E+04 -1.234E-02
   1   15   26     3     5    1.8292E+05 -7.3474E+01   1.8299E+05  0.000E+00  0.000E+00  0.000E+00  3.41725E+01  1.725E-01  2.000E+01  2.000E+04 -3.674E-03
   1   16   27     3     6    1.8299E+05  9.4202E+01   1.8290E+05  0.000E+00  0.000E+00  0.000E+00  3.32836E+01  1.725E-01  2.000E+01  2.000E+04  4.710E-03
   1   17   28     3     7    1.8290E+05  5.1588E+03   1.7774E+05  0.000E+00  0.000E+00  0.000E+00  3.23932E+01  1.710E-01  2.000E+01  2.000E+04  2.579E-01
   1   18   29     3     8    1.7774E+05  1.9372E+03   1.7580E+05  0.000E+00  0.000E+00  0.000E+00  3.15023E+01  1.689E-01  2.000E+01  2.000E+04  9.686E-02
   1   18   30     3     9    1.7580E+05 -4.9353E+02   1.7629E+05  0.000E+00  0.000E+00  0.000E+00  3.06130E+01  1.685E-01  2.000E+01  2.000E+04 -2.468E-02



1
              HEAD IN LAYER   1 AT END OF TIME STEP   1 IN STRESS PERIOD   10
  ---------------------------------------------------------------------------

          1      2      3      4      5      6      7      8      9     10
         11     12     13     14     15     16     17     18     19     20
         21     22     23     24     25     26     27     28     29     30
 .........................................................................
   1  ****** ****** ****** ****** ****** ****** ****** ****** ****** ******
      ****** ****** ****** ****** ****** ****** ****** ****** ****** ******
      ****** ****** ****** ****** ****** ****** ****** ****** ****** ******
   2  ****** ****** ****** ****** ****** ****** ****** ****** ****** ******
      ****** ****** ****** ****** ****** ****** ****** ****** ****** ******
      ****** ****** ****** ****** ****** ****** ****** ****** ****** ******
   3  ****** ****** ****** ****** ****** ****** ****** ****** ****** ******
      ****** ****** ****** ****** ****** ****** ****** ****** ****** ******
      ****** ****** ****** ****** ****** ****** ****** ****** ****** ******
   4  ****** ****** ****** ****** ****** ****** ****** ****** ****** ******
      ****** ****** ****** ****** ****** ****** ****** ****** ****** ******
      ****** ****** ****** ****** ****** ****** ****** ****** ****** ******
   5  ****** ****** ****** ****** ****** ****** ****** ****** ****** ******
      ****** ****** ****** ****** ****** ****** ****** ****** ****** ******
      ****** ****** ****** ****** ****** ****** ****** ****** ****** ******
   6  ****** ****** ****** ****** ****** ****** ****** ****** ****** ******
      ****** ****** ****** ****** ****** ****** ****** ****** ****** ******
      ****** ****** ****** ****** ****** ****** ****** ****** ****** ******
   7  ****** ****** ****** ****** ****** ****** ****** ****** ****** ******
      ****** ****** ****** ****** ****** ****** ****** ****** ****** ******
      ****** ****** ****** ****** ****** ****** ****** ****** ****** ******
   8  ****** ****** ****** ****** ****** ****** ****** ****** ****** ******
      ****** ****** ****** ****** ****** ****** ****** ****** ****** ******
      ****** ****** ****** ****** ****** ****** ****** ****** ****** ******
   9  ****** ****** ****** ****** ****** ****** ****** ****** ****** ******
      ****** ****** ****** ****** ****** ****** ****** ****** ****** ******
      ****** ****** ****** ****** ****** ****** ****** ****** ****** ******
  10  ****** ****** ****** ****** ****** ****** ****** ****** ****** ******
      ****** ****** ****** ****** ****** ****** ****** ****** ****** ******
      ****** ****** ****** ****** ****** ****** ****** ****** ****** ******
  11  ****** ****** ****** ****** ****** ****** ****** ****** ****** ******
      ****** ****** ****** ****** ****** ****** ****** ****** ****** ******
      ****** ****** ****** ****** ****** ****** ****** ****** ****** ******
  12  ****** ****** ****** ****** ****** ****** ****** ****** ****** ******
      ****** ****** ****** ****** ****** ****** ****** ****** ****** ******
      ****** ****** ****** ****** ****** ****** ****** ****** ****** ******
  13  ****** ****** ****** ****** ****** ****** ****** ****** ****** ******
      ****** ****** ****** ****** ****** ****** ****** ****** ****** ******
      ****** ****** ****** ****** ****** ****** ****** ****** ****** ******
  14  ****** ****** ****** ****** ****** ****** ****** ****** ****** ******
      ****** ****** ****** ****** ****** ****** ****** ****** ****** ******
      ****** ****** ****** ****** ****** ****** ****** ****** ****** ******
  15  ****** ****** ****** ****** ****** ****** ****** ****** ****** ******
      ****** ****** ****** ****** ****** ****** ****** ****** ****** ******
      ****** ****** ****** ****** ****** ****** ****** ****** ****** ******
  16  ****** ****** ****** ****** ****** ****** ****** ****** ****** ******
      ****** ****** ****** ****** ****** ****** ****** ****** ****** ******
      ****** ****** ****** ****** ****** ****** ****** ****** ****** ******
  17  ****** ****** ****** ****** ****** ****** ****** ****** ****** ******
      ****** ****** ****** ****** ****** ****** ****** ****** ****** ******
      ****** ****** ****** ****** ****** ****** ****** ****** ****** ******
  18  ****** ****** ****** ****** ****** ****** ****** ****** ****** ******
      ****** ****** ****** ****** ****** ****** ****** ****** ****** ******
      ****** ****** ****** ****** ****** ****** ****** ****** ****** ******
  19  ****** ****** ****** ****** ****** ****** ****** ****** ****** ******
      ****** ****** ****** ****** ****** ****** ****** ****** ****** ******
      ****** ****** ****** ****** ****** ****** ****** ****** ****** ******
  20  ****** ****** ****** ****** ****** ****** ****** ****** ****** ******
      ****** ****** ****** ****** ****** ****** ****** ****** ****** ******
      ****** ****** ****** ****** ****** ****** ****** ****** ****** ******
  21  ****** ****** ****** ****** ****** ****** ****** ****** ****** ******
      ****** ****** ****** ****** ****** ****** ****** ****** ****** ******
      ****** ****** ****** ****** ****** ****** ****** ****** ****** ******
  22  ****** ****** ****** ****** ****** ****** ****** ****** ****** ******
      ****** ****** ****** ****** ****** ****** ****** ****** ****** ******
      ****** ****** ****** ****** ****** ****** ****** ****** ****** ******
  23  ****** ****** ****** ****** ****** ****** ****** ****** ****** ******
      ****** ****** ****** ****** ****** ****** ****** ****** ****** ******
      ****** ****** ****** ****** ****** ****** ****** ****** ****** ******
  24  ****** ****** ****** ****** ****** ****** ****** ****** ****** ******
      ****** ****** ****** ****** ****** ****** ****** ****** ****** ******
      ****** ****** ****** ****** ****** ****** ****** ****** ****** ******
  25  ****** ****** ****** ****** ****** ****** ****** ****** ****** ******
      ****** ****** ****** ****** ****** ****** ****** ****** ****** ******
      ****** ****** ****** ****** ****** ****** ****** ****** ****** ******

 HEAD WILL BE SAVED ON UNIT   51 AT END OF TIME STEP    1, STRESS PERIOD   10
1
  VOLUMETRIC BUDGET FOR ENTIRE MODEL AT END OF TIME STEP    1, STRESS PERIOD  10
  ------------------------------------------------------------------------------

     CUMULATIVE VOLUMES      L**3       RATES FOR THIS TIME STEP      L**3/T
     ------------------                 ------------------------

           IN:                                      IN:
           ---                                      ---
             STORAGE =    32539283.6586               STORAGE =           0.0000
       CONSTANT HEAD =    23503856.2450         CONSTANT HEAD =       28944.7786
               WELLS =           0.0000                 WELLS =           0.0000
            RECHARGE =    23901600.0000              RECHARGE =       55200.0000
      STREAM LEAKAGE =    16886647.5346        STREAM LEAKAGE =       19329.7883

            TOTAL IN =    96831387.4382              TOTAL IN =      103474.5669

          OUT:                                     OUT:
          ----                                     ----
             STORAGE =     2441428.6023               STORAGE =       15832.8262
       CONSTANT HEAD =           0.0000         CONSTANT HEAD =           0.0000
               WELLS =    38363423.0338                 WELLS =       42019.0833
            RECHARGE =           0.0000              RECHARGE =           0.0000
      STREAM LEAKAGE =    56026537.3187        STREAM LEAKAGE =       45622.6545

           TOTAL OUT =    96831388.9548             TOTAL OUT =      103474.5640

            IN - OUT =          -1.5166              IN - OUT =       2.9322E-03

 PERCENT DISCREPANCY =          -0.00     PERCENT DISCREPANCY =           0.00






         TIME SUMMARY AT END OF TIME STEP    1 IN STRESS PERIOD   10
                    SECONDS     MINUTES      HOURS       DAYS        YEARS
                    -----------------------------------------------------------
   TIME STEP LENGTH 7.86240E+06 1.31040E+05  2184.0      91.000     0.24914    
 STRESS PERIOD TIME 7.86240E+06 1.31040E+05  2184.0      91.000     0.24914    
         TOTAL TIME 7.88832E+07 1.31472E+06  21912.      913.00      2.4997    
1
1
                            STRESS PERIOD NO.   11, LENGTH =   91.00000    
                            -----------------------------------------------

                              NUMBER OF TIME STEPS =     1

                               MULTIPLIER FOR DELT =     1.500

                            INITIAL TIME STEP SIZE =   91.00000    

 WELL NO.  LAYER   ROW   COL   STRESS RATE         
 --------------------------------------------------
      1      1     14      6       0.000    
      2      1      3      9       0.000    
      3      1     20     10       0.000    
      4      1     14     20       0.000    
      5      1     15     20     -0.1192E+05
      6      1     17     29     -0.1435E+05
      7      1     12     29      -6954.    
      8      1     12     26      -8791.    

      8 WELLS

                 RECHARGE =   0.00000    

 REUSING STREAM SEGMENT DATA FROM LAST STRESS PERIOD
 
 SOLVING FOR HEAD 


     7 CALLS TO PCG ROUTINE FOR TIME STEP   1 IN STRESS PERIOD   11
    26 TOTAL ITERATIONS

 OUTPUT CONTROL FOR STRESS PERIOD   11   TIME STEP    1
    SAVE BUDGET
    SAVE HEAD FOR ALL LAYERS
    PRINT HEAD FOR ALL LAYERS
 UBDSV2 SAVING "STREAMFLOW OUT  " ON UNIT  50 AT TIME STEP  1, STRESS PERIOD  11



 STREAM LISTING     PERIOD     11   STEP        1

 LAYER ROW COL. STREAM  RCH.  FLOW INTO     FLOW TO   FLOW OUT OF   OVRLND.     DIRECT     STREAM       STREAM     STREAM     STREAM   STREAMBED  STREAMBED
                SEG.NO.  NO.  STRM. RCH.    AQUIFER    STRM. RCH.    RUNOFF     PRECIP       ET          HEAD       DEPTH      WIDTH   CONDCTNC.   GRADIENT

   1   13    1     1     1    1.0000E+05 -1.5847E+03   1.0158E+05  0.000E+00  0.000E+00  0.000E+00  4.84067E+01  1.453E-01  2.000E+01  2.000E+04 -7.923E-02
   1   13    2     1     2    1.0158E+05 -2.5182E+03   1.0410E+05  0.000E+00  0.000E+00  0.000E+00  4.79312E+01  1.471E-01  2.000E+01  2.000E+04 -1.259E-01
   1   14    3     1     3    1.0410E+05 -3.6769E+02   1.0447E+05  0.000E+00  0.000E+00  0.000E+00  4.74552E+01  1.483E-01  2.000E+01  2.000E+04 -1.838E-02
   1   15    4     1     4    1.0447E+05 -3.3838E+02   1.0481E+05  0.000E+00  0.000E+00  0.000E+00  4.69782E+01  1.486E-01  2.000E+01  2.000E+04 -1.692E-02
   1   16    5     1     5    1.0481E+05 -1.3857E+03   1.0619E+05  0.000E+00  0.000E+00  0.000E+00  4.65016E+01  1.494E-01  2.000E+01  2.000E+04 -6.928E-02
   1   16    6     1     6    1.0619E+05 -8.7919E+02   1.0707E+05  0.000E+00  0.000E+00  0.000E+00  4.60253E+01  1.503E-01  2.000E+01  2.000E+04 -4.396E-02
   1   16    7     1     7    1.0707E+05 -8.6449E+02   1.0794E+05  0.000E+00  0.000E+00  0.000E+00  4.55488E+01  1.511E-01  2.000E+01  2.000E+04 -4.322E-02
   1   16    8     1     8    1.0794E+05 -8.5929E+02   1.0880E+05  0.000E+00  0.000E+00  0.000E+00  4.50723E+01  1.518E-01  2.000E+01  2.000E+04 -4.296E-02
   1   16    9     1     9    1.0880E+05 -8.4774E+02   1.0965E+05  0.000E+00  0.000E+00  0.000E+00  4.45957E+01  1.525E-01  2.000E+01  2.000E+04 -4.239E-02
   1   16   10     1    10    1.0965E+05 -8.2806E+02   1.1047E+05  0.000E+00  0.000E+00  0.000E+00  4.41191E+01  1.532E-01  2.000E+01  2.000E+04 -4.140E-02
   1   16   11     1    11    1.1047E+05 -8.1215E+02   1.1129E+05  0.000E+00  0.000E+00  0.000E+00  4.36425E+01  1.539E-01  2.000E+01  2.000E+04 -4.061E-02
   1   16   12     1    12    1.1129E+05 -1.3033E+03   1.1259E+05  0.000E+00  0.000E+00  0.000E+00  4.31661E+01  1.548E-01  2.000E+01  2.000E+04 -6.516E-02
   1   15   13     1    13    1.1259E+05 -1.1612E+03   1.1375E+05  0.000E+00  0.000E+00  0.000E+00  4.26899E+01  1.558E-01  2.000E+01  2.000E+04 -5.806E-02
   1   14   14     1    14    1.1375E+05 -1.3614E+03   1.1511E+05  0.000E+00  0.000E+00  0.000E+00  4.22137E+01  1.568E-01  2.000E+01  2.000E+04 -6.807E-02
   1   13   15     1    15    1.1511E+05 -1.6452E+03   1.1676E+05  0.000E+00  0.000E+00  0.000E+00  4.17376E+01  1.581E-01  2.000E+01  2.000E+04 -8.226E-02
   1   12   16     1    16    1.1676E+05 -2.4870E+03   1.1924E+05  0.000E+00  0.000E+00  0.000E+00  4.12620E+01  1.598E-01  2.000E+01  2.000E+04 -1.244E-01
   1   12   17     1    17    1.1924E+05 -1.4093E+03   1.2065E+05  0.000E+00  0.000E+00  0.000E+00  4.07863E+01  1.613E-01  2.000E+01  2.000E+04 -7.046E-02
   1   12   18     1    18    1.2065E+05 -1.2043E+03   1.2186E+05  0.000E+00  0.000E+00  0.000E+00  4.03101E+01  1.624E-01  2.000E+01  2.000E+04 -6.021E-02
   1   12   19     1    19    1.2186E+05 -1.6798E+03   1.2354E+05  0.000E+00  0.000E+00  0.000E+00  3.98340E+01  1.635E-01  2.000E+01  2.000E+04 -8.399E-02
   1   13   20     1    20    1.2354E+05  5.2926E+02   1.2301E+05  0.000E+00  0.000E+00  0.000E+00  3.93572E+01  1.640E-01  2.000E+01  2.000E+04  2.646E-02
   1   14   21     1    21    1.2301E+05  2.2197E+03   1.2079E+05  0.000E+00  0.000E+00  0.000E+00  3.88788E+01  1.629E-01  2.000E+01  2.000E+04  1.110E-01
   1   14   22     1    22    1.2079E+05  5.4476E+03   1.1534E+05  0.000E+00  0.000E+00  0.000E+00  3.83984E+01  1.598E-01  2.000E+01  2.000E+04  2.724E-01
   1    9   30     2     1    5.0000E+04  1.0574E+03   4.8943E+04  0.000E+00  0.000E+00  0.000E+00  4.02401E+01  1.151E-01  2.000E+01  2.000E+04  5.287E-02
   1    9   29     2     2    4.8943E+04  7.5165E+02   4.8191E+04  0.000E+00  0.000E+00  0.000E+00  3.99889E+01  1.139E-01  2.000E+01  2.000E+04  3.758E-02
   1    9   28     2     3    4.8191E+04  2.8153E+02   4.7909E+04  0.000E+00  0.000E+00  0.000E+00  3.97381E+01  1.131E-01  2.000E+01  2.000E+04  1.408E-02
   1    9   27     2     4    4.7909E+04 -1.2685E+03   4.9178E+04  0.000E+00  0.000E+00  0.000E+00  3.94888E+01  1.138E-01  2.000E+01  2.000E+04 -6.343E-02
   1   10   26     2     5    4.9178E+04  1.3760E+03   4.7802E+04  0.000E+00  0.000E+00  0.000E+00  3.92388E+01  1.138E-01  2.000E+01  2.000E+04  6.880E-02
   1   11   25     2     6    4.7802E+04  2.3716E+03   4.5430E+04  0.000E+00  0.000E+00  0.000E+00  3.89861E+01  1.111E-01  2.000E+01  2.000E+04  1.186E-01
   1   12   24     2     7    4.5430E+04  5.2512E+02   4.4905E+04  0.000E+00  0.000E+00  0.000E+00  3.87340E+01  1.090E-01  2.000E+01  2.000E+04  2.626E-02
   1   13   23     2     8    4.4905E+04 -1.2709E+02   4.5032E+04  0.000E+00  0.000E+00  0.000E+00  3.84837E+01  1.087E-01  2.000E+01  2.000E+04 -6.355E-03
   1   14   22     2     9    4.5032E+04  2.1240E+03   4.2908E+04  0.000E+00  0.000E+00  0.000E+00  3.82323E+01  1.073E-01  2.000E+01  2.000E+04  1.062E-01
   1   14   22     3     1    1.5825E+05 -8.1995E+03   1.6645E+05  0.000E+00  0.000E+00  0.000E+00  3.77161E+01  1.605E-01  2.000E+01  2.000E+04 -4.100E-01
   1   15   23     3     2    1.6645E+05 -1.4764E+02   1.6660E+05  0.000E+00  0.000E+00  0.000E+00  3.68297E+01  1.630E-01  2.000E+01  2.000E+04 -7.382E-03
   1   15   24     3     3    1.6660E+05 -1.2641E+02   1.6672E+05  0.000E+00  0.000E+00  0.000E+00  3.59409E+01  1.631E-01  2.000E+01  2.000E+04 -6.321E-03
   1   15   25     3     4    1.6672E+05 -7.7924E+01   1.6680E+05  0.000E+00  0.000E+00  0.000E+00  3.50520E+01  1.631E-01  2.000E+01  2.000E+04 -3.896E-03
   1   15   26     3     5    1.6680E+05  1.2218E+02   1.6668E+05  0.000E+00  0.000E+00  0.000E+00  3.41631E+01  1.631E-01  2.000E+01  2.000E+04  6.109E-03
   1   16   27     3     6    1.6668E+05  3.1716E+02   1.6636E+05  0.000E+00  0.000E+00  0.000E+00  3.32741E+01  1.630E-01  2.000E+01  2.000E+04  1.586E-02
   1   17   28     3     7    1.6636E+05  5.7683E+03   1.6059E+05  0.000E+00  0.000E+00  0.000E+00  3.23834E+01  1.612E-01  2.000E+01  2.000E+04  2.884E-01
   1   18   29     3     8    1.6059E+05  2.5587E+03   1.5803E+05  0.000E+00  0.000E+00  0.000E+00  3.14921E+01  1.587E-01  2.000E+01  2.000E+04  1.279E-01
   1   18   30     3     9    1.5803E+05 -4.7430E+00   1.5804E+05  0.000E+00  0.000E+00  0.000E+00  3.06024E+01  1.580E-01  2.000E+01  2.000E+04 -2.371E-04



1
              HEAD IN LAYER   1 AT END OF TIME STEP   1 IN STRESS PERIOD   11
  ---------------------------------------------------------------------------

          1      2      3      4      5      6      7      8      9     10
         11     12     13     14     15     16     17     18     19     20
         21     22     23     24     25     26     27     28     29     30
 .........................................................................
   1  ****** ****** ****** ****** ****** ****** ****** ****** ****** ******
      ****** ****** ****** ****** ****** ****** ****** ****** ****** ******
      ****** ****** ****** ****** ****** ****** ****** ****** ****** ******
   2  ****** ****** ****** ****** ****** ****** ****** ****** ****** ******
      ****** ****** ****** ****** ****** ****** ****** ****** ****** ******
      ****** ****** ****** ****** ****** ****** ****** ****** ****** ******
   3  ****** ****** ****** ****** ****** ****** ****** ****** ****** ******
      ****** ****** ****** ****** ****** ****** ****** ****** ****** ******
      ****** ****** ****** ****** ****** ****** ****** ****** ****** ******
   4  ****** ****** ****** ****** ****** ****** ****** ****** ****** ******
      ****** ****** ****** ****** ****** ****** ****** ****** ****** ******
      ****** ****** ****** ****** ****** ****** ****** ****** ****** ******
   5  ****** ****** ****** ****** ****** ****** ****** ****** ****** ******
      ****** ****** ****** ****** ****** ****** ****** ****** ****** ******
      ****** ****** ****** ****** ****** ****** ****** ****** ****** ******
   6  ****** ****** ****** ****** ****** ****** ****** ****** ****** ******
      ****** ****** ****** ****** ****** ****** ****** ****** ****** ******
      ****** ****** ****** ****** ****** ****** ****** ****** ****** ******
   7  ****** ****** ****** ****** ****** ****** ****** ****** ****** ******
      ****** ****** ****** ****** ****** ****** ****** ****** ****** ******
      ****** ****** ****** ****** ****** ****** ****** ****** ****** ******
   8  ****** ****** ****** ****** ****** ****** ****** ****** ****** ******
      ****** ****** ****** ****** ****** ****** ****** ****** ****** ******
      ****** ****** ****** ****** ****** ****** ****** ****** ****** ******
   9  ****** ****** ****** ****** ****** ****** ****** ****** ****** ******
      ****** ****** ****** ****** ****** ****** ****** ****** ****** ******
      ****** ****** ****** ****** ****** ****** ****** ****** ****** ******
  10  ****** ****** ****** ****** ****** ****** ****** ****** ****** ******
      ****** ****** ****** ****** ****** ****** ****** ****** ****** ******
      ****** ****** ****** ****** ****** ****** ****** ****** ****** ******
  11  ****** ****** ****** ****** ****** ****** ****** ****** ****** ******
      ****** ****** ****** ****** ****** ****** ****** ****** ****** ******
      ****** ****** ****** ****** ****** ****** ****** ****** ****** ******
  12  ****** ****** ****** ****** ****** ****** ****** ****** ****** ******
      ****** ****** ****** ****** ****** ****** ****** ****** ****** ******
      ****** ****** ****** ****** ****** ****** ****** ****** ****** ******
  13  ****** ****** ****** ****** ****** ****** ****** ****** ****** ******
      ****** ****** ****** ****** ****** ****** ****** ****** ****** ******
      ****** ****** ****** ****** ****** ****** ****** ****** ****** ******
  14  ****** ****** ****** ****** ****** ****** ****** ****** ****** ******
      ****** ****** ****** ****** ****** ****** ****** ****** ****** ******
      ****** ****** ****** ****** ****** ****** ****** ****** ****** ******
  15  ****** ****** ****** ****** ****** ****** ****** ****** ****** ******
      ****** ****** ****** ****** ****** ****** ****** ****** ****** ******
      ****** ****** ****** ****** ****** ****** ****** ****** ****** ******
  16  ****** ****** ****** ****** ****** ****** ****** ****** ****** ******
      ****** ****** ****** ****** ****** ****** ****** ****** ****** ******
      ****** ****** ****** ****** ****** ****** ****** ****** ****** ******
  17  ****** ****** ****** ****** ****** ****** ****** ****** ****** ******
      ****** ****** ****** ****** ****** ****** ****** ****** ****** ******
      ****** ****** ****** ****** ****** ****** ****** ****** ****** ******
  18  ****** ****** ****** ****** ****** ****** ****** ****** ****** ******
      ****** ****** ****** ****** ****** ****** ****** ****** ****** ******
      ****** ****** ****** ****** ****** ****** ****** ****** ****** ******
  19  ****** ****** ****** ****** ****** ****** ****** ****** ****** ******
      ****** ****** ****** ****** ****** ****** ****** ****** ****** ******
      ****** ****** ****** ****** ****** ****** ****** ****** ****** ******
  20  ****** ****** ****** ****** ****** ****** ****** ****** ****** ******
      ****** ****** ****** ****** ****** ****** ****** ****** ****** ******
      ****** ****** ****** ****** ****** ****** ****** ****** ****** ******
  21  ****** ****** ****** ****** ****** ****** ****** ****** ****** ******
      ****** ****** ****** ****** ****** ****** ****** ****** ****** ******
      ****** ****** ****** ****** ****** ****** ****** ****** ****** ******
  22  ****** ****** ****** ****** ****** ****** ****** ****** ****** ******
      ****** ****** ****** ****** ****** ****** ****** ****** ****** ******
      ****** ****** ****** ****** ****** ****** ****** ****** ****** ******
  23  ****** ****** ****** ****** ****** ****** ****** ****** ****** ******
      ****** ****** ****** ****** ****** ****** ****** ****** ****** ******
      ****** ****** ****** ****** ****** ****** ****** ****** ****** ******
  24  ****** ****** ****** ****** ****** ****** ****** ****** ****** ******
      ****** ****** ****** ****** ****** ****** ****** ****** ****** ******
      ****** ****** ****** ****** ****** ****** ****** ****** ****** ******
  25  ****** ****** ****** ****** ****** ****** ****** ****** ****** ******
      ****** ****** ****** ****** ****** ****** ****** ****** ****** ******
      ****** ****** ****** ****** ****** ****** ****** ****** ****** ******

 HEAD WILL BE SAVED ON UNIT   51 AT END OF TIME STEP    1, STRESS PERIOD   11
1
  VOLUMETRIC BUDGET FOR ENTIRE MODEL AT END OF TIME STEP    1, STRESS PERIOD  11
  ------------------------------------------------------------------------------

     CUMULATIVE VOLUMES      L**3       RATES FOR THIS TIME STEP      L**3/T
     ------------------                 ------------------------

           IN:                                      IN:
           ---                                      ---
             STORAGE =    34162614.5233               STORAGE =       17838.8007
       CONSTANT HEAD =    26435759.8828         CONSTANT HEAD =       32218.7213
               WELLS =           0.0000                 WELLS =           0.0000
            RECHARGE =    23901600.0000              RECHARGE =           0.0000
      STREAM LEAKAGE =    19202624.9444        STREAM LEAKAGE =       25450.3012

            TOTAL IN =   103702599.3505              TOTAL IN =       75507.8232

          OUT:                                     OUT:
          ----                                     ----
             STORAGE =     2441428.6023               STORAGE =           0.0000
       CONSTANT HEAD =           0.0000         CONSTANT HEAD =           0.0000
               WELLS =    42187159.6122                 WELLS =       42019.0833
            RECHARGE =           0.0000              RECHARGE =           0.0000
      STREAM LEAKAGE =    59074013.0763        STREAM LEAKAGE =       33488.7446

           TOTAL OUT =   103702601.2908             TOTAL OUT =       75507.8279

            IN - OUT =          -1.9403              IN - OUT =      -4.6560E-03

 PERCENT DISCREPANCY =          -0.00     PERCENT DISCREPANCY =          -0.00






         TIME SUMMARY AT END OF TIME STEP    1 IN STRESS PERIOD   11
                    SECONDS     MINUTES      HOURS       DAYS        YEARS
                    -----------------------------------------------------------
   TIME STEP LENGTH 7.86240E+06 1.31040E+05  2184.0      91.000     0.24914    
 STRESS PERIOD TIME 7.86240E+06 1.31040E+05  2184.0      91.000     0.24914    
         TOTAL TIME 8.67456E+07 1.44576E+06  24096.      1004.0      2.7488    
1
1
                            STRESS PERIOD NO.   12, LENGTH =   91.00000    
                            -----------------------------------------------

                              NUMBER OF TIME STEPS =     1

                               MULTIPLIER FOR DELT =     1.500

                            INITIAL TIME STEP SIZE =   91.00000    

 WELL NO.  LAYER   ROW   COL   STRESS RATE         
 --------------------------------------------------
      1      1     14      6       0.000    
      2      1      3      9       0.000    
      3      1     20     10       0.000    
      4      1     14     20       0.000    
      5      1     15     20     -0.1192E+05
      6      1     17     29     -0.1435E+05
      7      1     12     29      -6954.    
      8      1     12     26      -8791.    

      8 WELLS

                 RECHARGE =  1.000000E-03

 REUSING STREAM SEGMENT DATA FROM LAST STRESS PERIOD
 
 SOLVING FOR HEAD 


     7 CALLS TO PCG ROUTINE FOR TIME STEP   1 IN STRESS PERIOD   12
    24 TOTAL ITERATIONS

 OUTPUT CONTROL FOR STRESS PERIOD   12   TIME STEP    1
    SAVE BUDGET
    SAVE HEAD FOR ALL LAYERS
    PRINT HEAD FOR ALL LAYERS
 UBDSV2 SAVING "STREAMFLOW OUT  " ON UNIT  50 AT TIME STEP  1, STRESS PERIOD  12



 STREAM LISTING     PERIOD     12   STEP        1

 LAYER ROW COL. STREAM  RCH.  FLOW INTO     FLOW TO   FLOW OUT OF   OVRLND.     DIRECT     STREAM       STREAM     STREAM     STREAM   STREAMBED  STREAMBED
                SEG.NO.  NO.  STRM. RCH.    AQUIFER    STRM. RCH.    RUNOFF     PRECIP       ET          HEAD       DEPTH      WIDTH   CONDCTNC.   GRADIENT

   1   13    1     1     1    1.0000E+05 -1.7310E+03   1.0173E+05  0.000E+00  0.000E+00  0.000E+00  4.84068E+01  1.454E-01  2.000E+01  2.000E+04 -8.655E-02
   1   13    2     1     2    1.0173E+05 -2.6757E+03   1.0441E+05  0.000E+00  0.000E+00  0.000E+00  4.79314E+01  1.473E-01  2.000E+01  2.000E+04 -1.338E-01
   1   14    3     1     3    1.0441E+05 -4.4662E+02   1.0485E+05  0.000E+00  0.000E+00  0.000E+00  4.74555E+01  1.486E-01  2.000E+01  2.000E+04 -2.233E-02
   1   15    4     1     4    1.0485E+05 -4.2105E+02   1.0527E+05  0.000E+00  0.000E+00  0.000E+00  4.69785E+01  1.490E-01  2.000E+01  2.000E+04 -2.105E-02
   1   16    5     1     5    1.0527E+05 -1.5958E+03   1.0687E+05  0.000E+00  0.000E+00  0.000E+00  4.65021E+01  1.499E-01  2.000E+01  2.000E+04 -7.979E-02
   1   16    6     1     6    1.0687E+05 -1.0100E+03   1.0788E+05  0.000E+00  0.000E+00  0.000E+00  4.60260E+01  1.510E-01  2.000E+01  2.000E+04 -5.050E-02
   1   16    7     1     7    1.0788E+05 -9.9021E+02   1.0887E+05  0.000E+00  0.000E+00  0.000E+00  4.55495E+01  1.518E-01  2.000E+01  2.000E+04 -4.951E-02
   1   16    8     1     8    1.0887E+05 -9.8396E+02   1.0985E+05  0.000E+00  0.000E+00  0.000E+00  4.50731E+01  1.526E-01  2.000E+01  2.000E+04 -4.920E-02
   1   16    9     1     9    1.0985E+05 -9.7280E+02   1.1083E+05  0.000E+00  0.000E+00  0.000E+00  4.45966E+01  1.534E-01  2.000E+01  2.000E+04 -4.864E-02
   1   16   10     1    10    1.1083E+05 -9.5439E+02   1.1178E+05  0.000E+00  0.000E+00  0.000E+00  4.41202E+01  1.543E-01  2.000E+01  2.000E+04 -4.772E-02
   1   16   11     1    11    1.1178E+05 -9.4062E+02   1.1272E+05  0.000E+00  0.000E+00  0.000E+00  4.36437E+01  1.550E-01  2.000E+01  2.000E+04 -4.703E-02
   1   16   12     1    12    1.1272E+05 -1.5054E+03   1.1423E+05  0.000E+00  0.000E+00  0.000E+00  4.31674E+01  1.561E-01  2.000E+01  2.000E+04 -7.527E-02
   1   15   13     1    13    1.1423E+05 -1.3790E+03   1.1561E+05  0.000E+00  0.000E+00  0.000E+00  4.26913E+01  1.572E-01  2.000E+01  2.000E+04 -6.895E-02
   1   14   14     1    14    1.1561E+05 -1.5801E+03   1.1719E+05  0.000E+00  0.000E+00  0.000E+00  4.22153E+01  1.584E-01  2.000E+01  2.000E+04 -7.900E-02
   1   13   15     1    15    1.1719E+05 -1.8569E+03   1.1904E+05  0.000E+00  0.000E+00  0.000E+00  4.17394E+01  1.598E-01  2.000E+01  2.000E+04 -9.285E-02
   1   12   16     1    16    1.1904E+05 -2.6727E+03   1.2172E+05  0.000E+00  0.000E+00  0.000E+00  4.12640E+01  1.617E-01  2.000E+01  2.000E+04 -1.336E-01
   1   12   17     1    17    1.2172E+05 -1.5639E+03   1.2328E+05  0.000E+00  0.000E+00  0.000E+00  4.07884E+01  1.634E-01  2.000E+01  2.000E+04 -7.819E-02
   1   12   18     1    18    1.2328E+05 -1.3609E+03   1.2464E+05  0.000E+00  0.000E+00  0.000E+00  4.03123E+01  1.645E-01  2.000E+01  2.000E+04 -6.804E-02
   1   12   19     1    19    1.2464E+05 -1.8734E+03   1.2651E+05  0.000E+00  0.000E+00  0.000E+00  3.98363E+01  1.658E-01  2.000E+01  2.000E+04 -9.367E-02
   1   13   20     1    20    1.2651E+05  3.1831E+02   1.2620E+05  0.000E+00  0.000E+00  0.000E+00  3.93596E+01  1.664E-01  2.000E+01  2.000E+04  1.592E-02
   1   14   21     1    21    1.2620E+05  2.0253E+03   1.2417E+05  0.000E+00  0.000E+00  0.000E+00  3.88814E+01  1.655E-01  2.000E+01  2.000E+04  1.013E-01
   1   14   22     1    22    1.2417E+05  5.3929E+03   1.1878E+05  0.000E+00  0.000E+00  0.000E+00  3.84012E+01  1.626E-01  2.000E+01  2.000E+04  2.696E-01
   1    9   30     2     1    5.0000E+04  8.8078E+02   4.9119E+04  0.000E+00  0.000E+00  0.000E+00  4.02403E+01  1.153E-01  2.000E+01  2.000E+04  4.404E-02
   1    9   29     2     2    4.9119E+04  5.7703E+02   4.8542E+04  0.000E+00  0.000E+00  0.000E+00  3.99892E+01  1.142E-01  2.000E+01  2.000E+04  2.885E-02
   1    9   28     2     3    4.8542E+04  1.1038E+02   4.8432E+04  0.000E+00  0.000E+00  0.000E+00  3.97387E+01  1.137E-01  2.000E+01  2.000E+04  5.519E-03
   1    9   27     2     4    4.8432E+04 -1.4783E+03   4.9910E+04  0.000E+00  0.000E+00  0.000E+00  3.94897E+01  1.147E-01  2.000E+01  2.000E+04 -7.392E-02
   1   10   26     2     5    4.9910E+04  1.1456E+03   4.8764E+04  0.000E+00  0.000E+00  0.000E+00  3.92399E+01  1.149E-01  2.000E+01  2.000E+04  5.728E-02
   1   11   25     2     6    4.8764E+04  2.1452E+03   4.6619E+04  0.000E+00  0.000E+00  0.000E+00  3.89876E+01  1.126E-01  2.000E+01  2.000E+04  1.073E-01
   1   12   24     2     7    4.6619E+04  3.1849E+02   4.6301E+04  0.000E+00  0.000E+00  0.000E+00  3.87359E+01  1.109E-01  2.000E+01  2.000E+04  1.592E-02
   1   13   23     2     8    4.6301E+04 -2.0477E+02   4.6506E+04  0.000E+00  0.000E+00  0.000E+00  3.84858E+01  1.108E-01  2.000E+01  2.000E+04 -1.024E-02
   1   14   22     2     9    4.6506E+04  2.0581E+03   4.4447E+04  0.000E+00  0.000E+00  0.000E+00  3.82345E+01  1.095E-01  2.000E+01  2.000E+04  1.029E-01
   1   14   22     3     1    1.6323E+05 -8.2502E+03   1.7148E+05  0.000E+00  0.000E+00  0.000E+00  3.77190E+01  1.635E-01  2.000E+01  2.000E+04 -4.125E-01
   1   15   23     3     2    1.7148E+05 -2.1970E+02   1.7170E+05  0.000E+00  0.000E+00  0.000E+00  3.68326E+01  1.660E-01  2.000E+01  2.000E+04 -1.099E-02
   1   15   24     3     3    1.7170E+05 -1.9152E+02   1.7189E+05  0.000E+00  0.000E+00  0.000E+00  3.59439E+01  1.661E-01  2.000E+01  2.000E+04 -9.576E-03
   1   15   25     3     4    1.7189E+05 -1.4430E+02   1.7203E+05  0.000E+00  0.000E+00  0.000E+00  3.50551E+01  1.662E-01  2.000E+01  2.000E+04 -7.215E-03
   1   15   26     3     5    1.7203E+05  4.4691E+01   1.7199E+05  0.000E+00  0.000E+00  0.000E+00  3.41662E+01  1.662E-01  2.000E+01  2.000E+04  2.235E-03
   1   16   27     3     6    1.7199E+05  2.3036E+02   1.7176E+05  0.000E+00  0.000E+00  0.000E+00  3.32772E+01  1.661E-01  2.000E+01  2.000E+04  1.152E-02
   1   17   28     3     7    1.7176E+05  5.5475E+03   1.6621E+05  0.000E+00  0.000E+00  0.000E+00  3.23867E+01  1.644E-01  2.000E+01  2.000E+04  2.774E-01
   1   18   29     3     8    1.6621E+05  2.3579E+03   1.6385E+05  0.000E+00  0.000E+00  0.000E+00  3.14955E+01  1.621E-01  2.000E+01  2.000E+04  1.179E-01
   1   18   30     3     9    1.6385E+05 -1.7291E+02   1.6402E+05  0.000E+00  0.000E+00  0.000E+00  3.06059E+01  1.615E-01  2.000E+01  2.000E+04 -8.646E-03



1
              HEAD IN LAYER   1 AT END OF TIME STEP   1 IN STRESS PERIOD   12
  ---------------------------------------------------------------------------

          1      2      3      4      5      6      7      8      9     10
         11     12     13     14     15     16     17     18     19     20
         21     22     23     24     25     26     27     28     29     30
 .........................................................................
   1  ****** ****** ****** ****** ****** ****** ****** ****** ****** ******
      ****** ****** ****** ****** ****** ****** ****** ****** ****** ******
      ****** ****** ****** ****** ****** ****** ****** ****** ****** ******
   2  ****** ****** ****** ****** ****** ****** ****** ****** ****** ******
      ****** ****** ****** ****** ****** ****** ****** ****** ****** ******
      ****** ****** ****** ****** ****** ****** ****** ****** ****** ******
   3  ****** ****** ****** ****** ****** ****** ****** ****** ****** ******
      ****** ****** ****** ****** ****** ****** ****** ****** ****** ******
      ****** ****** ****** ****** ****** ****** ****** ****** ****** ******
   4  ****** ****** ****** ****** ****** ****** ****** ****** ****** ******
      ****** ****** ****** ****** ****** ****** ****** ****** ****** ******
      ****** ****** ****** ****** ****** ****** ****** ****** ****** ******
   5  ****** ****** ****** ****** ****** ****** ****** ****** ****** ******
      ****** ****** ****** ****** ****** ****** ****** ****** ****** ******
      ****** ****** ****** ****** ****** ****** ****** ****** ****** ******
   6  ****** ****** ****** ****** ****** ****** ****** ****** ****** ******
      ****** ****** ****** ****** ****** ****** ****** ****** ****** ******
      ****** ****** ****** ****** ****** ****** ****** ****** ****** ******
   7  ****** ****** ****** ****** ****** ****** ****** ****** ****** ******
      ****** ****** ****** ****** ****** ****** ****** ****** ****** ******
      ****** ****** ****** ****** ****** ****** ****** ****** ****** ******
   8  ****** ****** ****** ****** ****** ****** ****** ****** ****** ******
      ****** ****** ****** ****** ****** ****** ****** ****** ****** ******
      ****** ****** ****** ****** ****** ****** ****** ****** ****** ******
   9  ****** ****** ****** ****** ****** ****** ****** ****** ****** ******
      ****** ****** ****** ****** ****** ****** ****** ****** ****** ******
      ****** ****** ****** ****** ****** ****** ****** ****** ****** ******
  10  ****** ****** ****** ****** ****** ****** ****** ****** ****** ******
      ****** ****** ****** ****** ****** ****** ****** ****** ****** ******
      ****** ****** ****** ****** ****** ****** ****** ****** ****** ******
  11  ****** ****** ****** ****** ****** ****** ****** ****** ****** ******
      ****** ****** ****** ****** ****** ****** ****** ****** ****** ******
      ****** ****** ****** ****** ****** ****** ****** ****** ****** ******
  12  ****** ****** ****** ****** ****** ****** ****** ****** ****** ******
      ****** ****** ****** ****** ****** ****** ****** ****** ****** ******
      ****** ****** ****** ****** ****** ****** ****** ****** ****** ******
  13  ****** ****** ****** ****** ****** ****** ****** ****** ****** ******
      ****** ****** ****** ****** ****** ****** ****** ****** ****** ******
      ****** ****** ****** ****** ****** ****** ****** ****** ****** ******
  14  ****** ****** ****** ****** ****** ****** ****** ****** ****** ******
      ****** ****** ****** ****** ****** ****** ****** ****** ****** ******
      ****** ****** ****** ****** ****** ****** ****** ****** ****** ******
  15  ****** ****** ****** ****** ****** ****** ****** ****** ****** ******
      ****** ****** ****** ****** ****** ****** ****** ****** ****** ******
      ****** ****** ****** ****** ****** ****** ****** ****** ****** ******
  16  ****** ****** ****** ****** ****** ****** ****** ****** ****** ******
      ****** ****** ****** ****** ****** ****** ****** ****** ****** ******
      ****** ****** ****** ****** ****** ****** ****** ****** ****** ******
  17  ****** ****** ****** ****** ****** ****** ****** ****** ****** ******
      ****** ****** ****** ****** ****** ****** ****** ****** ****** ******
      ****** ****** ****** ****** ****** ****** ****** ****** ****** ******
  18  ****** ****** ****** ****** ****** ****** ****** ****** ****** ******
      ****** ****** ****** ****** ****** ****** ****** ****** ****** ******
      ****** ****** ****** ****** ****** ****** ****** ****** ****** ******
  19  ****** ****** ****** ****** ****** ****** ****** ****** ****** ******
      ****** ****** ****** ****** ****** ****** ****** ****** ****** ******
      ****** ****** ****** ****** ****** ****** ****** ****** ****** ******
  20  ****** ****** ****** ****** ****** ****** ****** ****** ****** ******
      ****** ****** ****** ****** ****** ****** ****** ****** ****** ******
      ****** ****** ****** ****** ****** ****** ****** ****** ****** ******
  21  ****** ****** ****** ****** ****** ****** ****** ****** ****** ******
      ****** ****** ****** ****** ****** ****** ****** ****** ****** ******
      ****** ****** ****** ****** ****** ****** ****** ****** ****** ******
  22  ****** ****** ****** ****** ****** ****** ****** ****** ****** ******
      ****** ****** ****** ****** ****** ****** ****** ****** ****** ******
      ****** ****** ****** ****** ****** ****** ****** ****** ****** ******
  23  ****** ****** ****** ****** ****** ****** ****** ****** ****** ******
      ****** ****** ****** ****** ****** ****** ****** ****** ****** ******
      ****** ****** ****** ****** ****** ****** ****** ****** ****** ******
  24  ****** ****** ****** ****** ****** ****** ****** ****** ****** ******
      ****** ****** ****** ****** ****** ****** ****** ****** ****** ******
      ****** ****** ****** ****** ****** ****** ****** ****** ****** ******
  25  ****** ****** ****** ****** ****** ****** ****** ****** ****** ******
      ****** ****** ****** ****** ****** ****** ****** ****** ****** ******
      ****** ****** ****** ****** ****** ****** ****** ****** ****** ******

 HEAD WILL BE SAVED ON UNIT   51 AT END OF TIME STEP    1, STRESS PERIOD   12
1
  VOLUMETRIC BUDGET FOR ENTIRE MODEL AT END OF TIME STEP    1, STRESS PERIOD  12
  ------------------------------------------------------------------------------

     CUMULATIVE VOLUMES      L**3       RATES FOR THIS TIME STEP      L**3/T
     ------------------                 ------------------------

           IN:                                      IN:
           ---                                      ---
             STORAGE =    34163052.5201               STORAGE =           4.8132
       CONSTANT HEAD =    29303566.1080         CONSTANT HEAD =       31514.3541
               WELLS =           0.0000                 WELLS =           0.0000
            RECHARGE =    26413200.0000              RECHARGE =       27600.0000
      STREAM LEAKAGE =    21309518.2565        STREAM LEAKAGE =       23152.6738

            TOTAL IN =   111189336.8846              TOTAL IN =       82271.8410

          OUT:                                     OUT:
          ----                                     ----
             STORAGE =     2721410.6860               STORAGE =        3076.7262
       CONSTANT HEAD =           0.0000         CONSTANT HEAD =           0.0000
               WELLS =    46010896.1906                 WELLS =       42019.0833
            RECHARGE =           0.0000              RECHARGE =           0.0000
      STREAM LEAKAGE =    62457031.8671        STREAM LEAKAGE =       37176.0307

           TOTAL OUT =   111189338.7437             TOTAL OUT =       82271.8401

            IN - OUT =          -1.8591              IN - OUT =       8.9183E-04

 PERCENT DISCREPANCY =          -0.00     PERCENT DISCREPANCY =           0.00






         TIME SUMMARY AT END OF TIME STEP    1 IN STRESS PERIOD   12
                    SECONDS     MINUTES      HOURS       DAYS        YEARS
                    -----------------------------------------------------------
   TIME STEP LENGTH 7.86240E+06 1.31040E+05  2184.0      91.000     0.24914    
 STRESS PERIOD TIME 7.86240E+06 1.31040E+05  2184.0      91.000     0.24914    
         TOTAL TIME 9.46080E+07 1.57680E+06  26280.      1095.0      2.9979    
1

 Run end date and time (yyyy/mm/dd hh:mm:ss): 2018/10/16 20:41:55
 Elapsed run time:  0.056 Seconds

