                                  MODFLOW-2005     
      U.S. GEOLOGICAL SURVEY MODULAR FINITE-DIFFERENCE GROUND-WATER FLOW MODEL
                            VERSION 1.11.00 8/8/2013

 LIST FILE: supply2.lst
                         UNIT   10

 OPENING ..\data\supply.dis
 FILE TYPE:DIS   UNIT   11   STATUS:OLD    
 FORMAT:FORMATTED              ACCESS:SEQUENTIAL          

 OPENING ..\data\supply.ba6
 FILE TYPE:BAS6   UNIT   12   STATUS:OLD    
 FORMAT:FORMATTED              ACCESS:SEQUENTIAL          

 OPENING ..\data\supply.bc6
 FILE TYPE:BCF6   UNIT   13   STATUS:OLD    
 FORMAT:FORMATTED              ACCESS:SEQUENTIAL          

 OPENING ..\data\supply.rch
 FILE TYPE:RCH   UNIT   15   STATUS:OLD    
 FORMAT:FORMATTED              ACCESS:SEQUENTIAL          

 OPENING ..\data\supply2.sfr
 FILE TYPE:SFR   UNIT   16   STATUS:OLD    
 FORMAT:FORMATTED              ACCESS:SEQUENTIAL          

 OPENING ..\data\supply.oc
 FILE TYPE:OC   UNIT   17   STATUS:OLD    
 FORMAT:FORMATTED              ACCESS:SEQUENTIAL          

 OPENING ..\data\supply.pcg
 FILE TYPE:PCG   UNIT   18   STATUS:OLD    
 FORMAT:FORMATTED              ACCESS:SEQUENTIAL          

 OPENING supply2.wel
 FILE TYPE:WEL   UNIT   19   STATUS:OLD    
 FORMAT:FORMATTED              ACCESS:SEQUENTIAL          

 OPENING supply2sf.cbc
 FILE TYPE:DATA(BINARY)   UNIT   50   STATUS:UNKNOWN
 FORMAT:BINARY                 ACCESS:SEQUENTIAL          

 OPENING supply2hd.bhd
 FILE TYPE:DATA(BINARY)   UNIT   51   STATUS:UNKNOWN
 FORMAT:BINARY                 ACCESS:SEQUENTIAL          

 BAS -- BASIC PACKAGE, VERSION 7, 5/2/2005 INPUT READ FROM UNIT   12
 
 MODFLOW was compiled using uniform precision
 Precision of REAL and DOUBLE PRECISION variables:          15

 DISCRETIZATION INPUT DATA READ FROM UNIT   11
    1 LAYERS        25 ROWS        30 COLUMNS
   12 STRESS PERIOD(S) IN SIMULATION
 MODEL TIME UNIT IS DAYS
 MODEL LENGTH UNIT IS UNDEFINED
  Confining bed flag for each layer:
   0

                     DELR =   200.000    

                     DELC =   200.000    

 TOP ELEVATION OF LAYER 1 =  100.0000    

   MODEL LAYER BOTTOM EL. =   0.00000     FOR LAYER   1


 STRESS PERIOD     LENGTH       TIME STEPS     MULTIPLIER FOR DELT    SS FLAG
 ----------------------------------------------------------------------------
        1         92.00000          1                    1.500         TR
        2         91.00000          1                    1.500         TR
        3         91.00000          1                    1.500         TR
        4         91.00000          1                    1.500         TR
        5         92.00000          1                    1.500         TR
        6         91.00000          1                    1.500         TR
        7         91.00000          1                    1.500         TR
        8         91.00000          1                    1.500         TR
        9         92.00000          1                    1.500         TR
       10         91.00000          1                    1.500         TR
       11         91.00000          1                    1.500         TR
       12         91.00000          1                    1.500         TR

 TRANSIENT SIMULATION



 
 #MODOFC transient water supply sample problem                                   
 #                                                                               
 THE FREE FORMAT OPTION HAS BEEN SELECTED



                     BOUNDARY ARRAY FOR LAYER   1
 READING ON UNIT   12 WITH FORMAT: (20I4)              

 AQUIFER HEAD WILL BE SET TO   0.0000     AT ALL NO-FLOW NODES (IBOUND=0).



                       INITIAL HEAD FOR LAYER   1
 READING ON UNIT   12 WITH FORMAT: (10F13.0)           

 OUTPUT CONTROL IS SPECIFIED ONLY AT TIME STEPS FOR WHICH OUTPUT IS DESIRED
 COMPACT CELL-BY-CELL BUDGET FILES WILL BE WRITTEN
 HEAD PRINT FORMAT CODE IS  18    DRAWDOWN PRINT FORMAT CODE IS   0
 HEADS WILL BE SAVED ON UNIT   51    DRAWDOWNS WILL BE SAVED ON UNIT    0

 BCF -- BLOCK-CENTERED FLOW PACKAGE, VERSION 7, 5/2/2005
         INPUT READ FROM UNIT 13
 TRANSIENT SIMULATION
 HEAD AT CELLS THAT CONVERT TO DRY=   0.0000    
 WETTING CAPABILITY IS NOT ACTIVE
      LAYER  LAYER-TYPE CODE     INTERBLOCK T
      --------------------------------------------
         1            0          0 -- HARMONIC    

 COLUMN TO ROW ANISOTROPY =  1.000000    

     PRIMARY STORAGE COEF =  5.000000E-02 FOR LAYER   1

     TRANSMIS. ALONG ROWS =   500.000     FOR LAYER   1

 WEL -- WELL PACKAGE, VERSION 7, 5/2/2005 INPUT READ FROM UNIT   19
 # Well package input file written by MMProc
 No named parameters
 MAXIMUM OF      4 ACTIVE WELLS AT ONE TIME


     0 Well parameters

 RCH -- RECHARGE PACKAGE, VERSION 7, 5/2/2005 INPUT READ FROM UNIT   15
 No named parameters
 OPTION 1 -- RECHARGE TO TOP LAYER


     0 Recharge parameters

 SFR7 -- STREAMFLOW ROUTING PACKAGE, VERSION 1.0.7, 2013-01-15
         INPUT READ FROM UNIT  16
 #  Supply2 test problem for GWM-VI
 #  The eighth entry in the first data line is ISTCB2 -
 #    Setting this to a negative number indicates that
 #    streamflows out of the reach will be saved to a
 #    binary file.  The absolute value of ISTCB2 is the
 #    unit to which unformatted flows will be written.
 #
 No named parameters
 Segment information will not be 
 read by reach
 No named parameters
 No specifed inflow files


 NUMBER OF STREAM REACHES IS   40

 NUMBER OF STREAM SEGMENTS IS    3

 NUMBER OF STREAM PARAMETERS IS    0

 NUMBER OF STREAM SEGMENTS DEFINED USING PARAMETERS IS              0

 MAXIMUM ERROR FOR STREAM LEAKAGE RATES IS  1.00E-04

 CONSTANT FOR MANNINGS EQUATION IS  1.2839E+05





   STREAM NETWORK DESCRIPTION: 

   LAYER    ROW    COL   SEGMENT   REACH     LENGTH
                          NUMBER   NUMBER    IN CELL        
   --------------------------------------------------
      1     13      1       1        1    2.0000E+02
      1     13      2       1        2    2.0000E+02
      1     14      3       1        3    2.0000E+02
      1     15      4       1        4    2.0000E+02
      1     16      5       1        5    2.0000E+02
      1     16      6       1        6    2.0000E+02
      1     16      7       1        7    2.0000E+02
      1     16      8       1        8    2.0000E+02
      1     16      9       1        9    2.0000E+02
      1     16     10       1       10    2.0000E+02
      1     16     11       1       11    2.0000E+02
      1     16     12       1       12    2.0000E+02
      1     15     13       1       13    2.0000E+02
      1     14     14       1       14    2.0000E+02
      1     13     15       1       15    2.0000E+02
      1     12     16       1       16    2.0000E+02
      1     12     17       1       17    2.0000E+02
      1     12     18       1       18    2.0000E+02
      1     12     19       1       19    2.0000E+02
      1     13     20       1       20    2.0000E+02
      1     14     21       1       21    2.0000E+02
      1     14     22       1       22    2.0000E+02
      1      9     30       2        1    2.0000E+02
      1      9     29       2        2    2.0000E+02
      1      9     28       2        3    2.0000E+02
      1      9     27       2        4    2.0000E+02
      1     10     26       2        5    2.0000E+02
      1     11     25       2        6    2.0000E+02
      1     12     24       2        7    2.0000E+02
      1     13     23       2        8    2.0000E+02
      1     14     22       2        9    2.0000E+02
      1     14     22       3        1    2.0000E+02
      1     15     23       3        2    2.0000E+02
      1     15     24       3        3    2.0000E+02
      1     15     25       3        4    2.0000E+02
      1     15     26       3        5    2.0000E+02
      1     16     27       3        6    2.0000E+02
      1     17     28       3        7    2.0000E+02
      1     18     29       3        8    2.0000E+02
      1     18     30       3        9    2.0000E+02




 PCG -- CONJUGATE-GRADIENT SOLUTION PACKAGE, VERSION 7, 5/2/2005
 MAXIMUM OF    500 CALLS OF SOLUTION ROUTINE
 MAXIMUM OF      5 INTERNAL ITERATIONS PER CALL TO SOLUTION ROUTINE
 MATRIX PRECONDITIONING TYPE :    1



                                    SOLUTION BY THE CONJUGATE-GRADIENT METHOD
                                   -------------------------------------------
                    MAXIMUM NUMBER OF CALLS TO PCG ROUTINE =      500
                        MAXIMUM ITERATIONS PER CALL TO PCG =        5
                               MATRIX PRECONDITIONING TYPE =        1
        RELAXATION FACTOR (ONLY USED WITH PRECOND. TYPE 1) =    0.10000E+01
 PARAMETER OF POLYNOMIAL PRECOND. = 2 (2) OR IS CALCULATED :        0
                         HEAD CHANGE CRITERION FOR CLOSURE =    0.10000E-05
                     RESIDUAL CHANGE CRITERION FOR CLOSURE =    0.10000E+01
            PCG HEAD AND RESIDUAL CHANGE PRINTOUT INTERVAL =        1
     PRINTING FROM SOLVER IS LIMITED(1) OR SUPPRESSED (>1) =        1
                            STEADY-STATE DAMPING PARAMETER =    0.10000E+01
                               TRANSIENT DAMPING PARAMETER =    0.10000E+01
1
                            STRESS PERIOD NO.    1, LENGTH =   92.00000    
                            -----------------------------------------------

                              NUMBER OF TIME STEPS =     1

                               MULTIPLIER FOR DELT =     1.500

                            INITIAL TIME STEP SIZE =   92.00000    

 WELL NO.  LAYER   ROW   COL   STRESS RATE         
 --------------------------------------------------
      1      1     21     23     -0.1821E+05
      2      1     20     24     -0.1241E+05
      3      1     19     20     -0.2382E+05
      4      1     19     24     -0.1691E+05

      4 WELLS

                 RECHARGE =  5.000000E-04



 CLASSIFICATION & COUNT OF STREAM SEGMENTS BASED ON SOURCE OF INFLOW:

                HEADWATER     DIVERSION     RECEIVES TRIBUTARY FLOW
                ---------     ---------     -----------------------
                     2              0               1



                    INPUT DATA FOR EACH STREAM SEGMENT
 ---------------------------------------------------------------------------------------------

 SEGMENT    SEG.     INFLOW   OVERLAND   STREAM    STREAM   ICALC  OUTFLOW  DIVERSION PRIORITY
    NO.    LENGTH     RATE     RUNOFF      ET       PPT.    METH.  TO SEG.  FROM SEG.    NO.

      1  4.400E+03 1.000E+05 0.000E+00 0.000E+00 0.000E+00    1        3        0        0
      2  1.800E+03 5.000E+04 0.000E+00 0.000E+00 0.000E+00    1        3        0        0
      3  1.800E+03 0.000E+00 0.000E+00 0.000E+00 0.000E+00    1        0        0        0


         STREAMBED PROPERTIES AND STREAM DIMENSIONS

 SEGMENT     BED HYD. COND.      BED THICKNESS     ELEV.-TOP OF BED     WIDTH OF STREAM     DEPTH OF STREAM    STREAM ROUGHNESS
    No.     UPPER     LOWER     UPPER     LOWER     UPPER     LOWER     UPPER     LOWER     UPPER     LOWER   CHANNEL      BANK

     1  5.000E+00 5.000E+00 1.000E+00 1.000E+00 4.850E+01 3.800E+01 2.000E+01 2.000E+01                     5.000E-02
     2  5.000E+00 5.000E+00 1.000E+00 1.000E+00 4.025E+01 3.800E+01 2.000E+01 2.000E+01                     5.000E-02
     3  5.000E+00 5.000E+00 1.000E+00 1.000E+00 3.800E+01 3.000E+01 2.000E+01 2.000E+01                     5.000E-02



 
 SOLVING FOR HEAD 


     8 CALLS TO PCG ROUTINE FOR TIME STEP   1 IN STRESS PERIOD    1
    34 TOTAL ITERATIONS

 OUTPUT CONTROL FOR STRESS PERIOD    1   TIME STEP    1
    SAVE BUDGET
    SAVE HEAD FOR ALL LAYERS
    PRINT HEAD FOR ALL LAYERS
 UBDSV2 SAVING "STREAMFLOW OUT  " ON UNIT  50 AT TIME STEP  1, STRESS PERIOD   1



 STREAM LISTING     PERIOD      1   STEP        1

 LAYER ROW COL. STREAM  RCH.  FLOW INTO     FLOW TO   FLOW OUT OF   OVRLND.     DIRECT     STREAM       STREAM     STREAM     STREAM   STREAMBED  STREAMBED
                SEG.NO.  NO.  STRM. RCH.    AQUIFER    STRM. RCH.    RUNOFF     PRECIP       ET          HEAD       DEPTH      WIDTH   CONDCTNC.   GRADIENT

   1   13    1     1     1    1.0000E+05 -5.7565E+03   1.0576E+05  0.000E+00  0.000E+00  0.000E+00  4.84085E+01  1.471E-01  2.000E+01  2.000E+04 -2.878E-01
   1   13    2     1     2    1.0576E+05 -8.6048E+03   1.1436E+05  0.000E+00  0.000E+00  0.000E+00  4.79373E+01  1.532E-01  2.000E+01  2.000E+04 -4.302E-01
   1   14    3     1     3    1.1436E+05 -7.8816E+03   1.2224E+05  0.000E+00  0.000E+00  0.000E+00  4.74668E+01  1.600E-01  2.000E+01  2.000E+04 -3.941E-01
   1   15    4     1     4    1.2224E+05 -7.7096E+03   1.2995E+05  0.000E+00  0.000E+00  0.000E+00  4.69958E+01  1.662E-01  2.000E+01  2.000E+04 -3.855E-01
   1   16    5     1     5    1.2995E+05 -7.4919E+03   1.3744E+05  0.000E+00  0.000E+00  0.000E+00  4.65245E+01  1.722E-01  2.000E+01  2.000E+04 -3.746E-01
   1   16    6     1     6    1.3744E+05 -5.9951E+03   1.4344E+05  0.000E+00  0.000E+00  0.000E+00  4.60523E+01  1.773E-01  2.000E+01  2.000E+04 -2.998E-01
   1   16    7     1     7    1.4344E+05 -6.1264E+03   1.4957E+05  0.000E+00  0.000E+00  0.000E+00  4.55796E+01  1.819E-01  2.000E+01  2.000E+04 -3.063E-01
   1   16    8     1     8    1.4957E+05 -6.1998E+03   1.5577E+05  0.000E+00  0.000E+00  0.000E+00  4.51069E+01  1.865E-01  2.000E+01  2.000E+04 -3.100E-01
   1   16    9     1     9    1.5577E+05 -6.1959E+03   1.6196E+05  0.000E+00  0.000E+00  0.000E+00  4.46341E+01  1.910E-01  2.000E+01  2.000E+04 -3.098E-01
   1   16   10     1    10    1.6196E+05 -6.1140E+03   1.6808E+05  0.000E+00  0.000E+00  0.000E+00  4.41613E+01  1.954E-01  2.000E+01  2.000E+04 -3.057E-01
   1   16   11     1    11    1.6808E+05 -5.9714E+03   1.7405E+05  0.000E+00  0.000E+00  0.000E+00  4.36883E+01  1.996E-01  2.000E+01  2.000E+04 -2.986E-01
   1   16   12     1    12    1.7405E+05 -7.4393E+03   1.8149E+05  0.000E+00  0.000E+00  0.000E+00  4.32156E+01  2.043E-01  2.000E+01  2.000E+04 -3.720E-01
   1   15   13     1    13    1.8149E+05 -7.6937E+03   1.8918E+05  0.000E+00  0.000E+00  0.000E+00  4.27435E+01  2.095E-01  2.000E+01  2.000E+04 -3.847E-01
   1   14   14     1    14    1.8918E+05 -7.9060E+03   1.9709E+05  0.000E+00  0.000E+00  0.000E+00  4.22715E+01  2.147E-01  2.000E+01  2.000E+04 -3.953E-01
   1   13   15     1    15    1.9709E+05 -8.1998E+03   2.0529E+05  0.000E+00  0.000E+00  0.000E+00  4.17996E+01  2.200E-01  2.000E+01  2.000E+04 -4.100E-01
   1   12   16     1    16    2.0529E+05 -9.2390E+03   2.1452E+05  0.000E+00  0.000E+00  0.000E+00  4.13280E+01  2.257E-01  2.000E+01  2.000E+04 -4.619E-01
   1   12   17     1    17    2.1452E+05 -6.3428E+03   2.2087E+05  0.000E+00  0.000E+00  0.000E+00  4.08557E+01  2.307E-01  2.000E+01  2.000E+04 -3.171E-01
   1   12   18     1    18    2.2087E+05 -6.1194E+03   2.2699E+05  0.000E+00  0.000E+00  0.000E+00  4.03824E+01  2.346E-01  2.000E+01  2.000E+04 -3.060E-01
   1   12   19     1    19    2.2699E+05 -7.8460E+03   2.3483E+05  0.000E+00  0.000E+00  0.000E+00  3.99095E+01  2.390E-01  2.000E+01  2.000E+04 -3.923E-01
   1   13   20     1    20    2.3483E+05 -5.7818E+03   2.4061E+05  0.000E+00  0.000E+00  0.000E+00  3.94364E+01  2.432E-01  2.000E+01  2.000E+04 -2.891E-01
   1   14   21     1    21    2.4061E+05 -3.5539E+03   2.4417E+05  0.000E+00  0.000E+00  0.000E+00  3.89620E+01  2.461E-01  2.000E+01  2.000E+04 -1.777E-01
   1   14   22     1    22    2.4417E+05  4.7294E+03   2.3944E+05  0.000E+00  0.000E+00  0.000E+00  3.84843E+01  2.457E-01  2.000E+01  2.000E+04  2.365E-01
   1    9   30     2     1    5.0000E+04 -5.5679E+03   5.5568E+04  0.000E+00  0.000E+00  0.000E+00  4.02447E+01  1.197E-01  2.000E+01  2.000E+04 -2.784E-01
   1    9   29     2     2    5.5568E+04 -5.8670E+03   6.1435E+04  0.000E+00  0.000E+00  0.000E+00  4.00023E+01  1.273E-01  2.000E+01  2.000E+04 -2.934E-01
   1    9   28     2     3    6.1435E+04 -6.1915E+03   6.7626E+04  0.000E+00  0.000E+00  0.000E+00  3.97600E+01  1.350E-01  2.000E+01  2.000E+04 -3.096E-01
   1    9   27     2     4    6.7626E+04 -9.5852E+03   7.7212E+04  0.000E+00  0.000E+00  0.000E+00  3.95197E+01  1.447E-01  2.000E+01  2.000E+04 -4.793E-01
   1   10   26     2     5    7.7212E+04 -7.7123E+03   8.4924E+04  0.000E+00  0.000E+00  0.000E+00  3.92798E+01  1.548E-01  2.000E+01  2.000E+04 -3.856E-01
   1   11   25     2     6    8.4924E+04 -6.5825E+03   9.1506E+04  0.000E+00  0.000E+00  0.000E+00  3.90379E+01  1.629E-01  2.000E+01  2.000E+04 -3.291E-01
   1   12   24     2     7    9.1506E+04 -5.3148E+03   9.6821E+04  0.000E+00  0.000E+00  0.000E+00  3.87944E+01  1.694E-01  2.000E+01  2.000E+04 -2.657E-01
   1   13   23     2     8    9.6821E+04 -3.7414E+03   1.0056E+05  0.000E+00  0.000E+00  0.000E+00  3.85492E+01  1.742E-01  2.000E+01  2.000E+04 -1.871E-01
   1   14   22     2     9    1.0056E+05  1.0558E+03   9.9507E+04  0.000E+00  0.000E+00  0.000E+00  3.83007E+01  1.757E-01  2.000E+01  2.000E+04  5.279E-02
   1   14   22     3     1    3.3895E+05 -8.8138E+03   3.4776E+05  0.000E+00  0.000E+00  0.000E+00  3.78072E+01  2.516E-01  2.000E+01  2.000E+04 -4.407E-01
   1   15   23     3     2    3.4776E+05 -2.4956E+03   3.5026E+05  0.000E+00  0.000E+00  0.000E+00  3.69208E+01  2.541E-01  2.000E+01  2.000E+04 -1.248E-01
   1   15   24     3     3    3.5026E+05 -2.1099E+03   3.5237E+05  0.000E+00  0.000E+00  0.000E+00  3.60329E+01  2.551E-01  2.000E+01  2.000E+04 -1.055E-01
   1   15   25     3     4    3.5237E+05 -2.6142E+03   3.5498E+05  0.000E+00  0.000E+00  0.000E+00  3.51450E+01  2.561E-01  2.000E+01  2.000E+04 -1.307E-01
   1   15   26     3     5    3.5498E+05 -4.5814E+03   3.5956E+05  0.000E+00  0.000E+00  0.000E+00  3.42577E+01  2.577E-01  2.000E+01  2.000E+04 -2.291E-01
   1   16   27     3     6    3.5956E+05 -5.0611E+03   3.6462E+05  0.000E+00  0.000E+00  0.000E+00  3.33709E+01  2.598E-01  2.000E+01  2.000E+04 -2.531E-01
   1   17   28     3     7    3.6462E+05 -5.8143E+03   3.7044E+05  0.000E+00  0.000E+00  0.000E+00  3.24843E+01  2.621E-01  2.000E+01  2.000E+04 -2.907E-01
   1   18   29     3     8    3.7044E+05 -7.0586E+03   3.7750E+05  0.000E+00  0.000E+00  0.000E+00  3.15982E+01  2.648E-01  2.000E+01  2.000E+04 -3.529E-01
   1   18   30     3     9    3.7750E+05 -6.7545E+03   3.8425E+05  0.000E+00  0.000E+00  0.000E+00  3.07122E+01  2.678E-01  2.000E+01  2.000E+04 -3.377E-01



1
              HEAD IN LAYER   1 AT END OF TIME STEP   1 IN STRESS PERIOD    1
  ---------------------------------------------------------------------------

          1      2      3      4      5      6      7      8      9     10
         11     12     13     14     15     16     17     18     19     20
         21     22     23     24     25     26     27     28     29     30
 .........................................................................
   1  ****** ****** ****** ****** ****** ****** ****** ****** ****** ******
      ****** ****** ****** ****** ****** ****** ****** ****** ****** ******
      ****** ****** ****** ****** ****** ****** ****** ****** ****** ******
   2  ****** ****** ****** ****** ****** ****** ****** ****** ****** ******
      ****** ****** ****** ****** ****** ****** ****** ****** ****** ******
      ****** ****** ****** ****** ****** ****** ****** ****** ****** ******
   3  ****** ****** ****** ****** ****** ****** ****** ****** ****** ******
      ****** ****** ****** ****** ****** ****** ****** ****** ****** ******
      ****** ****** ****** ****** ****** ****** ****** ****** ****** ******
   4  ****** ****** ****** ****** ****** ****** ****** ****** ****** ******
      ****** ****** ****** ****** ****** ****** ****** ****** ****** ******
      ****** ****** ****** ****** ****** ****** ****** ****** ****** ******
   5  ****** ****** ****** ****** ****** ****** ****** ****** ****** ******
      ****** ****** ****** ****** ****** ****** ****** ****** ****** ******
      ****** ****** ****** ****** ****** ****** ****** ****** ****** ******
   6  ****** ****** ****** ****** ****** ****** ****** ****** ****** ******
      ****** ****** ****** ****** ****** ****** ****** ****** ****** ******
      ****** ****** ****** ****** ****** ****** ****** ****** ****** ******
   7  ****** ****** ****** ****** ****** ****** ****** ****** ****** ******
      ****** ****** ****** ****** ****** ****** ****** ****** ****** ******
      ****** ****** ****** ****** ****** ****** ****** ****** ****** ******
   8  ****** ****** ****** ****** ****** ****** ****** ****** ****** ******
      ****** ****** ****** ****** ****** ****** ****** ****** ****** ******
      ****** ****** ****** ****** ****** ****** ****** ****** ****** ******
   9  ****** ****** ****** ****** ****** ****** ****** ****** ****** ******
      ****** ****** ****** ****** ****** ****** ****** ****** ****** ******
      ****** ****** ****** ****** ****** ****** ****** ****** ****** ******
  10  ****** ****** ****** ****** ****** ****** ****** ****** ****** ******
      ****** ****** ****** ****** ****** ****** ****** ****** ****** ******
      ****** ****** ****** ****** ****** ****** ****** ****** ****** ******
  11  ****** ****** ****** ****** ****** ****** ****** ****** ****** ******
      ****** ****** ****** ****** ****** ****** ****** ****** ****** ******
      ****** ****** ****** ****** ****** ****** ****** ****** ****** ******
  12  ****** ****** ****** ****** ****** ****** ****** ****** ****** ******
      ****** ****** ****** ****** ****** ****** ****** ****** ****** ******
      ****** ****** ****** ****** ****** ****** ****** ****** ****** ******
  13  ****** ****** ****** ****** ****** ****** ****** ****** ****** ******
      ****** ****** ****** ****** ****** ****** ****** ****** ****** ******
      ****** ****** ****** ****** ****** ****** ****** ****** ****** ******
  14  ****** ****** ****** ****** ****** ****** ****** ****** ****** ******
      ****** ****** ****** ****** ****** ****** ****** ****** ****** ******
      ****** ****** ****** ****** ****** ****** ****** ****** ****** ******
  15  ****** ****** ****** ****** ****** ****** ****** ****** ****** ******
      ****** ****** ****** ****** ****** ****** ****** ****** ****** ******
      ****** ****** ****** ****** ****** ****** ****** ****** ****** ******
  16  ****** ****** ****** ****** ****** ****** ****** ****** ****** ******
      ****** ****** ****** ****** ****** ****** ****** ****** ****** ******
      ****** ****** ****** ****** ****** ****** ****** ****** ****** ******
  17  ****** ****** ****** ****** ****** ****** ****** ****** ****** ******
      ****** ****** ****** ****** ****** ****** ****** ****** ****** ******
      ****** ****** ****** ****** ****** ****** ****** ****** ****** ******
  18  ****** ****** ****** ****** ****** ****** ****** ****** ****** ******
      ****** ****** ****** ****** ****** ****** ****** ****** ****** ******
      ****** ****** ****** ****** ****** ****** ****** ****** ****** ******
  19  ****** ****** ****** ****** ****** ****** ****** ****** ****** ******
      ****** ****** ****** ****** ****** ****** ****** ****** ****** ******
      ****** ****** ****** ****** ****** ****** ****** ****** ****** ******
  20  ****** ****** ****** ****** ****** ****** ****** ****** ****** ******
      ****** ****** ****** ****** ****** ****** ****** ****** ****** ******
      ****** ****** ****** ****** ****** ****** ****** ****** ****** ******
  21  ****** ****** ****** ****** ****** ****** ****** ****** ****** ******
      ****** ****** ****** ****** ****** ****** ****** ****** ****** ******
      ****** ****** ****** ****** ****** ****** ****** ****** ****** ******
  22  ****** ****** ****** ****** ****** ****** ****** ****** ****** ******
      ****** ****** ****** ****** ****** ****** ****** ****** ****** ******
      ****** ****** ****** ****** ****** ****** ****** ****** ****** ******
  23  ****** ****** ****** ****** ****** ****** ****** ****** ****** ******
      ****** ****** ****** ****** ****** ****** ****** ****** ****** ******
      ****** ****** ****** ****** ****** ****** ****** ****** ****** ******
  24  ****** ****** ****** ****** ****** ****** ****** ****** ****** ******
      ****** ****** ****** ****** ****** ****** ****** ****** ****** ******
      ****** ****** ****** ****** ****** ****** ****** ****** ****** ******
  25  ****** ****** ****** ****** ****** ****** ****** ****** ****** ******
      ****** ****** ****** ****** ****** ****** ****** ****** ****** ******
      ****** ****** ****** ****** ****** ****** ****** ****** ****** ******

 HEAD WILL BE SAVED ON UNIT   51 AT END OF TIME STEP    1, STRESS PERIOD    1
1
  VOLUMETRIC BUDGET FOR ENTIRE MODEL AT END OF TIME STEP    1, STRESS PERIOD   1
  ------------------------------------------------------------------------------

     CUMULATIVE VOLUMES      L**3       RATES FOR THIS TIME STEP      L**3/T
     ------------------                 ------------------------

           IN:                                      IN:
           ---                                      ---
             STORAGE =    17681829.7791               STORAGE =      192193.8019
       CONSTANT HEAD =     9163507.6178         CONSTANT HEAD =       99603.3437
               WELLS =           0.0000                 WELLS =           0.0000
            RECHARGE =     1269600.0000              RECHARGE =       13800.0000
      STREAM LEAKAGE =      532235.5525        STREAM LEAKAGE =        5785.1690

            TOTAL IN =    28647172.9493              TOTAL IN =      311382.3147

          OUT:                                     OUT:
          ----                                     ----
             STORAGE =           0.0000               STORAGE =           0.0000
       CONSTANT HEAD =           0.0000         CONSTANT HEAD =           0.0000
               WELLS =     6563972.6877                 WELLS =       71347.5292
            RECHARGE =           0.0000              RECHARGE =           0.0000
      STREAM LEAKAGE =    22083200.3995        STREAM LEAKAGE =      240034.7870

           TOTAL OUT =    28647173.0872             TOTAL OUT =      311382.3162

            IN - OUT =          -0.1379              IN - OUT =      -1.4991E-03

 PERCENT DISCREPANCY =          -0.00     PERCENT DISCREPANCY =          -0.00






         TIME SUMMARY AT END OF TIME STEP    1 IN STRESS PERIOD    1
                    SECONDS     MINUTES      HOURS       DAYS        YEARS
                    -----------------------------------------------------------
   TIME STEP LENGTH 7.94880E+06 1.32480E+05  2208.0      92.000     0.25188    
 STRESS PERIOD TIME 7.94880E+06 1.32480E+05  2208.0      92.000     0.25188    
         TOTAL TIME 7.94880E+06 1.32480E+05  2208.0      92.000     0.25188    
1
1
                            STRESS PERIOD NO.    2, LENGTH =   91.00000    
                            -----------------------------------------------

                              NUMBER OF TIME STEPS =     1

                               MULTIPLIER FOR DELT =     1.500

                            INITIAL TIME STEP SIZE =   91.00000    

 WELL NO.  LAYER   ROW   COL   STRESS RATE         
 --------------------------------------------------
      1      1     21     23     -0.1821E+05
      2      1     20     24     -0.1241E+05
      3      1     19     20     -0.2382E+05
      4      1     19     24     -0.1691E+05

      4 WELLS

                 RECHARGE =  2.000000E-03

 REUSING STREAM SEGMENT DATA FROM LAST STRESS PERIOD
 
 SOLVING FOR HEAD 


     7 CALLS TO PCG ROUTINE FOR TIME STEP   1 IN STRESS PERIOD    2
    27 TOTAL ITERATIONS

 OUTPUT CONTROL FOR STRESS PERIOD    2   TIME STEP    1
    SAVE BUDGET
    SAVE HEAD FOR ALL LAYERS
    PRINT HEAD FOR ALL LAYERS
 UBDSV2 SAVING "STREAMFLOW OUT  " ON UNIT  50 AT TIME STEP  1, STRESS PERIOD   2



 STREAM LISTING     PERIOD      2   STEP        1

 LAYER ROW COL. STREAM  RCH.  FLOW INTO     FLOW TO   FLOW OUT OF   OVRLND.     DIRECT     STREAM       STREAM     STREAM     STREAM   STREAMBED  STREAMBED
                SEG.NO.  NO.  STRM. RCH.    AQUIFER    STRM. RCH.    RUNOFF     PRECIP       ET          HEAD       DEPTH      WIDTH   CONDCTNC.   GRADIENT

   1   13    1     1     1    1.0000E+05 -3.8481E+03   1.0385E+05  0.000E+00  0.000E+00  0.000E+00  4.84077E+01  1.463E-01  2.000E+01  2.000E+04 -1.924E-01
   1   13    2     1     2    1.0385E+05 -6.1998E+03   1.1005E+05  0.000E+00  0.000E+00  0.000E+00  4.79347E+01  1.506E-01  2.000E+01  2.000E+04 -3.100E-01
   1   14    3     1     3    1.1005E+05 -5.1636E+03   1.1521E+05  0.000E+00  0.000E+00  0.000E+00  4.74622E+01  1.554E-01  2.000E+01  2.000E+04 -2.582E-01
   1   15    4     1     4    1.1521E+05 -5.0071E+03   1.2022E+05  0.000E+00  0.000E+00  0.000E+00  4.69891E+01  1.595E-01  2.000E+01  2.000E+04 -2.504E-01
   1   16    5     1     5    1.2022E+05 -5.1697E+03   1.2539E+05  0.000E+00  0.000E+00  0.000E+00  4.65159E+01  1.636E-01  2.000E+01  2.000E+04 -2.585E-01
   1   16    6     1     6    1.2539E+05 -4.0950E+03   1.2948E+05  0.000E+00  0.000E+00  0.000E+00  4.60423E+01  1.673E-01  2.000E+01  2.000E+04 -2.048E-01
   1   16    7     1     7    1.2948E+05 -4.1818E+03   1.3367E+05  0.000E+00  0.000E+00  0.000E+00  4.55683E+01  1.705E-01  2.000E+01  2.000E+04 -2.091E-01
   1   16    8     1     8    1.3367E+05 -4.2205E+03   1.3789E+05  0.000E+00  0.000E+00  0.000E+00  4.50942E+01  1.738E-01  2.000E+01  2.000E+04 -2.110E-01
   1   16    9     1     9    1.3789E+05 -4.1918E+03   1.4208E+05  0.000E+00  0.000E+00  0.000E+00  4.46202E+01  1.770E-01  2.000E+01  2.000E+04 -2.096E-01
   1   16   10     1    10    1.4208E+05 -4.0919E+03   1.4617E+05  0.000E+00  0.000E+00  0.000E+00  4.41460E+01  1.801E-01  2.000E+01  2.000E+04 -2.046E-01
   1   16   11     1    11    1.4617E+05 -3.9279E+03   1.5010E+05  0.000E+00  0.000E+00  0.000E+00  4.36717E+01  1.831E-01  2.000E+01  2.000E+04 -1.964E-01
   1   16   12     1    12    1.5010E+05 -4.7194E+03   1.5482E+05  0.000E+00  0.000E+00  0.000E+00  4.31977E+01  1.863E-01  2.000E+01  2.000E+04 -2.360E-01
   1   15   13     1    13    1.5482E+05 -4.5172E+03   1.5933E+05  0.000E+00  0.000E+00  0.000E+00  4.27238E+01  1.897E-01  2.000E+01  2.000E+04 -2.259E-01
   1   14   14     1    14    1.5933E+05 -4.6118E+03   1.6395E+05  0.000E+00  0.000E+00  0.000E+00  4.22498E+01  1.930E-01  2.000E+01  2.000E+04 -2.306E-01
   1   13   15     1    15    1.6395E+05 -4.9954E+03   1.6894E+05  0.000E+00  0.000E+00  0.000E+00  4.17759E+01  1.964E-01  2.000E+01  2.000E+04 -2.498E-01
   1   12   16     1    16    1.6894E+05 -6.5348E+03   1.7548E+05  0.000E+00  0.000E+00  0.000E+00  4.13027E+01  2.004E-01  2.000E+01  2.000E+04 -3.267E-01
   1   12   17     1    17    1.7548E+05 -4.0898E+03   1.7957E+05  0.000E+00  0.000E+00  0.000E+00  4.08291E+01  2.041E-01  2.000E+01  2.000E+04 -2.045E-01
   1   12   18     1    18    1.7957E+05 -3.8555E+03   1.8342E+05  0.000E+00  0.000E+00  0.000E+00  4.03546E+01  2.068E-01  2.000E+01  2.000E+04 -1.928E-01
   1   12   19     1    19    1.8342E+05 -5.1813E+03   1.8860E+05  0.000E+00  0.000E+00  0.000E+00  3.98804E+01  2.099E-01  2.000E+01  2.000E+04 -2.591E-01
   1   13   20     1    20    1.8860E+05 -2.6931E+03   1.9130E+05  0.000E+00  0.000E+00  0.000E+00  3.94058E+01  2.126E-01  2.000E+01  2.000E+04 -1.347E-01
   1   14   21     1    21    1.9130E+05 -4.2310E+02   1.9172E+05  0.000E+00  0.000E+00  0.000E+00  3.89295E+01  2.136E-01  2.000E+01  2.000E+04 -2.116E-02
   1   14   22     1    22    1.9172E+05  5.4029E+03   1.8632E+05  0.000E+00  0.000E+00  0.000E+00  3.84506E+01  2.119E-01  2.000E+01  2.000E+04  2.701E-01
   1    9   30     2     1    5.0000E+04 -3.4522E+03   5.3452E+04  0.000E+00  0.000E+00  0.000E+00  4.02432E+01  1.182E-01  2.000E+01  2.000E+04 -1.726E-01
   1    9   29     2     2    5.3452E+04 -3.7765E+03   5.7229E+04  0.000E+00  0.000E+00  0.000E+00  3.99981E+01  1.231E-01  2.000E+01  2.000E+04 -1.888E-01
   1    9   28     2     3    5.7229E+04 -4.1529E+03   6.1382E+04  0.000E+00  0.000E+00  0.000E+00  3.97534E+01  1.284E-01  2.000E+01  2.000E+04 -2.076E-01
   1    9   27     2     4    6.1382E+04 -7.1604E+03   6.8542E+04  0.000E+00  0.000E+00  0.000E+00  3.95106E+01  1.356E-01  2.000E+01  2.000E+04 -3.580E-01
   1   10   26     2     5    6.8542E+04 -4.8251E+03   7.3367E+04  0.000E+00  0.000E+00  0.000E+00  3.92679E+01  1.429E-01  2.000E+01  2.000E+04 -2.413E-01
   1   11   25     2     6    7.3367E+04 -3.7231E+03   7.7090E+04  0.000E+00  0.000E+00  0.000E+00  3.90230E+01  1.480E-01  2.000E+01  2.000E+04 -1.862E-01
   1   12   24     2     7    7.7090E+04 -2.7199E+03   7.9810E+04  0.000E+00  0.000E+00  0.000E+00  3.87768E+01  1.518E-01  2.000E+01  2.000E+04 -1.360E-01
   1   13   23     2     8    7.9810E+04 -1.6389E+03   8.1449E+04  0.000E+00  0.000E+00  0.000E+00  3.85293E+01  1.543E-01  2.000E+01  2.000E+04 -8.194E-02
   1   14   22     2     9    8.1449E+04  1.9741E+03   7.9475E+04  0.000E+00  0.000E+00  0.000E+00  3.82791E+01  1.541E-01  2.000E+01  2.000E+04  9.870E-02
   1   14   22     3     1    2.6579E+05 -8.1424E+03   2.7393E+05  0.000E+00  0.000E+00  0.000E+00  3.77733E+01  2.178E-01  2.000E+01  2.000E+04 -4.071E-01
   1   15   23     3     2    2.7393E+05  7.6086E+02   2.7317E+05  0.000E+00  0.000E+00  0.000E+00  3.68862E+01  2.195E-01  2.000E+01  2.000E+04  3.804E-02
   1   15   24     3     3    2.7317E+05  2.7604E+02   2.7290E+05  0.000E+00  0.000E+00  0.000E+00  3.59971E+01  2.193E-01  2.000E+01  2.000E+04  1.380E-02
   1   15   25     3     4    2.7290E+05 -2.4541E+02   2.7314E+05  0.000E+00  0.000E+00  0.000E+00  3.51082E+01  2.193E-01  2.000E+01  2.000E+04 -1.227E-02
   1   15   26     3     5    2.7314E+05 -1.6252E+03   2.7477E+05  0.000E+00  0.000E+00  0.000E+00  3.42197E+01  2.197E-01  2.000E+01  2.000E+04 -8.126E-02
   1   16   27     3     6    2.7477E+05 -1.3064E+03   2.7607E+05  0.000E+00  0.000E+00  0.000E+00  3.33316E+01  2.204E-01  2.000E+01  2.000E+04 -6.532E-02
   1   17   28     3     7    2.7607E+05 -2.0616E+03   2.7814E+05  0.000E+00  0.000E+00  0.000E+00  3.24435E+01  2.213E-01  2.000E+01  2.000E+04 -1.031E-01
   1   18   29     3     8    2.7814E+05 -3.8159E+03   2.8195E+05  0.000E+00  0.000E+00  0.000E+00  3.15560E+01  2.227E-01  2.000E+01  2.000E+04 -1.908E-01
   1   18   30     3     9    2.8195E+05 -4.3243E+03   2.8628E+05  0.000E+00  0.000E+00  0.000E+00  3.06690E+01  2.246E-01  2.000E+01  2.000E+04 -2.162E-01



1
              HEAD IN LAYER   1 AT END OF TIME STEP   1 IN STRESS PERIOD    2
  ---------------------------------------------------------------------------

          1      2      3      4      5      6      7      8      9     10
         11     12     13     14     15     16     17     18     19     20
         21     22     23     24     25     26     27     28     29     30
 .........................................................................
   1  ****** ****** ****** ****** ****** ****** ****** ****** ****** ******
      ****** ****** ****** ****** ****** ****** ****** ****** ****** ******
      ****** ****** ****** ****** ****** ****** ****** ****** ****** ******
   2  ****** ****** ****** ****** ****** ****** ****** ****** ****** ******
      ****** ****** ****** ****** ****** ****** ****** ****** ****** ******
      ****** ****** ****** ****** ****** ****** ****** ****** ****** ******
   3  ****** ****** ****** ****** ****** ****** ****** ****** ****** ******
      ****** ****** ****** ****** ****** ****** ****** ****** ****** ******
      ****** ****** ****** ****** ****** ****** ****** ****** ****** ******
   4  ****** ****** ****** ****** ****** ****** ****** ****** ****** ******
      ****** ****** ****** ****** ****** ****** ****** ****** ****** ******
      ****** ****** ****** ****** ****** ****** ****** ****** ****** ******
   5  ****** ****** ****** ****** ****** ****** ****** ****** ****** ******
      ****** ****** ****** ****** ****** ****** ****** ****** ****** ******
      ****** ****** ****** ****** ****** ****** ****** ****** ****** ******
   6  ****** ****** ****** ****** ****** ****** ****** ****** ****** ******
      ****** ****** ****** ****** ****** ****** ****** ****** ****** ******
      ****** ****** ****** ****** ****** ****** ****** ****** ****** ******
   7  ****** ****** ****** ****** ****** ****** ****** ****** ****** ******
      ****** ****** ****** ****** ****** ****** ****** ****** ****** ******
      ****** ****** ****** ****** ****** ****** ****** ****** ****** ******
   8  ****** ****** ****** ****** ****** ****** ****** ****** ****** ******
      ****** ****** ****** ****** ****** ****** ****** ****** ****** ******
      ****** ****** ****** ****** ****** ****** ****** ****** ****** ******
   9  ****** ****** ****** ****** ****** ****** ****** ****** ****** ******
      ****** ****** ****** ****** ****** ****** ****** ****** ****** ******
      ****** ****** ****** ****** ****** ****** ****** ****** ****** ******
  10  ****** ****** ****** ****** ****** ****** ****** ****** ****** ******
      ****** ****** ****** ****** ****** ****** ****** ****** ****** ******
      ****** ****** ****** ****** ****** ****** ****** ****** ****** ******
  11  ****** ****** ****** ****** ****** ****** ****** ****** ****** ******
      ****** ****** ****** ****** ****** ****** ****** ****** ****** ******
      ****** ****** ****** ****** ****** ****** ****** ****** ****** ******
  12  ****** ****** ****** ****** ****** ****** ****** ****** ****** ******
      ****** ****** ****** ****** ****** ****** ****** ****** ****** ******
      ****** ****** ****** ****** ****** ****** ****** ****** ****** ******
  13  ****** ****** ****** ****** ****** ****** ****** ****** ****** ******
      ****** ****** ****** ****** ****** ****** ****** ****** ****** ******
      ****** ****** ****** ****** ****** ****** ****** ****** ****** ******
  14  ****** ****** ****** ****** ****** ****** ****** ****** ****** ******
      ****** ****** ****** ****** ****** ****** ****** ****** ****** ******
      ****** ****** ****** ****** ****** ****** ****** ****** ****** ******
  15  ****** ****** ****** ****** ****** ****** ****** ****** ****** ******
      ****** ****** ****** ****** ****** ****** ****** ****** ****** ******
      ****** ****** ****** ****** ****** ****** ****** ****** ****** ******
  16  ****** ****** ****** ****** ****** ****** ****** ****** ****** ******
      ****** ****** ****** ****** ****** ****** ****** ****** ****** ******
      ****** ****** ****** ****** ****** ****** ****** ****** ****** ******
  17  ****** ****** ****** ****** ****** ****** ****** ****** ****** ******
      ****** ****** ****** ****** ****** ****** ****** ****** ****** ******
      ****** ****** ****** ****** ****** ****** ****** ****** ****** ******
  18  ****** ****** ****** ****** ****** ****** ****** ****** ****** ******
      ****** ****** ****** ****** ****** ****** ****** ****** ****** ******
      ****** ****** ****** ****** ****** ****** ****** ****** ****** ******
  19  ****** ****** ****** ****** ****** ****** ****** ****** ****** ******
      ****** ****** ****** ****** ****** ****** ****** ****** ****** ******
      ****** ****** ****** ****** ****** ****** ****** ****** ****** ******
  20  ****** ****** ****** ****** ****** ****** ****** ****** ****** ******
      ****** ****** ****** ****** ****** ****** ****** ****** ****** ******
      ****** ****** ****** ****** ****** ****** ****** ****** ****** ******
  21  ****** ****** ****** ****** ****** ****** ****** ****** ****** ******
      ****** ****** ****** ****** ****** ****** ****** ****** ****** ******
      ****** ****** ****** ****** ****** ****** ****** ****** ****** ******
  22  ****** ****** ****** ****** ****** ****** ****** ****** ****** ******
      ****** ****** ****** ****** ****** ****** ****** ****** ****** ******
      ****** ****** ****** ****** ****** ****** ****** ****** ****** ******
  23  ****** ****** ****** ****** ****** ****** ****** ****** ****** ******
      ****** ****** ****** ****** ****** ****** ****** ****** ****** ******
      ****** ****** ****** ****** ****** ****** ****** ****** ****** ******
  24  ****** ****** ****** ****** ****** ****** ****** ****** ****** ******
      ****** ****** ****** ****** ****** ****** ****** ****** ****** ******
      ****** ****** ****** ****** ****** ****** ****** ****** ****** ******
  25  ****** ****** ****** ****** ****** ****** ****** ****** ****** ******
      ****** ****** ****** ****** ****** ****** ****** ****** ****** ******
      ****** ****** ****** ****** ****** ****** ****** ****** ****** ******

 HEAD WILL BE SAVED ON UNIT   51 AT END OF TIME STEP    1, STRESS PERIOD    2
1
  VOLUMETRIC BUDGET FOR ENTIRE MODEL AT END OF TIME STEP    1, STRESS PERIOD   2
  ------------------------------------------------------------------------------

     CUMULATIVE VOLUMES      L**3       RATES FOR THIS TIME STEP      L**3/T
     ------------------                 ------------------------

           IN:                                      IN:
           ---                                      ---
             STORAGE =    20855570.9584               STORAGE =       34876.2767
       CONSTANT HEAD =    19860239.3138         CONSTANT HEAD =      117546.5022
               WELLS =           0.0000                 WELLS =           0.0000
            RECHARGE =     6292800.0000              RECHARGE =       55200.0000
      STREAM LEAKAGE =     1297895.4754        STREAM LEAKAGE =        8413.8453

            TOTAL IN =    48306505.7477              TOTAL IN =      216036.6242

          OUT:                                     OUT:
          ----                                     ----
             STORAGE =           0.0000               STORAGE =           0.0000
       CONSTANT HEAD =           0.0000         CONSTANT HEAD =           0.0000
               WELLS =    13056597.8463                 WELLS =       71347.5292
            RECHARGE =           0.0000              RECHARGE =           0.0000
      STREAM LEAKAGE =    35249908.4806        STREAM LEAKAGE =      144689.0998

           TOTAL OUT =    48306506.3269             TOTAL OUT =      216036.6290

            IN - OUT =          -0.5793              IN - OUT =      -4.8500E-03

 PERCENT DISCREPANCY =          -0.00     PERCENT DISCREPANCY =          -0.00






         TIME SUMMARY AT END OF TIME STEP    1 IN STRESS PERIOD    2
                    SECONDS     MINUTES      HOURS       DAYS        YEARS
                    -----------------------------------------------------------
   TIME STEP LENGTH 7.86240E+06 1.31040E+05  2184.0      91.000     0.24914    
 STRESS PERIOD TIME 7.86240E+06 1.31040E+05  2184.0      91.000     0.24914    
         TOTAL TIME 1.58112E+07 2.63520E+05  4392.0      183.00     0.50103    
1
1
                            STRESS PERIOD NO.    3, LENGTH =   91.00000    
                            -----------------------------------------------

                              NUMBER OF TIME STEPS =     1

                               MULTIPLIER FOR DELT =     1.500

                            INITIAL TIME STEP SIZE =   91.00000    

 WELL NO.  LAYER   ROW   COL   STRESS RATE         
 --------------------------------------------------
      1      1     21     23     -0.1821E+05
      2      1     20     24     -0.1241E+05
      3      1     19     20     -0.2382E+05
      4      1     19     24     -0.1691E+05

      4 WELLS

                 RECHARGE =   0.00000    

 REUSING STREAM SEGMENT DATA FROM LAST STRESS PERIOD
 
 SOLVING FOR HEAD 


     7 CALLS TO PCG ROUTINE FOR TIME STEP   1 IN STRESS PERIOD    3
    27 TOTAL ITERATIONS

 OUTPUT CONTROL FOR STRESS PERIOD    3   TIME STEP    1
    SAVE BUDGET
    SAVE HEAD FOR ALL LAYERS
    PRINT HEAD FOR ALL LAYERS
 UBDSV2 SAVING "STREAMFLOW OUT  " ON UNIT  50 AT TIME STEP  1, STRESS PERIOD   3



 STREAM LISTING     PERIOD      3   STEP        1

 LAYER ROW COL. STREAM  RCH.  FLOW INTO     FLOW TO   FLOW OUT OF   OVRLND.     DIRECT     STREAM       STREAM     STREAM     STREAM   STREAMBED  STREAMBED
                SEG.NO.  NO.  STRM. RCH.    AQUIFER    STRM. RCH.    RUNOFF     PRECIP       ET          HEAD       DEPTH      WIDTH   CONDCTNC.   GRADIENT

   1   13    1     1     1    1.0000E+05 -2.9384E+03   1.0294E+05  0.000E+00  0.000E+00  0.000E+00  4.84073E+01  1.459E-01  2.000E+01  2.000E+04 -1.469E-01
   1   13    2     1     2    1.0294E+05 -4.9546E+03   1.0789E+05  0.000E+00  0.000E+00  0.000E+00  4.79334E+01  1.493E-01  2.000E+01  2.000E+04 -2.477E-01
   1   14    3     1     3    1.0789E+05 -3.9249E+03   1.1182E+05  0.000E+00  0.000E+00  0.000E+00  4.74599E+01  1.530E-01  2.000E+01  2.000E+04 -1.962E-01
   1   15    4     1     4    1.1182E+05 -3.7896E+03   1.1561E+05  0.000E+00  0.000E+00  0.000E+00  4.69858E+01  1.562E-01  2.000E+01  2.000E+04 -1.895E-01
   1   16    5     1     5    1.1561E+05 -4.0645E+03   1.1967E+05  0.000E+00  0.000E+00  0.000E+00  4.65117E+01  1.595E-01  2.000E+01  2.000E+04 -2.032E-01
   1   16    6     1     6    1.1967E+05 -3.2208E+03   1.2289E+05  0.000E+00  0.000E+00  0.000E+00  4.60374E+01  1.624E-01  2.000E+01  2.000E+04 -1.610E-01
   1   16    7     1     7    1.2289E+05 -3.2833E+03   1.2618E+05  0.000E+00  0.000E+00  0.000E+00  4.55627E+01  1.650E-01  2.000E+01  2.000E+04 -1.642E-01
   1   16    8     1     8    1.2618E+05 -3.3043E+03   1.2948E+05  0.000E+00  0.000E+00  0.000E+00  4.50881E+01  1.676E-01  2.000E+01  2.000E+04 -1.652E-01
   1   16    9     1     9    1.2948E+05 -3.2666E+03   1.3275E+05  0.000E+00  0.000E+00  0.000E+00  4.46134E+01  1.702E-01  2.000E+01  2.000E+04 -1.633E-01
   1   16   10     1    10    1.3275E+05 -3.1650E+03   1.3591E+05  0.000E+00  0.000E+00  0.000E+00  4.41386E+01  1.727E-01  2.000E+01  2.000E+04 -1.583E-01
   1   16   11     1    11    1.3591E+05 -2.9978E+03   1.3891E+05  0.000E+00  0.000E+00  0.000E+00  4.36637E+01  1.750E-01  2.000E+01  2.000E+04 -1.499E-01
   1   16   12     1    12    1.3891E+05 -3.4340E+03   1.4234E+05  0.000E+00  0.000E+00  0.000E+00  4.31889E+01  1.775E-01  2.000E+01  2.000E+04 -1.717E-01
   1   15   13     1    13    1.4234E+05 -3.1070E+03   1.4545E+05  0.000E+00  0.000E+00  0.000E+00  4.27140E+01  1.800E-01  2.000E+01  2.000E+04 -1.553E-01
   1   14   14     1    14    1.4545E+05 -3.1684E+03   1.4862E+05  0.000E+00  0.000E+00  0.000E+00  4.22391E+01  1.823E-01  2.000E+01  2.000E+04 -1.584E-01
   1   13   15     1    15    1.4862E+05 -3.5985E+03   1.5222E+05  0.000E+00  0.000E+00  0.000E+00  4.17643E+01  1.848E-01  2.000E+01  2.000E+04 -1.799E-01
   1   12   16     1    16    1.5222E+05 -5.2443E+03   1.5746E+05  0.000E+00  0.000E+00  0.000E+00  4.12903E+01  1.880E-01  2.000E+01  2.000E+04 -2.622E-01
   1   12   17     1    17    1.5746E+05 -3.1287E+03   1.6059E+05  0.000E+00  0.000E+00  0.000E+00  4.08161E+01  1.911E-01  2.000E+01  2.000E+04 -1.564E-01
   1   12   18     1    18    1.6059E+05 -2.9110E+03   1.6350E+05  0.000E+00  0.000E+00  0.000E+00  4.03410E+01  1.932E-01  2.000E+01  2.000E+04 -1.455E-01
   1   12   19     1    19    1.6350E+05 -4.0568E+03   1.6756E+05  0.000E+00  0.000E+00  0.000E+00  3.98662E+01  1.957E-01  2.000E+01  2.000E+04 -2.028E-01
   1   13   20     1    20    1.6756E+05 -1.5288E+03   1.6909E+05  0.000E+00  0.000E+00  0.000E+00  3.93909E+01  1.977E-01  2.000E+01  2.000E+04 -7.644E-02
   1   14   21     1    21    1.6909E+05  7.8577E+02   1.6830E+05  0.000E+00  0.000E+00  0.000E+00  3.89139E+01  1.980E-01  2.000E+01  2.000E+04  3.929E-02
   1   14   22     1    22    1.6830E+05  5.5963E+03   1.6271E+05  0.000E+00  0.000E+00  0.000E+00  3.84343E+01  1.957E-01  2.000E+01  2.000E+04  2.798E-01
   1    9   30     2     1    5.0000E+04 -2.6844E+03   5.2684E+04  0.000E+00  0.000E+00  0.000E+00  4.02427E+01  1.177E-01  2.000E+01  2.000E+04 -1.342E-01
   1    9   29     2     2    5.2684E+04 -3.0189E+03   5.5703E+04  0.000E+00  0.000E+00  0.000E+00  3.99966E+01  1.216E-01  2.000E+01  2.000E+04 -1.509E-01
   1    9   28     2     3    5.5703E+04 -3.4064E+03   5.9110E+04  0.000E+00  0.000E+00  0.000E+00  3.97509E+01  1.259E-01  2.000E+01  2.000E+04 -1.703E-01
   1    9   27     2     4    5.9110E+04 -6.1524E+03   6.5262E+04  0.000E+00  0.000E+00  0.000E+00  3.95071E+01  1.321E-01  2.000E+01  2.000E+04 -3.076E-01
   1   10   26     2     5    6.5262E+04 -3.7583E+03   6.9020E+04  0.000E+00  0.000E+00  0.000E+00  3.92633E+01  1.383E-01  2.000E+01  2.000E+04 -1.879E-01
   1   11   25     2     6    6.9020E+04 -2.7055E+03   7.1726E+04  0.000E+00  0.000E+00  0.000E+00  3.90172E+01  1.422E-01  2.000E+01  2.000E+04 -1.353E-01
   1   12   24     2     7    7.1726E+04 -1.8456E+03   7.3572E+04  0.000E+00  0.000E+00  0.000E+00  3.87700E+01  1.450E-01  2.000E+01  2.000E+04 -9.228E-02
   1   13   23     2     8    7.3572E+04 -9.8903E+02   7.4561E+04  0.000E+00  0.000E+00  0.000E+00  3.85217E+01  1.467E-01  2.000E+01  2.000E+04 -4.945E-02
   1   14   22     2     9    7.4561E+04  2.3269E+03   7.2234E+04  0.000E+00  0.000E+00  0.000E+00  3.82709E+01  1.459E-01  2.000E+01  2.000E+04  1.163E-01
   1   14   22     3     1    2.3494E+05 -7.9313E+03   2.4287E+05  0.000E+00  0.000E+00  0.000E+00  3.77580E+01  2.024E-01  2.000E+01  2.000E+04 -3.966E-01
   1   15   23     3     2    2.4287E+05  1.9620E+03   2.4091E+05  0.000E+00  0.000E+00  0.000E+00  3.68706E+01  2.039E-01  2.000E+01  2.000E+04  9.810E-02
   1   15   24     3     3    2.4091E+05  1.0572E+03   2.3985E+05  0.000E+00  0.000E+00  0.000E+00  3.59809E+01  2.032E-01  2.000E+01  2.000E+04  5.286E-02
   1   15   25     3     4    2.3985E+05  4.9497E+02   2.3936E+05  0.000E+00  0.000E+00  0.000E+00  3.50917E+01  2.028E-01  2.000E+01  2.000E+04  2.475E-02
   1   15   26     3     5    2.3936E+05 -7.1349E+02   2.4007E+05  0.000E+00  0.000E+00  0.000E+00  3.42028E+01  2.028E-01  2.000E+01  2.000E+04 -3.567E-02
   1   16   27     3     6    2.4007E+05 -7.3047E+01   2.4014E+05  0.000E+00  0.000E+00  0.000E+00  3.33141E+01  2.030E-01  2.000E+01  2.000E+04 -3.652E-03
   1   17   28     3     7    2.4014E+05 -7.9917E+02   2.4094E+05  0.000E+00  0.000E+00  0.000E+00  3.24255E+01  2.032E-01  2.000E+01  2.000E+04 -3.996E-02
   1   18   29     3     8    2.4094E+05 -2.6273E+03   2.4357E+05  0.000E+00  0.000E+00  0.000E+00  3.15374E+01  2.041E-01  2.000E+01  2.000E+04 -1.314E-01
   1   18   30     3     9    2.4357E+05 -3.4979E+03   2.4707E+05  0.000E+00  0.000E+00  0.000E+00  3.06501E+01  2.057E-01  2.000E+01  2.000E+04 -1.749E-01



1
              HEAD IN LAYER   1 AT END OF TIME STEP   1 IN STRESS PERIOD    3
  ---------------------------------------------------------------------------

          1      2      3      4      5      6      7      8      9     10
         11     12     13     14     15     16     17     18     19     20
         21     22     23     24     25     26     27     28     29     30
 .........................................................................
   1  ****** ****** ****** ****** ****** ****** ****** ****** ****** ******
      ****** ****** ****** ****** ****** ****** ****** ****** ****** ******
      ****** ****** ****** ****** ****** ****** ****** ****** ****** ******
   2  ****** ****** ****** ****** ****** ****** ****** ****** ****** ******
      ****** ****** ****** ****** ****** ****** ****** ****** ****** ******
      ****** ****** ****** ****** ****** ****** ****** ****** ****** ******
   3  ****** ****** ****** ****** ****** ****** ****** ****** ****** ******
      ****** ****** ****** ****** ****** ****** ****** ****** ****** ******
      ****** ****** ****** ****** ****** ****** ****** ****** ****** ******
   4  ****** ****** ****** ****** ****** ****** ****** ****** ****** ******
      ****** ****** ****** ****** ****** ****** ****** ****** ****** ******
      ****** ****** ****** ****** ****** ****** ****** ****** ****** ******
   5  ****** ****** ****** ****** ****** ****** ****** ****** ****** ******
      ****** ****** ****** ****** ****** ****** ****** ****** ****** ******
      ****** ****** ****** ****** ****** ****** ****** ****** ****** ******
   6  ****** ****** ****** ****** ****** ****** ****** ****** ****** ******
      ****** ****** ****** ****** ****** ****** ****** ****** ****** ******
      ****** ****** ****** ****** ****** ****** ****** ****** ****** ******
   7  ****** ****** ****** ****** ****** ****** ****** ****** ****** ******
      ****** ****** ****** ****** ****** ****** ****** ****** ****** ******
      ****** ****** ****** ****** ****** ****** ****** ****** ****** ******
   8  ****** ****** ****** ****** ****** ****** ****** ****** ****** ******
      ****** ****** ****** ****** ****** ****** ****** ****** ****** ******
      ****** ****** ****** ****** ****** ****** ****** ****** ****** ******
   9  ****** ****** ****** ****** ****** ****** ****** ****** ****** ******
      ****** ****** ****** ****** ****** ****** ****** ****** ****** ******
      ****** ****** ****** ****** ****** ****** ****** ****** ****** ******
  10  ****** ****** ****** ****** ****** ****** ****** ****** ****** ******
      ****** ****** ****** ****** ****** ****** ****** ****** ****** ******
      ****** ****** ****** ****** ****** ****** ****** ****** ****** ******
  11  ****** ****** ****** ****** ****** ****** ****** ****** ****** ******
      ****** ****** ****** ****** ****** ****** ****** ****** ****** ******
      ****** ****** ****** ****** ****** ****** ****** ****** ****** ******
  12  ****** ****** ****** ****** ****** ****** ****** ****** ****** ******
      ****** ****** ****** ****** ****** ****** ****** ****** ****** ******
      ****** ****** ****** ****** ****** ****** ****** ****** ****** ******
  13  ****** ****** ****** ****** ****** ****** ****** ****** ****** ******
      ****** ****** ****** ****** ****** ****** ****** ****** ****** ******
      ****** ****** ****** ****** ****** ****** ****** ****** ****** ******
  14  ****** ****** ****** ****** ****** ****** ****** ****** ****** ******
      ****** ****** ****** ****** ****** ****** ****** ****** ****** ******
      ****** ****** ****** ****** ****** ****** ****** ****** ****** ******
  15  ****** ****** ****** ****** ****** ****** ****** ****** ****** ******
      ****** ****** ****** ****** ****** ****** ****** ****** ****** ******
      ****** ****** ****** ****** ****** ****** ****** ****** ****** ******
  16  ****** ****** ****** ****** ****** ****** ****** ****** ****** ******
      ****** ****** ****** ****** ****** ****** ****** ****** ****** ******
      ****** ****** ****** ****** ****** ****** ****** ****** ****** ******
  17  ****** ****** ****** ****** ****** ****** ****** ****** ****** ******
      ****** ****** ****** ****** ****** ****** ****** ****** ****** ******
      ****** ****** ****** ****** ****** ****** ****** ****** ****** ******
  18  ****** ****** ****** ****** ****** ****** ****** ****** ****** ******
      ****** ****** ****** ****** ****** ****** ****** ****** ****** ******
      ****** ****** ****** ****** ****** ****** ****** ****** ****** ******
  19  ****** ****** ****** ****** ****** ****** ****** ****** ****** ******
      ****** ****** ****** ****** ****** ****** ****** ****** ****** ******
      ****** ****** ****** ****** ****** ****** ****** ****** ****** ******
  20  ****** ****** ****** ****** ****** ****** ****** ****** ****** ******
      ****** ****** ****** ****** ****** ****** ****** ****** ****** ******
      ****** ****** ****** ****** ****** ****** ****** ****** ****** ******
  21  ****** ****** ****** ****** ****** ****** ****** ****** ****** ******
      ****** ****** ****** ****** ****** ****** ****** ****** ****** ******
      ****** ****** ****** ****** ****** ****** ****** ****** ****** ******
  22  ****** ****** ****** ****** ****** ****** ****** ****** ****** ******
      ****** ****** ****** ****** ****** ****** ****** ****** ****** ******
      ****** ****** ****** ****** ****** ****** ****** ****** ****** ******
  23  ****** ****** ****** ****** ****** ****** ****** ****** ****** ******
      ****** ****** ****** ****** ****** ****** ****** ****** ****** ******
      ****** ****** ****** ****** ****** ****** ****** ****** ****** ******
  24  ****** ****** ****** ****** ****** ****** ****** ****** ****** ******
      ****** ****** ****** ****** ****** ****** ****** ****** ****** ******
      ****** ****** ****** ****** ****** ****** ****** ****** ****** ******
  25  ****** ****** ****** ****** ****** ****** ****** ****** ****** ******
      ****** ****** ****** ****** ****** ****** ****** ****** ****** ******
      ****** ****** ****** ****** ****** ****** ****** ****** ****** ******

 HEAD WILL BE SAVED ON UNIT   51 AT END OF TIME STEP    1, STRESS PERIOD    3
1
  VOLUMETRIC BUDGET FOR ENTIRE MODEL AT END OF TIME STEP    1, STRESS PERIOD   3
  ------------------------------------------------------------------------------

     CUMULATIVE VOLUMES      L**3       RATES FOR THIS TIME STEP      L**3/T
     ------------------                 ------------------------

           IN:                                      IN:
           ---                                      ---
             STORAGE =    23285839.3248               STORAGE =       26706.2458
       CONSTANT HEAD =    32755690.1403         CONSTANT HEAD =      141708.2508
               WELLS =           0.0000                 WELLS =           0.0000
            RECHARGE =     6292800.0000              RECHARGE =           0.0000
      STREAM LEAKAGE =     2410199.8770        STREAM LEAKAGE =       12223.1253

            TOTAL IN =    64744529.3422              TOTAL IN =      180637.6219

          OUT:                                     OUT:
          ----                                     ----
             STORAGE =           0.0000               STORAGE =           0.0000
       CONSTANT HEAD =           0.0000         CONSTANT HEAD =           0.0000
               WELLS =    19549223.0048                 WELLS =       71347.5292
            RECHARGE =           0.0000              RECHARGE =           0.0000
      STREAM LEAKAGE =    45195307.1479        STREAM LEAKAGE =      109290.0952

           TOTAL OUT =    64744530.1527             TOTAL OUT =      180637.6245

            IN - OUT =          -0.8105              IN - OUT =      -2.5414E-03

 PERCENT DISCREPANCY =          -0.00     PERCENT DISCREPANCY =          -0.00






         TIME SUMMARY AT END OF TIME STEP    1 IN STRESS PERIOD    3
                    SECONDS     MINUTES      HOURS       DAYS        YEARS
                    -----------------------------------------------------------
   TIME STEP LENGTH 7.86240E+06 1.31040E+05  2184.0      91.000     0.24914    
 STRESS PERIOD TIME 7.86240E+06 1.31040E+05  2184.0      91.000     0.24914    
         TOTAL TIME 2.36736E+07 3.94560E+05  6576.0      274.00     0.75017    
1
1
                            STRESS PERIOD NO.    4, LENGTH =   91.00000    
                            -----------------------------------------------

                              NUMBER OF TIME STEPS =     1

                               MULTIPLIER FOR DELT =     1.500

                            INITIAL TIME STEP SIZE =   91.00000    

 WELL NO.  LAYER   ROW   COL   STRESS RATE         
 --------------------------------------------------
      1      1     21     23     -0.1821E+05
      2      1     20     24     -0.1241E+05
      3      1     19     20     -0.2382E+05
      4      1     19     24     -0.1691E+05

      4 WELLS

                 RECHARGE =  1.000000E-03

 REUSING STREAM SEGMENT DATA FROM LAST STRESS PERIOD
 
 SOLVING FOR HEAD 


     6 CALLS TO PCG ROUTINE FOR TIME STEP   1 IN STRESS PERIOD    4
    21 TOTAL ITERATIONS

 OUTPUT CONTROL FOR STRESS PERIOD    4   TIME STEP    1
    SAVE BUDGET
    SAVE HEAD FOR ALL LAYERS
    PRINT HEAD FOR ALL LAYERS
 UBDSV2 SAVING "STREAMFLOW OUT  " ON UNIT  50 AT TIME STEP  1, STRESS PERIOD   4



 STREAM LISTING     PERIOD      4   STEP        1

 LAYER ROW COL. STREAM  RCH.  FLOW INTO     FLOW TO   FLOW OUT OF   OVRLND.     DIRECT     STREAM       STREAM     STREAM     STREAM   STREAMBED  STREAMBED
                SEG.NO.  NO.  STRM. RCH.    AQUIFER    STRM. RCH.    RUNOFF     PRECIP       ET          HEAD       DEPTH      WIDTH   CONDCTNC.   GRADIENT

   1   13    1     1     1    1.0000E+05 -2.9629E+03   1.0296E+05  0.000E+00  0.000E+00  0.000E+00  4.84073E+01  1.459E-01  2.000E+01  2.000E+04 -1.481E-01
   1   13    2     1     2    1.0296E+05 -4.9498E+03   1.0791E+05  0.000E+00  0.000E+00  0.000E+00  4.79334E+01  1.493E-01  2.000E+01  2.000E+04 -2.475E-01
   1   14    3     1     3    1.0791E+05 -3.9748E+03   1.1189E+05  0.000E+00  0.000E+00  0.000E+00  4.74599E+01  1.531E-01  2.000E+01  2.000E+04 -1.987E-01
   1   15    4     1     4    1.1189E+05 -3.8563E+03   1.1574E+05  0.000E+00  0.000E+00  0.000E+00  4.69859E+01  1.563E-01  2.000E+01  2.000E+04 -1.928E-01
   1   16    5     1     5    1.1574E+05 -4.1378E+03   1.1988E+05  0.000E+00  0.000E+00  0.000E+00  4.65119E+01  1.596E-01  2.000E+01  2.000E+04 -2.069E-01
   1   16    6     1     6    1.1988E+05 -3.2737E+03   1.2316E+05  0.000E+00  0.000E+00  0.000E+00  4.60376E+01  1.626E-01  2.000E+01  2.000E+04 -1.637E-01
   1   16    7     1     7    1.2316E+05 -3.3311E+03   1.2649E+05  0.000E+00  0.000E+00  0.000E+00  4.55630E+01  1.652E-01  2.000E+01  2.000E+04 -1.666E-01
   1   16    8     1     8    1.2649E+05 -3.3479E+03   1.2983E+05  0.000E+00  0.000E+00  0.000E+00  4.50883E+01  1.679E-01  2.000E+01  2.000E+04 -1.674E-01
   1   16    9     1     9    1.2983E+05 -3.3070E+03   1.3314E+05  0.000E+00  0.000E+00  0.000E+00  4.46137E+01  1.705E-01  2.000E+01  2.000E+04 -1.653E-01
   1   16   10     1    10    1.3314E+05 -3.2021E+03   1.3634E+05  0.000E+00  0.000E+00  0.000E+00  4.41389E+01  1.730E-01  2.000E+01  2.000E+04 -1.601E-01
   1   16   11     1    11    1.3634E+05 -3.0301E+03   1.3937E+05  0.000E+00  0.000E+00  0.000E+00  4.36640E+01  1.754E-01  2.000E+01  2.000E+04 -1.515E-01
   1   16   12     1    12    1.3937E+05 -3.4432E+03   1.4282E+05  0.000E+00  0.000E+00  0.000E+00  4.31892E+01  1.778E-01  2.000E+01  2.000E+04 -1.722E-01
   1   15   13     1    13    1.4282E+05 -3.1147E+03   1.4593E+05  0.000E+00  0.000E+00  0.000E+00  4.27144E+01  1.803E-01  2.000E+01  2.000E+04 -1.557E-01
   1   14   14     1    14    1.4593E+05 -3.1711E+03   1.4910E+05  0.000E+00  0.000E+00  0.000E+00  4.22395E+01  1.827E-01  2.000E+01  2.000E+04 -1.586E-01
   1   13   15     1    15    1.4910E+05 -3.6037E+03   1.5271E+05  0.000E+00  0.000E+00  0.000E+00  4.17647E+01  1.852E-01  2.000E+01  2.000E+04 -1.802E-01
   1   12   16     1    16    1.5271E+05 -5.2395E+03   1.5795E+05  0.000E+00  0.000E+00  0.000E+00  4.12907E+01  1.884E-01  2.000E+01  2.000E+04 -2.620E-01
   1   12   17     1    17    1.5795E+05 -3.1480E+03   1.6109E+05  0.000E+00  0.000E+00  0.000E+00  4.08164E+01  1.914E-01  2.000E+01  2.000E+04 -1.574E-01
   1   12   18     1    18    1.6109E+05 -2.9374E+03   1.6403E+05  0.000E+00  0.000E+00  0.000E+00  4.03413E+01  1.936E-01  2.000E+01  2.000E+04 -1.469E-01
   1   12   19     1    19    1.6403E+05 -4.1028E+03   1.6813E+05  0.000E+00  0.000E+00  0.000E+00  3.98666E+01  1.961E-01  2.000E+01  2.000E+04 -2.051E-01
   1   13   20     1    20    1.6813E+05 -1.5796E+03   1.6971E+05  0.000E+00  0.000E+00  0.000E+00  3.93913E+01  1.981E-01  2.000E+01  2.000E+04 -7.898E-02
   1   14   21     1    21    1.6971E+05  7.8524E+02   1.6893E+05  0.000E+00  0.000E+00  0.000E+00  3.89143E+01  1.984E-01  2.000E+01  2.000E+04  3.926E-02
   1   14   22     1    22    1.6893E+05  5.5724E+03   1.6336E+05  0.000E+00  0.000E+00  0.000E+00  3.84348E+01  1.962E-01  2.000E+01  2.000E+04  2.786E-01
   1    9   30     2     1    5.0000E+04 -2.7964E+03   5.2796E+04  0.000E+00  0.000E+00  0.000E+00  4.02428E+01  1.178E-01  2.000E+01  2.000E+04 -1.398E-01
   1    9   29     2     2    5.2796E+04 -3.1293E+03   5.5926E+04  0.000E+00  0.000E+00  0.000E+00  3.99968E+01  1.218E-01  2.000E+01  2.000E+04 -1.565E-01
   1    9   28     2     3    5.5926E+04 -3.5128E+03   5.9438E+04  0.000E+00  0.000E+00  0.000E+00  3.97512E+01  1.262E-01  2.000E+01  2.000E+04 -1.756E-01
   1    9   27     2     4    5.9438E+04 -6.2629E+03   6.5701E+04  0.000E+00  0.000E+00  0.000E+00  3.95076E+01  1.326E-01  2.000E+01  2.000E+04 -3.131E-01
   1   10   26     2     5    6.5701E+04 -3.8869E+03   6.9588E+04  0.000E+00  0.000E+00  0.000E+00  3.92639E+01  1.389E-01  2.000E+01  2.000E+04 -1.943E-01
   1   11   25     2     6    6.9588E+04 -2.8349E+03   7.2423E+04  0.000E+00  0.000E+00  0.000E+00  3.90180E+01  1.430E-01  2.000E+01  2.000E+04 -1.417E-01
   1   12   24     2     7    7.2423E+04 -1.9719E+03   7.4395E+04  0.000E+00  0.000E+00  0.000E+00  3.87709E+01  1.459E-01  2.000E+01  2.000E+04 -9.859E-02
   1   13   23     2     8    7.4395E+04 -1.1018E+03   7.5497E+04  0.000E+00  0.000E+00  0.000E+00  3.85227E+01  1.477E-01  2.000E+01  2.000E+04 -5.509E-02
   1   14   22     2     9    7.5497E+04  2.3164E+03   7.3180E+04  0.000E+00  0.000E+00  0.000E+00  3.82720E+01  1.470E-01  2.000E+01  2.000E+04  1.158E-01
   1   14   22     3     1    2.3654E+05 -7.9479E+03   2.4448E+05  0.000E+00  0.000E+00  0.000E+00  3.77588E+01  2.032E-01  2.000E+01  2.000E+04 -3.974E-01
   1   15   23     3     2    2.4448E+05  1.9769E+03   2.4251E+05  0.000E+00  0.000E+00  0.000E+00  3.68714E+01  2.047E-01  2.000E+01  2.000E+04  9.884E-02
   1   15   24     3     3    2.4251E+05  1.0231E+03   2.4148E+05  0.000E+00  0.000E+00  0.000E+00  3.59818E+01  2.040E-01  2.000E+01  2.000E+04  5.115E-02
   1   15   25     3     4    2.4148E+05  4.3734E+02   2.4105E+05  0.000E+00  0.000E+00  0.000E+00  3.50925E+01  2.036E-01  2.000E+01  2.000E+04  2.187E-02
   1   15   26     3     5    2.4105E+05 -8.1744E+02   2.4186E+05  0.000E+00  0.000E+00  0.000E+00  3.42037E+01  2.037E-01  2.000E+01  2.000E+04 -4.087E-02
   1   16   27     3     6    2.4186E+05 -1.5950E+02   2.4202E+05  0.000E+00  0.000E+00  0.000E+00  3.33151E+01  2.040E-01  2.000E+01  2.000E+04 -7.975E-03
   1   17   28     3     7    2.4202E+05 -8.7945E+02   2.4290E+05  0.000E+00  0.000E+00  0.000E+00  3.24264E+01  2.042E-01  2.000E+01  2.000E+04 -4.397E-02
   1   18   29     3     8    2.4290E+05 -2.6833E+03   2.4559E+05  0.000E+00  0.000E+00  0.000E+00  3.15384E+01  2.051E-01  2.000E+01  2.000E+04 -1.342E-01
   1   18   30     3     9    2.4559E+05 -3.5734E+03   2.4916E+05  0.000E+00  0.000E+00  0.000E+00  3.06511E+01  2.067E-01  2.000E+01  2.000E+04 -1.787E-01



1
              HEAD IN LAYER   1 AT END OF TIME STEP   1 IN STRESS PERIOD    4
  ---------------------------------------------------------------------------

          1      2      3      4      5      6      7      8      9     10
         11     12     13     14     15     16     17     18     19     20
         21     22     23     24     25     26     27     28     29     30
 .........................................................................
   1  ****** ****** ****** ****** ****** ****** ****** ****** ****** ******
      ****** ****** ****** ****** ****** ****** ****** ****** ****** ******
      ****** ****** ****** ****** ****** ****** ****** ****** ****** ******
   2  ****** ****** ****** ****** ****** ****** ****** ****** ****** ******
      ****** ****** ****** ****** ****** ****** ****** ****** ****** ******
      ****** ****** ****** ****** ****** ****** ****** ****** ****** ******
   3  ****** ****** ****** ****** ****** ****** ****** ****** ****** ******
      ****** ****** ****** ****** ****** ****** ****** ****** ****** ******
      ****** ****** ****** ****** ****** ****** ****** ****** ****** ******
   4  ****** ****** ****** ****** ****** ****** ****** ****** ****** ******
      ****** ****** ****** ****** ****** ****** ****** ****** ****** ******
      ****** ****** ****** ****** ****** ****** ****** ****** ****** ******
   5  ****** ****** ****** ****** ****** ****** ****** ****** ****** ******
      ****** ****** ****** ****** ****** ****** ****** ****** ****** ******
      ****** ****** ****** ****** ****** ****** ****** ****** ****** ******
   6  ****** ****** ****** ****** ****** ****** ****** ****** ****** ******
      ****** ****** ****** ****** ****** ****** ****** ****** ****** ******
      ****** ****** ****** ****** ****** ****** ****** ****** ****** ******
   7  ****** ****** ****** ****** ****** ****** ****** ****** ****** ******
      ****** ****** ****** ****** ****** ****** ****** ****** ****** ******
      ****** ****** ****** ****** ****** ****** ****** ****** ****** ******
   8  ****** ****** ****** ****** ****** ****** ****** ****** ****** ******
      ****** ****** ****** ****** ****** ****** ****** ****** ****** ******
      ****** ****** ****** ****** ****** ****** ****** ****** ****** ******
   9  ****** ****** ****** ****** ****** ****** ****** ****** ****** ******
      ****** ****** ****** ****** ****** ****** ****** ****** ****** ******
      ****** ****** ****** ****** ****** ****** ****** ****** ****** ******
  10  ****** ****** ****** ****** ****** ****** ****** ****** ****** ******
      ****** ****** ****** ****** ****** ****** ****** ****** ****** ******
      ****** ****** ****** ****** ****** ****** ****** ****** ****** ******
  11  ****** ****** ****** ****** ****** ****** ****** ****** ****** ******
      ****** ****** ****** ****** ****** ****** ****** ****** ****** ******
      ****** ****** ****** ****** ****** ****** ****** ****** ****** ******
  12  ****** ****** ****** ****** ****** ****** ****** ****** ****** ******
      ****** ****** ****** ****** ****** ****** ****** ****** ****** ******
      ****** ****** ****** ****** ****** ****** ****** ****** ****** ******
  13  ****** ****** ****** ****** ****** ****** ****** ****** ****** ******
      ****** ****** ****** ****** ****** ****** ****** ****** ****** ******
      ****** ****** ****** ****** ****** ****** ****** ****** ****** ******
  14  ****** ****** ****** ****** ****** ****** ****** ****** ****** ******
      ****** ****** ****** ****** ****** ****** ****** ****** ****** ******
      ****** ****** ****** ****** ****** ****** ****** ****** ****** ******
  15  ****** ****** ****** ****** ****** ****** ****** ****** ****** ******
      ****** ****** ****** ****** ****** ****** ****** ****** ****** ******
      ****** ****** ****** ****** ****** ****** ****** ****** ****** ******
  16  ****** ****** ****** ****** ****** ****** ****** ****** ****** ******
      ****** ****** ****** ****** ****** ****** ****** ****** ****** ******
      ****** ****** ****** ****** ****** ****** ****** ****** ****** ******
  17  ****** ****** ****** ****** ****** ****** ****** ****** ****** ******
      ****** ****** ****** ****** ****** ****** ****** ****** ****** ******
      ****** ****** ****** ****** ****** ****** ****** ****** ****** ******
  18  ****** ****** ****** ****** ****** ****** ****** ****** ****** ******
      ****** ****** ****** ****** ****** ****** ****** ****** ****** ******
      ****** ****** ****** ****** ****** ****** ****** ****** ****** ******
  19  ****** ****** ****** ****** ****** ****** ****** ****** ****** ******
      ****** ****** ****** ****** ****** ****** ****** ****** ****** ******
      ****** ****** ****** ****** ****** ****** ****** ****** ****** ******
  20  ****** ****** ****** ****** ****** ****** ****** ****** ****** ******
      ****** ****** ****** ****** ****** ****** ****** ****** ****** ******
      ****** ****** ****** ****** ****** ****** ****** ****** ****** ******
  21  ****** ****** ****** ****** ****** ****** ****** ****** ****** ******
      ****** ****** ****** ****** ****** ****** ****** ****** ****** ******
      ****** ****** ****** ****** ****** ****** ****** ****** ****** ******
  22  ****** ****** ****** ****** ****** ****** ****** ****** ****** ******
      ****** ****** ****** ****** ****** ****** ****** ****** ****** ******
      ****** ****** ****** ****** ****** ****** ****** ****** ****** ******
  23  ****** ****** ****** ****** ****** ****** ****** ****** ****** ******
      ****** ****** ****** ****** ****** ****** ****** ****** ****** ******
      ****** ****** ****** ****** ****** ****** ****** ****** ****** ******
  24  ****** ****** ****** ****** ****** ****** ****** ****** ****** ******
      ****** ****** ****** ****** ****** ****** ****** ****** ****** ******
      ****** ****** ****** ****** ****** ****** ****** ****** ****** ******
  25  ****** ****** ****** ****** ****** ****** ****** ****** ****** ******
      ****** ****** ****** ****** ****** ****** ****** ****** ****** ******
      ****** ****** ****** ****** ****** ****** ****** ****** ****** ******

 HEAD WILL BE SAVED ON UNIT   51 AT END OF TIME STEP    1, STRESS PERIOD    4
1
  VOLUMETRIC BUDGET FOR ENTIRE MODEL AT END OF TIME STEP    1, STRESS PERIOD   4
  ------------------------------------------------------------------------------

     CUMULATIVE VOLUMES      L**3       RATES FOR THIS TIME STEP      L**3/T
     ------------------                 ------------------------

           IN:                                      IN:
           ---                                      ---
             STORAGE =    23440440.7811               STORAGE =        1698.9171
       CONSTANT HEAD =    45628820.0391         CONSTANT HEAD =      141462.9659
               WELLS =           0.0000                 WELLS =           0.0000
            RECHARGE =     8804400.0000              RECHARGE =       27600.0000
      STREAM LEAKAGE =     3512325.9886        STREAM LEAKAGE =       12111.2760

            TOTAL IN =    81385986.8088              TOTAL IN =      182873.1590

          OUT:                                     OUT:
          ----                                     ----
             STORAGE =       23164.4022               STORAGE =         254.5539
       CONSTANT HEAD =           0.0000         CONSTANT HEAD =           0.0000
               WELLS =    26041848.1634                 WELLS =       71347.5292
            RECHARGE =           0.0000              RECHARGE =           0.0000
      STREAM LEAKAGE =    55320974.8810        STREAM LEAKAGE =      111271.0740

           TOTAL OUT =    81385987.4466             TOTAL OUT =      182873.1571

            IN - OUT =          -0.6377              IN - OUT =       1.8990E-03

 PERCENT DISCREPANCY =          -0.00     PERCENT DISCREPANCY =           0.00






         TIME SUMMARY AT END OF TIME STEP    1 IN STRESS PERIOD    4
                    SECONDS     MINUTES      HOURS       DAYS        YEARS
                    -----------------------------------------------------------
   TIME STEP LENGTH 7.86240E+06 1.31040E+05  2184.0      91.000     0.24914    
 STRESS PERIOD TIME 7.86240E+06 1.31040E+05  2184.0      91.000     0.24914    
         TOTAL TIME 3.15360E+07 5.25600E+05  8760.0      365.00     0.99932    
1
1
                            STRESS PERIOD NO.    5, LENGTH =   92.00000    
                            -----------------------------------------------

                              NUMBER OF TIME STEPS =     1

                               MULTIPLIER FOR DELT =     1.500

                            INITIAL TIME STEP SIZE =   92.00000    

 WELL NO.  LAYER   ROW   COL   STRESS RATE         
 --------------------------------------------------
      1      1     21     23     -0.1821E+05
      2      1     20     24     -0.1241E+05
      3      1     19     20     -0.2382E+05
      4      1     19     24     -0.1691E+05

      4 WELLS

                 RECHARGE =  5.000000E-04

 REUSING STREAM SEGMENT DATA FROM LAST STRESS PERIOD
 
 SOLVING FOR HEAD 


     6 CALLS TO PCG ROUTINE FOR TIME STEP   1 IN STRESS PERIOD    5
    23 TOTAL ITERATIONS

 OUTPUT CONTROL FOR STRESS PERIOD    5   TIME STEP    1
    SAVE BUDGET
    SAVE HEAD FOR ALL LAYERS
    PRINT HEAD FOR ALL LAYERS
 UBDSV2 SAVING "STREAMFLOW OUT  " ON UNIT  50 AT TIME STEP  1, STRESS PERIOD   5



 STREAM LISTING     PERIOD      5   STEP        1

 LAYER ROW COL. STREAM  RCH.  FLOW INTO     FLOW TO   FLOW OUT OF   OVRLND.     DIRECT     STREAM       STREAM     STREAM     STREAM   STREAMBED  STREAMBED
                SEG.NO.  NO.  STRM. RCH.    AQUIFER    STRM. RCH.    RUNOFF     PRECIP       ET          HEAD       DEPTH      WIDTH   CONDCTNC.   GRADIENT

   1   13    1     1     1    1.0000E+05 -2.7898E+03   1.0279E+05  0.000E+00  0.000E+00  0.000E+00  4.84072E+01  1.459E-01  2.000E+01  2.000E+04 -1.395E-01
   1   13    2     1     2    1.0279E+05 -4.7096E+03   1.0750E+05  0.000E+00  0.000E+00  0.000E+00  4.79332E+01  1.491E-01  2.000E+01  2.000E+04 -2.355E-01
   1   14    3     1     3    1.0750E+05 -3.7510E+03   1.1125E+05  0.000E+00  0.000E+00  0.000E+00  4.74595E+01  1.526E-01  2.000E+01  2.000E+04 -1.875E-01
   1   15    4     1     4    1.1125E+05 -3.6434E+03   1.1489E+05  0.000E+00  0.000E+00  0.000E+00  4.69853E+01  1.557E-01  2.000E+01  2.000E+04 -1.822E-01
   1   16    5     1     5    1.1489E+05 -3.9514E+03   1.1885E+05  0.000E+00  0.000E+00  0.000E+00  4.65111E+01  1.588E-01  2.000E+01  2.000E+04 -1.976E-01
   1   16    6     1     6    1.1885E+05 -3.1203E+03   1.2197E+05  0.000E+00  0.000E+00  0.000E+00  4.60367E+01  1.617E-01  2.000E+01  2.000E+04 -1.560E-01
   1   16    7     1     7    1.2197E+05 -3.1727E+03   1.2514E+05  0.000E+00  0.000E+00  0.000E+00  4.55620E+01  1.642E-01  2.000E+01  2.000E+04 -1.586E-01
   1   16    8     1     8    1.2514E+05 -3.1866E+03   1.2832E+05  0.000E+00  0.000E+00  0.000E+00  4.50872E+01  1.667E-01  2.000E+01  2.000E+04 -1.593E-01
   1   16    9     1     9    1.2832E+05 -3.1447E+03   1.3147E+05  0.000E+00  0.000E+00  0.000E+00  4.46124E+01  1.692E-01  2.000E+01  2.000E+04 -1.572E-01
   1   16   10     1    10    1.3147E+05 -3.0405E+03   1.3451E+05  0.000E+00  0.000E+00  0.000E+00  4.41375E+01  1.716E-01  2.000E+01  2.000E+04 -1.520E-01
   1   16   11     1    11    1.3451E+05 -2.8698E+03   1.3738E+05  0.000E+00  0.000E+00  0.000E+00  4.36626E+01  1.739E-01  2.000E+01  2.000E+04 -1.435E-01
   1   16   12     1    12    1.3738E+05 -3.2330E+03   1.4061E+05  0.000E+00  0.000E+00  0.000E+00  4.31876E+01  1.762E-01  2.000E+01  2.000E+04 -1.616E-01
   1   15   13     1    13    1.4061E+05 -2.8804E+03   1.4349E+05  0.000E+00  0.000E+00  0.000E+00  4.27127E+01  1.786E-01  2.000E+01  2.000E+04 -1.440E-01
   1   14   14     1    14    1.4349E+05 -2.9300E+03   1.4642E+05  0.000E+00  0.000E+00  0.000E+00  4.22376E+01  1.807E-01  2.000E+01  2.000E+04 -1.465E-01
   1   13   15     1    15    1.4642E+05 -3.3660E+03   1.4979E+05  0.000E+00  0.000E+00  0.000E+00  4.17626E+01  1.831E-01  2.000E+01  2.000E+04 -1.683E-01
   1   12   16     1    16    1.4979E+05 -5.0100E+03   1.5480E+05  0.000E+00  0.000E+00  0.000E+00  4.12885E+01  1.862E-01  2.000E+01  2.000E+04 -2.505E-01
   1   12   17     1    17    1.5480E+05 -2.9843E+03   1.5778E+05  0.000E+00  0.000E+00  0.000E+00  4.08141E+01  1.891E-01  2.000E+01  2.000E+04 -1.492E-01
   1   12   18     1    18    1.5778E+05 -2.7797E+03   1.6056E+05  0.000E+00  0.000E+00  0.000E+00  4.03389E+01  1.912E-01  2.000E+01  2.000E+04 -1.390E-01
   1   12   19     1    19    1.6056E+05 -3.9164E+03   1.6448E+05  0.000E+00  0.000E+00  0.000E+00  3.98640E+01  1.936E-01  2.000E+01  2.000E+04 -1.958E-01
   1   13   20     1    20    1.6448E+05 -1.3978E+03   1.6588E+05  0.000E+00  0.000E+00  0.000E+00  3.93887E+01  1.955E-01  2.000E+01  2.000E+04 -6.989E-02
   1   14   21     1    21    1.6588E+05  9.6222E+02   1.6492E+05  0.000E+00  0.000E+00  0.000E+00  3.89115E+01  1.956E-01  2.000E+01  2.000E+04  4.811E-02
   1   14   22     1    22    1.6492E+05  5.6003E+03   1.5931E+05  0.000E+00  0.000E+00  0.000E+00  3.84319E+01  1.933E-01  2.000E+01  2.000E+04  2.800E-01
   1    9   30     2     1    5.0000E+04 -2.6809E+03   5.2681E+04  0.000E+00  0.000E+00  0.000E+00  4.02427E+01  1.177E-01  2.000E+01  2.000E+04 -1.340E-01
   1    9   29     2     2    5.2681E+04 -3.0141E+03   5.5695E+04  0.000E+00  0.000E+00  0.000E+00  3.99966E+01  1.216E-01  2.000E+01  2.000E+04 -1.507E-01
   1    9   28     2     3    5.5695E+04 -3.3968E+03   5.9092E+04  0.000E+00  0.000E+00  0.000E+00  3.97509E+01  1.259E-01  2.000E+01  2.000E+04 -1.698E-01
   1    9   27     2     4    5.9092E+04 -6.1018E+03   6.5194E+04  0.000E+00  0.000E+00  0.000E+00  3.95070E+01  1.320E-01  2.000E+01  2.000E+04 -3.051E-01
   1   10   26     2     5    6.5194E+04 -3.7208E+03   6.8914E+04  0.000E+00  0.000E+00  0.000E+00  3.92632E+01  1.382E-01  2.000E+01  2.000E+04 -1.860E-01
   1   11   25     2     6    6.8914E+04 -2.6751E+03   7.1590E+04  0.000E+00  0.000E+00  0.000E+00  3.90171E+01  1.421E-01  2.000E+01  2.000E+04 -1.338E-01
   1   12   24     2     7    7.1590E+04 -1.8298E+03   7.3419E+04  0.000E+00  0.000E+00  0.000E+00  3.87698E+01  1.448E-01  2.000E+01  2.000E+04 -9.149E-02
   1   13   23     2     8    7.3419E+04 -9.9026E+02   7.4410E+04  0.000E+00  0.000E+00  0.000E+00  3.85215E+01  1.465E-01  2.000E+01  2.000E+04 -4.951E-02
   1   14   22     2     9    7.4410E+04  2.3750E+03   7.2035E+04  0.000E+00  0.000E+00  0.000E+00  3.82707E+01  1.457E-01  2.000E+01  2.000E+04  1.187E-01
   1   14   22     3     1    2.3135E+05 -7.9157E+03   2.3927E+05  0.000E+00  0.000E+00  0.000E+00  3.77561E+01  2.006E-01  2.000E+01  2.000E+04 -3.958E-01
   1   15   23     3     2    2.3927E+05  2.1452E+03   2.3712E+05  0.000E+00  0.000E+00  0.000E+00  3.68687E+01  2.020E-01  2.000E+01  2.000E+04  1.073E-01
   1   15   24     3     3    2.3712E+05  1.1360E+03   2.3598E+05  0.000E+00  0.000E+00  0.000E+00  3.59790E+01  2.012E-01  2.000E+01  2.000E+04  5.680E-02
   1   15   25     3     4    2.3598E+05  5.4460E+02   2.3544E+05  0.000E+00  0.000E+00  0.000E+00  3.50897E+01  2.008E-01  2.000E+01  2.000E+04  2.723E-02
   1   15   26     3     5    2.3544E+05 -6.9066E+02   2.3613E+05  0.000E+00  0.000E+00  0.000E+00  3.42008E+01  2.008E-01  2.000E+01  2.000E+04 -3.453E-02
   1   16   27     3     6    2.3613E+05  8.0523E+00   2.3612E+05  0.000E+00  0.000E+00  0.000E+00  3.33121E+01  2.010E-01  2.000E+01  2.000E+04  4.026E-04
   1   17   28     3     7    2.3612E+05 -7.0684E+02   2.3683E+05  0.000E+00  0.000E+00  0.000E+00  3.24234E+01  2.012E-01  2.000E+01  2.000E+04 -3.534E-02
   1   18   29     3     8    2.3683E+05 -2.5171E+03   2.3935E+05  0.000E+00  0.000E+00  0.000E+00  3.15353E+01  2.020E-01  2.000E+01  2.000E+04 -1.259E-01
   1   18   30     3     9    2.3935E+05 -3.4548E+03   2.4280E+05  0.000E+00  0.000E+00  0.000E+00  3.06480E+01  2.035E-01  2.000E+01  2.000E+04 -1.727E-01



1
              HEAD IN LAYER   1 AT END OF TIME STEP   1 IN STRESS PERIOD    5
  ---------------------------------------------------------------------------

          1      2      3      4      5      6      7      8      9     10
         11     12     13     14     15     16     17     18     19     20
         21     22     23     24     25     26     27     28     29     30
 .........................................................................
   1  ****** ****** ****** ****** ****** ****** ****** ****** ****** ******
      ****** ****** ****** ****** ****** ****** ****** ****** ****** ******
      ****** ****** ****** ****** ****** ****** ****** ****** ****** ******
   2  ****** ****** ****** ****** ****** ****** ****** ****** ****** ******
      ****** ****** ****** ****** ****** ****** ****** ****** ****** ******
      ****** ****** ****** ****** ****** ****** ****** ****** ****** ******
   3  ****** ****** ****** ****** ****** ****** ****** ****** ****** ******
      ****** ****** ****** ****** ****** ****** ****** ****** ****** ******
      ****** ****** ****** ****** ****** ****** ****** ****** ****** ******
   4  ****** ****** ****** ****** ****** ****** ****** ****** ****** ******
      ****** ****** ****** ****** ****** ****** ****** ****** ****** ******
      ****** ****** ****** ****** ****** ****** ****** ****** ****** ******
   5  ****** ****** ****** ****** ****** ****** ****** ****** ****** ******
      ****** ****** ****** ****** ****** ****** ****** ****** ****** ******
      ****** ****** ****** ****** ****** ****** ****** ****** ****** ******
   6  ****** ****** ****** ****** ****** ****** ****** ****** ****** ******
      ****** ****** ****** ****** ****** ****** ****** ****** ****** ******
      ****** ****** ****** ****** ****** ****** ****** ****** ****** ******
   7  ****** ****** ****** ****** ****** ****** ****** ****** ****** ******
      ****** ****** ****** ****** ****** ****** ****** ****** ****** ******
      ****** ****** ****** ****** ****** ****** ****** ****** ****** ******
   8  ****** ****** ****** ****** ****** ****** ****** ****** ****** ******
      ****** ****** ****** ****** ****** ****** ****** ****** ****** ******
      ****** ****** ****** ****** ****** ****** ****** ****** ****** ******
   9  ****** ****** ****** ****** ****** ****** ****** ****** ****** ******
      ****** ****** ****** ****** ****** ****** ****** ****** ****** ******
      ****** ****** ****** ****** ****** ****** ****** ****** ****** ******
  10  ****** ****** ****** ****** ****** ****** ****** ****** ****** ******
      ****** ****** ****** ****** ****** ****** ****** ****** ****** ******
      ****** ****** ****** ****** ****** ****** ****** ****** ****** ******
  11  ****** ****** ****** ****** ****** ****** ****** ****** ****** ******
      ****** ****** ****** ****** ****** ****** ****** ****** ****** ******
      ****** ****** ****** ****** ****** ****** ****** ****** ****** ******
  12  ****** ****** ****** ****** ****** ****** ****** ****** ****** ******
      ****** ****** ****** ****** ****** ****** ****** ****** ****** ******
      ****** ****** ****** ****** ****** ****** ****** ****** ****** ******
  13  ****** ****** ****** ****** ****** ****** ****** ****** ****** ******
      ****** ****** ****** ****** ****** ****** ****** ****** ****** ******
      ****** ****** ****** ****** ****** ****** ****** ****** ****** ******
  14  ****** ****** ****** ****** ****** ****** ****** ****** ****** ******
      ****** ****** ****** ****** ****** ****** ****** ****** ****** ******
      ****** ****** ****** ****** ****** ****** ****** ****** ****** ******
  15  ****** ****** ****** ****** ****** ****** ****** ****** ****** ******
      ****** ****** ****** ****** ****** ****** ****** ****** ****** ******
      ****** ****** ****** ****** ****** ****** ****** ****** ****** ******
  16  ****** ****** ****** ****** ****** ****** ****** ****** ****** ******
      ****** ****** ****** ****** ****** ****** ****** ****** ****** ******
      ****** ****** ****** ****** ****** ****** ****** ****** ****** ******
  17  ****** ****** ****** ****** ****** ****** ****** ****** ****** ******
      ****** ****** ****** ****** ****** ****** ****** ****** ****** ******
      ****** ****** ****** ****** ****** ****** ****** ****** ****** ******
  18  ****** ****** ****** ****** ****** ****** ****** ****** ****** ******
      ****** ****** ****** ****** ****** ****** ****** ****** ****** ******
      ****** ****** ****** ****** ****** ****** ****** ****** ****** ******
  19  ****** ****** ****** ****** ****** ****** ****** ****** ****** ******
      ****** ****** ****** ****** ****** ****** ****** ****** ****** ******
      ****** ****** ****** ****** ****** ****** ****** ****** ****** ******
  20  ****** ****** ****** ****** ****** ****** ****** ****** ****** ******
      ****** ****** ****** ****** ****** ****** ****** ****** ****** ******
      ****** ****** ****** ****** ****** ****** ****** ****** ****** ******
  21  ****** ****** ****** ****** ****** ****** ****** ****** ****** ******
      ****** ****** ****** ****** ****** ****** ****** ****** ****** ******
      ****** ****** ****** ****** ****** ****** ****** ****** ****** ******
  22  ****** ****** ****** ****** ****** ****** ****** ****** ****** ******
      ****** ****** ****** ****** ****** ****** ****** ****** ****** ******
      ****** ****** ****** ****** ****** ****** ****** ****** ****** ******
  23  ****** ****** ****** ****** ****** ****** ****** ****** ****** ******
      ****** ****** ****** ****** ****** ****** ****** ****** ****** ******
      ****** ****** ****** ****** ****** ****** ****** ****** ****** ******
  24  ****** ****** ****** ****** ****** ****** ****** ****** ****** ******
      ****** ****** ****** ****** ****** ****** ****** ****** ****** ******
      ****** ****** ****** ****** ****** ****** ****** ****** ****** ******
  25  ****** ****** ****** ****** ****** ****** ****** ****** ****** ******
      ****** ****** ****** ****** ****** ****** ****** ****** ****** ******
      ****** ****** ****** ****** ****** ****** ****** ****** ****** ******

 HEAD WILL BE SAVED ON UNIT   51 AT END OF TIME STEP    1, STRESS PERIOD    5
1
  VOLUMETRIC BUDGET FOR ENTIRE MODEL AT END OF TIME STEP    1, STRESS PERIOD   5
  ------------------------------------------------------------------------------

     CUMULATIVE VOLUMES      L**3       RATES FOR THIS TIME STEP      L**3/T
     ------------------                 ------------------------

           IN:                                      IN:
           ---                                      ---
             STORAGE =    23855013.8859               STORAGE =        4506.2294
       CONSTANT HEAD =    59046292.0804         CONSTANT HEAD =      145842.0874
               WELLS =           0.0000                 WELLS =           0.0000
            RECHARGE =    10074000.0000              RECHARGE =       13800.0000
      STREAM LEAKAGE =     4687285.5723        STREAM LEAKAGE =       12771.2998

            TOTAL IN =    97662591.5386              TOTAL IN =      176919.6166

          OUT:                                     OUT:
          ----                                     ----
             STORAGE =       23164.4022               STORAGE =           0.0000
       CONSTANT HEAD =           0.0000         CONSTANT HEAD =           0.0000
               WELLS =    32605820.8511                 WELLS =       71347.5292
            RECHARGE =           0.0000              RECHARGE =           0.0000
      STREAM LEAKAGE =    65033606.9923        STREAM LEAKAGE =      105572.0882

           TOTAL OUT =    97662592.2456             TOTAL OUT =      176919.6174

            IN - OUT =          -0.7070              IN - OUT =      -7.5254E-04

 PERCENT DISCREPANCY =          -0.00     PERCENT DISCREPANCY =          -0.00






         TIME SUMMARY AT END OF TIME STEP    1 IN STRESS PERIOD    5
                    SECONDS     MINUTES      HOURS       DAYS        YEARS
                    -----------------------------------------------------------
   TIME STEP LENGTH 7.94880E+06 1.32480E+05  2208.0      92.000     0.25188    
 STRESS PERIOD TIME 7.94880E+06 1.32480E+05  2208.0      92.000     0.25188    
         TOTAL TIME 3.94848E+07 6.58080E+05  10968.      457.00      1.2512    
1
1
                            STRESS PERIOD NO.    6, LENGTH =   91.00000    
                            -----------------------------------------------

                              NUMBER OF TIME STEPS =     1

                               MULTIPLIER FOR DELT =     1.500

                            INITIAL TIME STEP SIZE =   91.00000    

 WELL NO.  LAYER   ROW   COL   STRESS RATE         
 --------------------------------------------------
      1      1     21     23     -0.1821E+05
      2      1     20     24     -0.1241E+05
      3      1     19     20     -0.2382E+05
      4      1     19     24     -0.1691E+05

      4 WELLS

                 RECHARGE =  2.000000E-03

 REUSING STREAM SEGMENT DATA FROM LAST STRESS PERIOD
 
 SOLVING FOR HEAD 


     7 CALLS TO PCG ROUTINE FOR TIME STEP   1 IN STRESS PERIOD    6
    26 TOTAL ITERATIONS

 OUTPUT CONTROL FOR STRESS PERIOD    6   TIME STEP    1
    SAVE BUDGET
    SAVE HEAD FOR ALL LAYERS
    PRINT HEAD FOR ALL LAYERS
 UBDSV2 SAVING "STREAMFLOW OUT  " ON UNIT  50 AT TIME STEP  1, STRESS PERIOD   6



 STREAM LISTING     PERIOD      6   STEP        1

 LAYER ROW COL. STREAM  RCH.  FLOW INTO     FLOW TO   FLOW OUT OF   OVRLND.     DIRECT     STREAM       STREAM     STREAM     STREAM   STREAMBED  STREAMBED
                SEG.NO.  NO.  STRM. RCH.    AQUIFER    STRM. RCH.    RUNOFF     PRECIP       ET          HEAD       DEPTH      WIDTH   CONDCTNC.   GRADIENT

   1   13    1     1     1    1.0000E+05 -3.1894E+03   1.0319E+05  0.000E+00  0.000E+00  0.000E+00  4.84074E+01  1.460E-01  2.000E+01  2.000E+04 -1.595E-01
   1   13    2     1     2    1.0319E+05 -5.2353E+03   1.0842E+05  0.000E+00  0.000E+00  0.000E+00  4.79337E+01  1.496E-01  2.000E+01  2.000E+04 -2.618E-01
   1   14    3     1     3    1.0842E+05 -4.2905E+03   1.1272E+05  0.000E+00  0.000E+00  0.000E+00  4.74605E+01  1.536E-01  2.000E+01  2.000E+04 -2.145E-01
   1   15    4     1     4    1.1272E+05 -4.1801E+03   1.1690E+05  0.000E+00  0.000E+00  0.000E+00  4.69867E+01  1.571E-01  2.000E+01  2.000E+04 -2.090E-01
   1   16    5     1     5    1.1690E+05 -4.4497E+03   1.2134E+05  0.000E+00  0.000E+00  0.000E+00  4.65129E+01  1.607E-01  2.000E+01  2.000E+04 -2.225E-01
   1   16    6     1     6    1.2134E+05 -3.5119E+03   1.2486E+05  0.000E+00  0.000E+00  0.000E+00  4.60389E+01  1.639E-01  2.000E+01  2.000E+04 -1.756E-01
   1   16    7     1     7    1.2486E+05 -3.5698E+03   1.2843E+05  0.000E+00  0.000E+00  0.000E+00  4.55644E+01  1.667E-01  2.000E+01  2.000E+04 -1.785E-01
   1   16    8     1     8    1.2843E+05 -3.5868E+03   1.3201E+05  0.000E+00  0.000E+00  0.000E+00  4.50899E+01  1.695E-01  2.000E+01  2.000E+04 -1.793E-01
   1   16    9     1     9    1.3201E+05 -3.5444E+03   1.3556E+05  0.000E+00  0.000E+00  0.000E+00  4.46154E+01  1.723E-01  2.000E+01  2.000E+04 -1.772E-01
   1   16   10     1    10    1.3556E+05 -3.4364E+03   1.3899E+05  0.000E+00  0.000E+00  0.000E+00  4.41408E+01  1.749E-01  2.000E+01  2.000E+04 -1.718E-01
   1   16   11     1    11    1.3899E+05 -3.2602E+03   1.4225E+05  0.000E+00  0.000E+00  0.000E+00  4.36661E+01  1.775E-01  2.000E+01  2.000E+04 -1.630E-01
   1   16   12     1    12    1.4225E+05 -3.7339E+03   1.4599E+05  0.000E+00  0.000E+00  0.000E+00  4.31915E+01  1.801E-01  2.000E+01  2.000E+04 -1.867E-01
   1   15   13     1    13    1.4599E+05 -3.4240E+03   1.4941E+05  0.000E+00  0.000E+00  0.000E+00  4.27169E+01  1.828E-01  2.000E+01  2.000E+04 -1.712E-01
   1   14   14     1    14    1.4941E+05 -3.4833E+03   1.5290E+05  0.000E+00  0.000E+00  0.000E+00  4.22422E+01  1.853E-01  2.000E+01  2.000E+04 -1.742E-01
   1   13   15     1    15    1.5290E+05 -3.9105E+03   1.5681E+05  0.000E+00  0.000E+00  0.000E+00  4.17676E+01  1.880E-01  2.000E+01  2.000E+04 -1.955E-01
   1   12   16     1    16    1.5681E+05 -5.5311E+03   1.6234E+05  0.000E+00  0.000E+00  0.000E+00  4.12937E+01  1.915E-01  2.000E+01  2.000E+04 -2.766E-01
   1   12   17     1    17    1.6234E+05 -3.3735E+03   1.6571E+05  0.000E+00  0.000E+00  0.000E+00  4.08197E+01  1.947E-01  2.000E+01  2.000E+04 -1.687E-01
   1   12   18     1    18    1.6571E+05 -3.1628E+03   1.6887E+05  0.000E+00  0.000E+00  0.000E+00  4.03447E+01  1.970E-01  2.000E+01  2.000E+04 -1.581E-01
   1   12   19     1    19    1.6887E+05 -4.3848E+03   1.7326E+05  0.000E+00  0.000E+00  0.000E+00  3.98701E+01  1.996E-01  2.000E+01  2.000E+04 -2.192E-01
   1   13   20     1    20    1.7326E+05 -1.8538E+03   1.7511E+05  0.000E+00  0.000E+00  0.000E+00  3.93950E+01  2.018E-01  2.000E+01  2.000E+04 -9.269E-02
   1   14   21     1    21    1.7511E+05  5.4502E+02   1.7457E+05  0.000E+00  0.000E+00  0.000E+00  3.89182E+01  2.023E-01  2.000E+01  2.000E+04  2.725E-02
   1   14   22     1    22    1.7457E+05  5.5211E+03   1.6905E+05  0.000E+00  0.000E+00  0.000E+00  3.84388E+01  2.001E-01  2.000E+01  2.000E+04  2.761E-01
   1    9   30     2     1    5.0000E+04 -3.0380E+03   5.3038E+04  0.000E+00  0.000E+00  0.000E+00  4.02430E+01  1.180E-01  2.000E+01  2.000E+04 -1.519E-01
   1    9   29     2     2    5.3038E+04 -3.3683E+03   5.6406E+04  0.000E+00  0.000E+00  0.000E+00  3.99973E+01  1.223E-01  2.000E+01  2.000E+04 -1.684E-01
   1    9   28     2     3    5.6406E+04 -3.7488E+03   6.0155E+04  0.000E+00  0.000E+00  0.000E+00  3.97520E+01  1.270E-01  2.000E+01  2.000E+04 -1.874E-01
   1    9   27     2     4    6.0155E+04 -6.5713E+03   6.6726E+04  0.000E+00  0.000E+00  0.000E+00  3.95087E+01  1.337E-01  2.000E+01  2.000E+04 -3.286E-01
   1   10   26     2     5    6.6726E+04 -4.2068E+03   7.0933E+04  0.000E+00  0.000E+00  0.000E+00  3.92654E+01  1.404E-01  2.000E+01  2.000E+04 -2.103E-01
   1   11   25     2     6    7.0933E+04 -3.1401E+03   7.4073E+04  0.000E+00  0.000E+00  0.000E+00  3.90198E+01  1.448E-01  2.000E+01  2.000E+04 -1.570E-01
   1   12   24     2     7    7.4073E+04 -2.2408E+03   7.6314E+04  0.000E+00  0.000E+00  0.000E+00  3.87730E+01  1.480E-01  2.000E+01  2.000E+04 -1.120E-01
   1   13   23     2     8    7.6314E+04 -1.3108E+03   7.7625E+04  0.000E+00  0.000E+00  0.000E+00  3.85251E+01  1.501E-01  2.000E+01  2.000E+04 -6.554E-02
   1   14   22     2     9    7.7625E+04  2.2365E+03   7.5389E+04  0.000E+00  0.000E+00  0.000E+00  3.82746E+01  1.496E-01  2.000E+01  2.000E+04  1.118E-01
   1   14   22     3     1    2.4443E+05 -7.9991E+03   2.5243E+05  0.000E+00  0.000E+00  0.000E+00  3.77628E+01  2.072E-01  2.000E+01  2.000E+04 -4.000E-01
   1   15   23     3     2    2.5243E+05  1.7564E+03   2.5068E+05  0.000E+00  0.000E+00  0.000E+00  3.68754E+01  2.088E-01  2.000E+01  2.000E+04  8.782E-02
   1   15   24     3     3    2.5068E+05  8.5302E+02   2.4982E+05  0.000E+00  0.000E+00  0.000E+00  3.59859E+01  2.081E-01  2.000E+01  2.000E+04  4.265E-02
   1   15   25     3     4    2.4982E+05  2.5976E+02   2.4956E+05  0.000E+00  0.000E+00  0.000E+00  3.50967E+01  2.078E-01  2.000E+01  2.000E+04  1.299E-02
   1   15   26     3     5    2.4956E+05 -1.0598E+03   2.5062E+05  0.000E+00  0.000E+00  0.000E+00  3.42080E+01  2.080E-01  2.000E+01  2.000E+04 -5.299E-02
   1   16   27     3     6    2.5062E+05 -4.5345E+02   2.5108E+05  0.000E+00  0.000E+00  0.000E+00  3.33195E+01  2.084E-01  2.000E+01  2.000E+04 -2.267E-02
   1   17   28     3     7    2.5108E+05 -1.1776E+03   2.5226E+05  0.000E+00  0.000E+00  0.000E+00  3.24311E+01  2.088E-01  2.000E+01  2.000E+04 -5.888E-02
   1   18   29     3     8    2.5226E+05 -2.9579E+03   2.5521E+05  0.000E+00  0.000E+00  0.000E+00  3.15432E+01  2.099E-01  2.000E+01  2.000E+04 -1.479E-01
   1   18   30     3     9    2.5521E+05 -3.7886E+03   2.5900E+05  0.000E+00  0.000E+00  0.000E+00  3.06560E+01  2.115E-01  2.000E+01  2.000E+04 -1.894E-01



1
              HEAD IN LAYER   1 AT END OF TIME STEP   1 IN STRESS PERIOD    6
  ---------------------------------------------------------------------------

          1      2      3      4      5      6      7      8      9     10
         11     12     13     14     15     16     17     18     19     20
         21     22     23     24     25     26     27     28     29     30
 .........................................................................
   1  ****** ****** ****** ****** ****** ****** ****** ****** ****** ******
      ****** ****** ****** ****** ****** ****** ****** ****** ****** ******
      ****** ****** ****** ****** ****** ****** ****** ****** ****** ******
   2  ****** ****** ****** ****** ****** ****** ****** ****** ****** ******
      ****** ****** ****** ****** ****** ****** ****** ****** ****** ******
      ****** ****** ****** ****** ****** ****** ****** ****** ****** ******
   3  ****** ****** ****** ****** ****** ****** ****** ****** ****** ******
      ****** ****** ****** ****** ****** ****** ****** ****** ****** ******
      ****** ****** ****** ****** ****** ****** ****** ****** ****** ******
   4  ****** ****** ****** ****** ****** ****** ****** ****** ****** ******
      ****** ****** ****** ****** ****** ****** ****** ****** ****** ******
      ****** ****** ****** ****** ****** ****** ****** ****** ****** ******
   5  ****** ****** ****** ****** ****** ****** ****** ****** ****** ******
      ****** ****** ****** ****** ****** ****** ****** ****** ****** ******
      ****** ****** ****** ****** ****** ****** ****** ****** ****** ******
   6  ****** ****** ****** ****** ****** ****** ****** ****** ****** ******
      ****** ****** ****** ****** ****** ****** ****** ****** ****** ******
      ****** ****** ****** ****** ****** ****** ****** ****** ****** ******
   7  ****** ****** ****** ****** ****** ****** ****** ****** ****** ******
      ****** ****** ****** ****** ****** ****** ****** ****** ****** ******
      ****** ****** ****** ****** ****** ****** ****** ****** ****** ******
   8  ****** ****** ****** ****** ****** ****** ****** ****** ****** ******
      ****** ****** ****** ****** ****** ****** ****** ****** ****** ******
      ****** ****** ****** ****** ****** ****** ****** ****** ****** ******
   9  ****** ****** ****** ****** ****** ****** ****** ****** ****** ******
      ****** ****** ****** ****** ****** ****** ****** ****** ****** ******
      ****** ****** ****** ****** ****** ****** ****** ****** ****** ******
  10  ****** ****** ****** ****** ****** ****** ****** ****** ****** ******
      ****** ****** ****** ****** ****** ****** ****** ****** ****** ******
      ****** ****** ****** ****** ****** ****** ****** ****** ****** ******
  11  ****** ****** ****** ****** ****** ****** ****** ****** ****** ******
      ****** ****** ****** ****** ****** ****** ****** ****** ****** ******
      ****** ****** ****** ****** ****** ****** ****** ****** ****** ******
  12  ****** ****** ****** ****** ****** ****** ****** ****** ****** ******
      ****** ****** ****** ****** ****** ****** ****** ****** ****** ******
      ****** ****** ****** ****** ****** ****** ****** ****** ****** ******
  13  ****** ****** ****** ****** ****** ****** ****** ****** ****** ******
      ****** ****** ****** ****** ****** ****** ****** ****** ****** ******
      ****** ****** ****** ****** ****** ****** ****** ****** ****** ******
  14  ****** ****** ****** ****** ****** ****** ****** ****** ****** ******
      ****** ****** ****** ****** ****** ****** ****** ****** ****** ******
      ****** ****** ****** ****** ****** ****** ****** ****** ****** ******
  15  ****** ****** ****** ****** ****** ****** ****** ****** ****** ******
      ****** ****** ****** ****** ****** ****** ****** ****** ****** ******
      ****** ****** ****** ****** ****** ****** ****** ****** ****** ******
  16  ****** ****** ****** ****** ****** ****** ****** ****** ****** ******
      ****** ****** ****** ****** ****** ****** ****** ****** ****** ******
      ****** ****** ****** ****** ****** ****** ****** ****** ****** ******
  17  ****** ****** ****** ****** ****** ****** ****** ****** ****** ******
      ****** ****** ****** ****** ****** ****** ****** ****** ****** ******
      ****** ****** ****** ****** ****** ****** ****** ****** ****** ******
  18  ****** ****** ****** ****** ****** ****** ****** ****** ****** ******
      ****** ****** ****** ****** ****** ****** ****** ****** ****** ******
      ****** ****** ****** ****** ****** ****** ****** ****** ****** ******
  19  ****** ****** ****** ****** ****** ****** ****** ****** ****** ******
      ****** ****** ****** ****** ****** ****** ****** ****** ****** ******
      ****** ****** ****** ****** ****** ****** ****** ****** ****** ******
  20  ****** ****** ****** ****** ****** ****** ****** ****** ****** ******
      ****** ****** ****** ****** ****** ****** ****** ****** ****** ******
      ****** ****** ****** ****** ****** ****** ****** ****** ****** ******
  21  ****** ****** ****** ****** ****** ****** ****** ****** ****** ******
      ****** ****** ****** ****** ****** ****** ****** ****** ****** ******
      ****** ****** ****** ****** ****** ****** ****** ****** ****** ******
  22  ****** ****** ****** ****** ****** ****** ****** ****** ****** ******
      ****** ****** ****** ****** ****** ****** ****** ****** ****** ******
      ****** ****** ****** ****** ****** ****** ****** ****** ****** ******
  23  ****** ****** ****** ****** ****** ****** ****** ****** ****** ******
      ****** ****** ****** ****** ****** ****** ****** ****** ****** ******
      ****** ****** ****** ****** ****** ****** ****** ****** ****** ******
  24  ****** ****** ****** ****** ****** ****** ****** ****** ****** ******
      ****** ****** ****** ****** ****** ****** ****** ****** ****** ******
      ****** ****** ****** ****** ****** ****** ****** ****** ****** ******
  25  ****** ****** ****** ****** ****** ****** ****** ****** ****** ******
      ****** ****** ****** ****** ****** ****** ****** ****** ****** ******
      ****** ****** ****** ****** ****** ****** ****** ****** ****** ******

 HEAD WILL BE SAVED ON UNIT   51 AT END OF TIME STEP    1, STRESS PERIOD    6
1
  VOLUMETRIC BUDGET FOR ENTIRE MODEL AT END OF TIME STEP    1, STRESS PERIOD   6
  ------------------------------------------------------------------------------

     CUMULATIVE VOLUMES      L**3       RATES FOR THIS TIME STEP      L**3/T
     ------------------                 ------------------------

           IN:                                      IN:
           ---                                      ---
             STORAGE =    23855013.8859               STORAGE =           0.0000
       CONSTANT HEAD =    71351930.3425         CONSTANT HEAD =      135226.7941
               WELLS =           0.0000                 WELLS =           0.0000
            RECHARGE =    15097200.0000              RECHARGE =       55200.0000
      STREAM LEAKAGE =     5703909.2266        STREAM LEAKAGE =       11171.6885

            TOTAL IN =   116008053.4550              TOTAL IN =      201598.4826

          OUT:                                     OUT:
          ----                                     ----
             STORAGE =      940186.7833               STORAGE =       10077.1690
       CONSTANT HEAD =           0.0000         CONSTANT HEAD =           0.0000
               WELLS =    39098446.0096                 WELLS =       71347.5292
            RECHARGE =           0.0000              RECHARGE =           0.0000
      STREAM LEAKAGE =    75969421.2198        STREAM LEAKAGE =      120173.7827

           TOTAL OUT =   116008054.0127             TOTAL OUT =      201598.4810

            IN - OUT =          -0.5577              IN - OUT =       1.6402E-03

 PERCENT DISCREPANCY =          -0.00     PERCENT DISCREPANCY =           0.00






         TIME SUMMARY AT END OF TIME STEP    1 IN STRESS PERIOD    6
                    SECONDS     MINUTES      HOURS       DAYS        YEARS
                    -----------------------------------------------------------
   TIME STEP LENGTH 7.86240E+06 1.31040E+05  2184.0      91.000     0.24914    
 STRESS PERIOD TIME 7.86240E+06 1.31040E+05  2184.0      91.000     0.24914    
         TOTAL TIME 4.73472E+07 7.89120E+05  13152.      548.00      1.5003    
1
1
                            STRESS PERIOD NO.    7, LENGTH =   91.00000    
                            -----------------------------------------------

                              NUMBER OF TIME STEPS =     1

                               MULTIPLIER FOR DELT =     1.500

                            INITIAL TIME STEP SIZE =   91.00000    

 WELL NO.  LAYER   ROW   COL   STRESS RATE         
 --------------------------------------------------
      1      1     21     23     -0.1821E+05
      2      1     20     24     -0.1241E+05
      3      1     19     20     -0.2382E+05
      4      1     19     24     -0.1691E+05

      4 WELLS

                 RECHARGE =   0.00000    

 REUSING STREAM SEGMENT DATA FROM LAST STRESS PERIOD
 
 SOLVING FOR HEAD 


     7 CALLS TO PCG ROUTINE FOR TIME STEP   1 IN STRESS PERIOD    7
    26 TOTAL ITERATIONS

 OUTPUT CONTROL FOR STRESS PERIOD    7   TIME STEP    1
    SAVE BUDGET
    SAVE HEAD FOR ALL LAYERS
    PRINT HEAD FOR ALL LAYERS
 UBDSV2 SAVING "STREAMFLOW OUT  " ON UNIT  50 AT TIME STEP  1, STRESS PERIOD   7



 STREAM LISTING     PERIOD      7   STEP        1

 LAYER ROW COL. STREAM  RCH.  FLOW INTO     FLOW TO   FLOW OUT OF   OVRLND.     DIRECT     STREAM       STREAM     STREAM     STREAM   STREAMBED  STREAMBED
                SEG.NO.  NO.  STRM. RCH.    AQUIFER    STRM. RCH.    RUNOFF     PRECIP       ET          HEAD       DEPTH      WIDTH   CONDCTNC.   GRADIENT

   1   13    1     1     1    1.0000E+05 -2.6954E+03   1.0270E+05  0.000E+00  0.000E+00  0.000E+00  4.84072E+01  1.458E-01  2.000E+01  2.000E+04 -1.348E-01
   1   13    2     1     2    1.0270E+05 -4.5869E+03   1.0728E+05  0.000E+00  0.000E+00  0.000E+00  4.79330E+01  1.489E-01  2.000E+01  2.000E+04 -2.293E-01
   1   14    3     1     3    1.0728E+05 -3.6245E+03   1.1091E+05  0.000E+00  0.000E+00  0.000E+00  4.74592E+01  1.524E-01  2.000E+01  2.000E+04 -1.812E-01
   1   15    4     1     4    1.1091E+05 -3.5194E+03   1.1443E+05  0.000E+00  0.000E+00  0.000E+00  4.69849E+01  1.554E-01  2.000E+01  2.000E+04 -1.760E-01
   1   16    5     1     5    1.1443E+05 -3.8419E+03   1.1827E+05  0.000E+00  0.000E+00  0.000E+00  4.65107E+01  1.584E-01  2.000E+01  2.000E+04 -1.921E-01
   1   16    6     1     6    1.1827E+05 -3.0300E+03   1.2130E+05  0.000E+00  0.000E+00  0.000E+00  4.60362E+01  1.612E-01  2.000E+01  2.000E+04 -1.515E-01
   1   16    7     1     7    1.2130E+05 -3.0804E+03   1.2438E+05  0.000E+00  0.000E+00  0.000E+00  4.55614E+01  1.637E-01  2.000E+01  2.000E+04 -1.540E-01
   1   16    8     1     8    1.2438E+05 -3.0931E+03   1.2747E+05  0.000E+00  0.000E+00  0.000E+00  4.50866E+01  1.661E-01  2.000E+01  2.000E+04 -1.547E-01
   1   16    9     1     9    1.2747E+05 -3.0508E+03   1.3052E+05  0.000E+00  0.000E+00  0.000E+00  4.46117E+01  1.685E-01  2.000E+01  2.000E+04 -1.525E-01
   1   16   10     1    10    1.3052E+05 -2.9471E+03   1.3347E+05  0.000E+00  0.000E+00  0.000E+00  4.41368E+01  1.709E-01  2.000E+01  2.000E+04 -1.474E-01
   1   16   11     1    11    1.3347E+05 -2.7773E+03   1.3625E+05  0.000E+00  0.000E+00  0.000E+00  4.36617E+01  1.731E-01  2.000E+01  2.000E+04 -1.389E-01
   1   16   12     1    12    1.3625E+05 -3.1160E+03   1.3936E+05  0.000E+00  0.000E+00  0.000E+00  4.31867E+01  1.753E-01  2.000E+01  2.000E+04 -1.558E-01
   1   15   13     1    13    1.3936E+05 -2.7499E+03   1.4211E+05  0.000E+00  0.000E+00  0.000E+00  4.27117E+01  1.776E-01  2.000E+01  2.000E+04 -1.375E-01
   1   14   14     1    14    1.4211E+05 -2.7971E+03   1.4491E+05  0.000E+00  0.000E+00  0.000E+00  4.22365E+01  1.797E-01  2.000E+01  2.000E+04 -1.399E-01
   1   13   15     1    15    1.4491E+05 -3.2361E+03   1.4815E+05  0.000E+00  0.000E+00  0.000E+00  4.17615E+01  1.819E-01  2.000E+01  2.000E+04 -1.618E-01
   1   12   16     1    16    1.4815E+05 -4.8913E+03   1.5304E+05  0.000E+00  0.000E+00  0.000E+00  4.12872E+01  1.849E-01  2.000E+01  2.000E+04 -2.446E-01
   1   12   17     1    17    1.5304E+05 -2.8929E+03   1.5593E+05  0.000E+00  0.000E+00  0.000E+00  4.08128E+01  1.878E-01  2.000E+01  2.000E+04 -1.446E-01
   1   12   18     1    18    1.5593E+05 -2.6896E+03   1.5862E+05  0.000E+00  0.000E+00  0.000E+00  4.03375E+01  1.898E-01  2.000E+01  2.000E+04 -1.345E-01
   1   12   19     1    19    1.5862E+05 -3.8085E+03   1.6243E+05  0.000E+00  0.000E+00  0.000E+00  3.98626E+01  1.922E-01  2.000E+01  2.000E+04 -1.904E-01
   1   13   20     1    20    1.6243E+05 -1.2851E+03   1.6371E+05  0.000E+00  0.000E+00  0.000E+00  3.93872E+01  1.940E-01  2.000E+01  2.000E+04 -6.426E-02
   1   14   21     1    21    1.6371E+05  1.0661E+03   1.6265E+05  0.000E+00  0.000E+00  0.000E+00  3.89100E+01  1.941E-01  2.000E+01  2.000E+04  5.330E-02
   1   14   22     1    22    1.6265E+05  5.6219E+03   1.5703E+05  0.000E+00  0.000E+00  0.000E+00  3.84303E+01  1.917E-01  2.000E+01  2.000E+04  2.811E-01
   1    9   30     2     1    5.0000E+04 -2.5953E+03   5.2595E+04  0.000E+00  0.000E+00  0.000E+00  4.02427E+01  1.177E-01  2.000E+01  2.000E+04 -1.298E-01
   1    9   29     2     2    5.2595E+04 -2.9292E+03   5.5525E+04  0.000E+00  0.000E+00  0.000E+00  3.99964E+01  1.214E-01  2.000E+01  2.000E+04 -1.465E-01
   1    9   28     2     3    5.5525E+04 -3.3130E+03   5.8838E+04  0.000E+00  0.000E+00  0.000E+00  3.97506E+01  1.256E-01  2.000E+01  2.000E+04 -1.657E-01
   1    9   27     2     4    5.8838E+04 -5.9962E+03   6.4834E+04  0.000E+00  0.000E+00  0.000E+00  3.95066E+01  1.316E-01  2.000E+01  2.000E+04 -2.998E-01
   1   10   26     2     5    6.4834E+04 -3.6059E+03   6.8440E+04  0.000E+00  0.000E+00  0.000E+00  3.92627E+01  1.377E-01  2.000E+01  2.000E+04 -1.803E-01
   1   11   25     2     6    6.8440E+04 -2.5625E+03   7.1002E+04  0.000E+00  0.000E+00  0.000E+00  3.90164E+01  1.414E-01  2.000E+01  2.000E+04 -1.281E-01
   1   12   24     2     7    7.1002E+04 -1.7268E+03   7.2729E+04  0.000E+00  0.000E+00  0.000E+00  3.87690E+01  1.440E-01  2.000E+01  2.000E+04 -8.634E-02
   1   13   23     2     8    7.2729E+04 -9.0583E+02   7.3635E+04  0.000E+00  0.000E+00  0.000E+00  3.85206E+01  1.456E-01  2.000E+01  2.000E+04 -4.529E-02
   1   14   22     2     9    7.3635E+04  2.4103E+03   7.1224E+04  0.000E+00  0.000E+00  0.000E+00  3.82697E+01  1.447E-01  2.000E+01  2.000E+04  1.205E-01
   1   14   22     3     1    2.2825E+05 -7.8933E+03   2.3614E+05  0.000E+00  0.000E+00  0.000E+00  3.77545E+01  1.990E-01  2.000E+01  2.000E+04 -3.947E-01
   1   15   23     3     2    2.3614E+05  2.2433E+03   2.3390E+05  0.000E+00  0.000E+00  0.000E+00  3.68671E+01  2.004E-01  2.000E+01  2.000E+04  1.122E-01
   1   15   24     3     3    2.3390E+05  1.2109E+03   2.3269E+05  0.000E+00  0.000E+00  0.000E+00  3.59773E+01  1.995E-01  2.000E+01  2.000E+04  6.054E-02
   1   15   25     3     4    2.3269E+05  6.2059E+02   2.3207E+05  0.000E+00  0.000E+00  0.000E+00  3.50880E+01  1.991E-01  2.000E+01  2.000E+04  3.103E-02
   1   15   26     3     5    2.3207E+05 -5.9410E+02   2.3266E+05  0.000E+00  0.000E+00  0.000E+00  3.41991E+01  1.991E-01  2.000E+01  2.000E+04 -2.970E-02
   1   16   27     3     6    2.3266E+05  1.2563E+02   2.3254E+05  0.000E+00  0.000E+00  0.000E+00  3.33103E+01  1.992E-01  2.000E+01  2.000E+04  6.281E-03
   1   17   28     3     7    2.3254E+05 -5.8778E+02   2.3312E+05  0.000E+00  0.000E+00  0.000E+00  3.24215E+01  1.993E-01  2.000E+01  2.000E+04 -2.939E-02
   1   18   29     3     8    2.3312E+05 -2.4074E+03   2.3553E+05  0.000E+00  0.000E+00  0.000E+00  3.15334E+01  2.001E-01  2.000E+01  2.000E+04 -1.204E-01
   1   18   30     3     9    2.3553E+05 -3.3698E+03   2.3890E+05  0.000E+00  0.000E+00  0.000E+00  3.06460E+01  2.016E-01  2.000E+01  2.000E+04 -1.685E-01



1
              HEAD IN LAYER   1 AT END OF TIME STEP   1 IN STRESS PERIOD    7
  ---------------------------------------------------------------------------

          1      2      3      4      5      6      7      8      9     10
         11     12     13     14     15     16     17     18     19     20
         21     22     23     24     25     26     27     28     29     30
 .........................................................................
   1  ****** ****** ****** ****** ****** ****** ****** ****** ****** ******
      ****** ****** ****** ****** ****** ****** ****** ****** ****** ******
      ****** ****** ****** ****** ****** ****** ****** ****** ****** ******
   2  ****** ****** ****** ****** ****** ****** ****** ****** ****** ******
      ****** ****** ****** ****** ****** ****** ****** ****** ****** ******
      ****** ****** ****** ****** ****** ****** ****** ****** ****** ******
   3  ****** ****** ****** ****** ****** ****** ****** ****** ****** ******
      ****** ****** ****** ****** ****** ****** ****** ****** ****** ******
      ****** ****** ****** ****** ****** ****** ****** ****** ****** ******
   4  ****** ****** ****** ****** ****** ****** ****** ****** ****** ******
      ****** ****** ****** ****** ****** ****** ****** ****** ****** ******
      ****** ****** ****** ****** ****** ****** ****** ****** ****** ******
   5  ****** ****** ****** ****** ****** ****** ****** ****** ****** ******
      ****** ****** ****** ****** ****** ****** ****** ****** ****** ******
      ****** ****** ****** ****** ****** ****** ****** ****** ****** ******
   6  ****** ****** ****** ****** ****** ****** ****** ****** ****** ******
      ****** ****** ****** ****** ****** ****** ****** ****** ****** ******
      ****** ****** ****** ****** ****** ****** ****** ****** ****** ******
   7  ****** ****** ****** ****** ****** ****** ****** ****** ****** ******
      ****** ****** ****** ****** ****** ****** ****** ****** ****** ******
      ****** ****** ****** ****** ****** ****** ****** ****** ****** ******
   8  ****** ****** ****** ****** ****** ****** ****** ****** ****** ******
      ****** ****** ****** ****** ****** ****** ****** ****** ****** ******
      ****** ****** ****** ****** ****** ****** ****** ****** ****** ******
   9  ****** ****** ****** ****** ****** ****** ****** ****** ****** ******
      ****** ****** ****** ****** ****** ****** ****** ****** ****** ******
      ****** ****** ****** ****** ****** ****** ****** ****** ****** ******
  10  ****** ****** ****** ****** ****** ****** ****** ****** ****** ******
      ****** ****** ****** ****** ****** ****** ****** ****** ****** ******
      ****** ****** ****** ****** ****** ****** ****** ****** ****** ******
  11  ****** ****** ****** ****** ****** ****** ****** ****** ****** ******
      ****** ****** ****** ****** ****** ****** ****** ****** ****** ******
      ****** ****** ****** ****** ****** ****** ****** ****** ****** ******
  12  ****** ****** ****** ****** ****** ****** ****** ****** ****** ******
      ****** ****** ****** ****** ****** ****** ****** ****** ****** ******
      ****** ****** ****** ****** ****** ****** ****** ****** ****** ******
  13  ****** ****** ****** ****** ****** ****** ****** ****** ****** ******
      ****** ****** ****** ****** ****** ****** ****** ****** ****** ******
      ****** ****** ****** ****** ****** ****** ****** ****** ****** ******
  14  ****** ****** ****** ****** ****** ****** ****** ****** ****** ******
      ****** ****** ****** ****** ****** ****** ****** ****** ****** ******
      ****** ****** ****** ****** ****** ****** ****** ****** ****** ******
  15  ****** ****** ****** ****** ****** ****** ****** ****** ****** ******
      ****** ****** ****** ****** ****** ****** ****** ****** ****** ******
      ****** ****** ****** ****** ****** ****** ****** ****** ****** ******
  16  ****** ****** ****** ****** ****** ****** ****** ****** ****** ******
      ****** ****** ****** ****** ****** ****** ****** ****** ****** ******
      ****** ****** ****** ****** ****** ****** ****** ****** ****** ******
  17  ****** ****** ****** ****** ****** ****** ****** ****** ****** ******
      ****** ****** ****** ****** ****** ****** ****** ****** ****** ******
      ****** ****** ****** ****** ****** ****** ****** ****** ****** ******
  18  ****** ****** ****** ****** ****** ****** ****** ****** ****** ******
      ****** ****** ****** ****** ****** ****** ****** ****** ****** ******
      ****** ****** ****** ****** ****** ****** ****** ****** ****** ******
  19  ****** ****** ****** ****** ****** ****** ****** ****** ****** ******
      ****** ****** ****** ****** ****** ****** ****** ****** ****** ******
      ****** ****** ****** ****** ****** ****** ****** ****** ****** ******
  20  ****** ****** ****** ****** ****** ****** ****** ****** ****** ******
      ****** ****** ****** ****** ****** ****** ****** ****** ****** ******
      ****** ****** ****** ****** ****** ****** ****** ****** ****** ******
  21  ****** ****** ****** ****** ****** ****** ****** ****** ****** ******
      ****** ****** ****** ****** ****** ****** ****** ****** ****** ******
      ****** ****** ****** ****** ****** ****** ****** ****** ****** ******
  22  ****** ****** ****** ****** ****** ****** ****** ****** ****** ******
      ****** ****** ****** ****** ****** ****** ****** ****** ****** ******
      ****** ****** ****** ****** ****** ****** ****** ****** ****** ******
  23  ****** ****** ****** ****** ****** ****** ****** ****** ****** ******
      ****** ****** ****** ****** ****** ****** ****** ****** ****** ******
      ****** ****** ****** ****** ****** ****** ****** ****** ****** ******
  24  ****** ****** ****** ****** ****** ****** ****** ****** ****** ******
      ****** ****** ****** ****** ****** ****** ****** ****** ****** ******
      ****** ****** ****** ****** ****** ****** ****** ****** ****** ******
  25  ****** ****** ****** ****** ****** ****** ****** ****** ****** ******
      ****** ****** ****** ****** ****** ****** ****** ****** ****** ******
      ****** ****** ****** ****** ****** ****** ****** ****** ****** ******

 HEAD WILL BE SAVED ON UNIT   51 AT END OF TIME STEP    1, STRESS PERIOD    7
1
  VOLUMETRIC BUDGET FOR ENTIRE MODEL AT END OF TIME STEP    1, STRESS PERIOD   7
  ------------------------------------------------------------------------------

     CUMULATIVE VOLUMES      L**3       RATES FOR THIS TIME STEP      L**3/T
     ------------------                 ------------------------

           IN:                                      IN:
           ---                                      ---
             STORAGE =    24957048.0704               STORAGE =       12110.2658
       CONSTANT HEAD =    84832611.2079         CONSTANT HEAD =      148139.3502
               WELLS =           0.0000                 WELLS =           0.0000
            RECHARGE =    15097200.0000              RECHARGE =           0.0000
      STREAM LEAKAGE =     6914092.0918        STREAM LEAKAGE =       13298.7128

            TOTAL IN =   131800951.3700              TOTAL IN =      173548.3287

          OUT:                                     OUT:
          ----                                     ----
             STORAGE =      940186.7833               STORAGE =           0.0000
       CONSTANT HEAD =           0.0000         CONSTANT HEAD =           0.0000
               WELLS =    45591071.1682                 WELLS =       71347.5292
            RECHARGE =           0.0000              RECHARGE =           0.0000
      STREAM LEAKAGE =    85269694.1713        STREAM LEAKAGE =      102200.8017

           TOTAL OUT =   131800952.1228             TOTAL OUT =      173548.3309

            IN - OUT =          -0.7527              IN - OUT =      -2.1433E-03

 PERCENT DISCREPANCY =          -0.00     PERCENT DISCREPANCY =          -0.00






         TIME SUMMARY AT END OF TIME STEP    1 IN STRESS PERIOD    7
                    SECONDS     MINUTES      HOURS       DAYS        YEARS
                    -----------------------------------------------------------
   TIME STEP LENGTH 7.86240E+06 1.31040E+05  2184.0      91.000     0.24914    
 STRESS PERIOD TIME 7.86240E+06 1.31040E+05  2184.0      91.000     0.24914    
         TOTAL TIME 5.52096E+07 9.20160E+05  15336.      639.00      1.7495    
1
1
                            STRESS PERIOD NO.    8, LENGTH =   91.00000    
                            -----------------------------------------------

                              NUMBER OF TIME STEPS =     1

                               MULTIPLIER FOR DELT =     1.500

                            INITIAL TIME STEP SIZE =   91.00000    

 WELL NO.  LAYER   ROW   COL   STRESS RATE         
 --------------------------------------------------
      1      1     21     23     -0.1821E+05
      2      1     20     24     -0.1241E+05
      3      1     19     20     -0.2382E+05
      4      1     19     24     -0.1691E+05

      4 WELLS

                 RECHARGE =  1.000000E-03

 REUSING STREAM SEGMENT DATA FROM LAST STRESS PERIOD
 
 SOLVING FOR HEAD 


     6 CALLS TO PCG ROUTINE FOR TIME STEP   1 IN STRESS PERIOD    8
    23 TOTAL ITERATIONS

 OUTPUT CONTROL FOR STRESS PERIOD    8   TIME STEP    1
    SAVE BUDGET
    SAVE HEAD FOR ALL LAYERS
    PRINT HEAD FOR ALL LAYERS
 UBDSV2 SAVING "STREAMFLOW OUT  " ON UNIT  50 AT TIME STEP  1, STRESS PERIOD   8



 STREAM LISTING     PERIOD      8   STEP        1

 LAYER ROW COL. STREAM  RCH.  FLOW INTO     FLOW TO   FLOW OUT OF   OVRLND.     DIRECT     STREAM       STREAM     STREAM     STREAM   STREAMBED  STREAMBED
                SEG.NO.  NO.  STRM. RCH.    AQUIFER    STRM. RCH.    RUNOFF     PRECIP       ET          HEAD       DEPTH      WIDTH   CONDCTNC.   GRADIENT

   1   13    1     1     1    1.0000E+05 -2.8647E+03   1.0286E+05  0.000E+00  0.000E+00  0.000E+00  4.84073E+01  1.459E-01  2.000E+01  2.000E+04 -1.432E-01
   1   13    2     1     2    1.0286E+05 -4.7983E+03   1.0766E+05  0.000E+00  0.000E+00  0.000E+00  4.79333E+01  1.492E-01  2.000E+01  2.000E+04 -2.399E-01
   1   14    3     1     3    1.0766E+05 -3.8589E+03   1.1152E+05  0.000E+00  0.000E+00  0.000E+00  4.74596E+01  1.528E-01  2.000E+01  2.000E+04 -1.929E-01
   1   15    4     1     4    1.1152E+05 -3.7569E+03   1.1528E+05  0.000E+00  0.000E+00  0.000E+00  4.69855E+01  1.560E-01  2.000E+01  2.000E+04 -1.878E-01
   1   16    5     1     5    1.1528E+05 -4.0622E+03   1.1934E+05  0.000E+00  0.000E+00  0.000E+00  4.65115E+01  1.592E-01  2.000E+01  2.000E+04 -2.031E-01
   1   16    6     1     6    1.1934E+05 -3.2048E+03   1.2255E+05  0.000E+00  0.000E+00  0.000E+00  4.60371E+01  1.621E-01  2.000E+01  2.000E+04 -1.602E-01
   1   16    7     1     7    1.2255E+05 -3.2568E+03   1.2580E+05  0.000E+00  0.000E+00  0.000E+00  4.55624E+01  1.647E-01  2.000E+01  2.000E+04 -1.628E-01
   1   16    8     1     8    1.2580E+05 -3.2705E+03   1.2907E+05  0.000E+00  0.000E+00  0.000E+00  4.50878E+01  1.673E-01  2.000E+01  2.000E+04 -1.635E-01
   1   16    9     1     9    1.2907E+05 -3.2281E+03   1.3230E+05  0.000E+00  0.000E+00  0.000E+00  4.46130E+01  1.698E-01  2.000E+01  2.000E+04 -1.614E-01
   1   16   10     1    10    1.3230E+05 -3.1233E+03   1.3542E+05  0.000E+00  0.000E+00  0.000E+00  4.41382E+01  1.723E-01  2.000E+01  2.000E+04 -1.562E-01
   1   16   11     1    11    1.3542E+05 -2.9518E+03   1.3838E+05  0.000E+00  0.000E+00  0.000E+00  4.36633E+01  1.746E-01  2.000E+01  2.000E+04 -1.476E-01
   1   16   12     1    12    1.3838E+05 -3.3360E+03   1.4171E+05  0.000E+00  0.000E+00  0.000E+00  4.31884E+01  1.770E-01  2.000E+01  2.000E+04 -1.668E-01
   1   15   13     1    13    1.4171E+05 -2.9894E+03   1.4470E+05  0.000E+00  0.000E+00  0.000E+00  4.27135E+01  1.794E-01  2.000E+01  2.000E+04 -1.495E-01
   1   14   14     1    14    1.4470E+05 -3.0388E+03   1.4774E+05  0.000E+00  0.000E+00  0.000E+00  4.22385E+01  1.817E-01  2.000E+01  2.000E+04 -1.519E-01
   1   13   15     1    15    1.4774E+05 -3.4721E+03   1.5121E+05  0.000E+00  0.000E+00  0.000E+00  4.17637E+01  1.841E-01  2.000E+01  2.000E+04 -1.736E-01
   1   12   16     1    16    1.5121E+05 -5.1060E+03   1.5632E+05  0.000E+00  0.000E+00  0.000E+00  4.12895E+01  1.873E-01  2.000E+01  2.000E+04 -2.553E-01
   1   12   17     1    17    1.5632E+05 -3.0639E+03   1.5938E+05  0.000E+00  0.000E+00  0.000E+00  4.08152E+01  1.902E-01  2.000E+01  2.000E+04 -1.532E-01
   1   12   18     1    18    1.5938E+05 -2.8605E+03   1.6224E+05  0.000E+00  0.000E+00  0.000E+00  4.03401E+01  1.924E-01  2.000E+01  2.000E+04 -1.430E-01
   1   12   19     1    19    1.6224E+05 -4.0172E+03   1.6626E+05  0.000E+00  0.000E+00  0.000E+00  3.98653E+01  1.948E-01  2.000E+01  2.000E+04 -2.009E-01
   1   13   20     1    20    1.6626E+05 -1.5021E+03   1.6776E+05  0.000E+00  0.000E+00  0.000E+00  3.93900E+01  1.968E-01  2.000E+01  2.000E+04 -7.510E-02
   1   14   21     1    21    1.6776E+05  8.7103E+02   1.6689E+05  0.000E+00  0.000E+00  0.000E+00  3.89129E+01  1.970E-01  2.000E+01  2.000E+04  4.355E-02
   1   14   22     1    22    1.6689E+05  5.5782E+03   1.6131E+05  0.000E+00  0.000E+00  0.000E+00  3.84333E+01  1.947E-01  2.000E+01  2.000E+04  2.789E-01
   1    9   30     2     1    5.0000E+04 -2.7743E+03   5.2774E+04  0.000E+00  0.000E+00  0.000E+00  4.02428E+01  1.178E-01  2.000E+01  2.000E+04 -1.387E-01
   1    9   29     2     2    5.2774E+04 -3.1064E+03   5.5881E+04  0.000E+00  0.000E+00  0.000E+00  3.99968E+01  1.218E-01  2.000E+01  2.000E+04 -1.553E-01
   1    9   28     2     3    5.5881E+04 -3.4876E+03   5.9368E+04  0.000E+00  0.000E+00  0.000E+00  3.97512E+01  1.262E-01  2.000E+01  2.000E+04 -1.744E-01
   1    9   27     2     4    5.9368E+04 -6.2156E+03   6.5584E+04  0.000E+00  0.000E+00  0.000E+00  3.95074E+01  1.324E-01  2.000E+01  2.000E+04 -3.108E-01
   1   10   26     2     5    6.5584E+04 -3.8423E+03   6.9426E+04  0.000E+00  0.000E+00  0.000E+00  3.92637E+01  1.387E-01  2.000E+01  2.000E+04 -1.921E-01
   1   11   25     2     6    6.9426E+04 -2.7925E+03   7.2219E+04  0.000E+00  0.000E+00  0.000E+00  3.90178E+01  1.428E-01  2.000E+01  2.000E+04 -1.396E-01
   1   12   24     2     7    7.2219E+04 -1.9355E+03   7.4154E+04  0.000E+00  0.000E+00  0.000E+00  3.87706E+01  1.456E-01  2.000E+01  2.000E+04 -9.678E-02
   1   13   23     2     8    7.4154E+04 -1.0755E+03   7.5230E+04  0.000E+00  0.000E+00  0.000E+00  3.85224E+01  1.474E-01  2.000E+01  2.000E+04 -5.377E-02
   1   14   22     2     9    7.5230E+04  2.3445E+03   7.2885E+04  0.000E+00  0.000E+00  0.000E+00  3.82717E+01  1.467E-01  2.000E+01  2.000E+04  1.172E-01
   1   14   22     3     1    2.3420E+05 -7.9369E+03   2.4214E+05  0.000E+00  0.000E+00  0.000E+00  3.77576E+01  2.020E-01  2.000E+01  2.000E+04 -3.968E-01
   1   15   23     3     2    2.4214E+05  2.0603E+03   2.4008E+05  0.000E+00  0.000E+00  0.000E+00  3.68702E+01  2.035E-01  2.000E+01  2.000E+04  1.030E-01
   1   15   24     3     3    2.4008E+05  1.0673E+03   2.3901E+05  0.000E+00  0.000E+00  0.000E+00  3.59805E+01  2.027E-01  2.000E+01  2.000E+04  5.336E-02
   1   15   25     3     4    2.3901E+05  4.7205E+02   2.3854E+05  0.000E+00  0.000E+00  0.000E+00  3.50912E+01  2.023E-01  2.000E+01  2.000E+04  2.360E-02
   1   15   26     3     5    2.3854E+05 -7.8862E+02   2.3932E+05  0.000E+00  0.000E+00  0.000E+00  3.42024E+01  2.024E-01  2.000E+01  2.000E+04 -3.943E-02
   1   16   27     3     6    2.3932E+05 -1.0798E+02   2.3943E+05  0.000E+00  0.000E+00  0.000E+00  3.33138E+01  2.027E-01  2.000E+01  2.000E+04 -5.399E-03
   1   17   28     3     7    2.3943E+05 -8.2379E+02   2.4026E+05  0.000E+00  0.000E+00  0.000E+00  3.24251E+01  2.029E-01  2.000E+01  2.000E+04 -4.119E-02
   1   18   29     3     8    2.4026E+05 -2.6230E+03   2.4288E+05  0.000E+00  0.000E+00  0.000E+00  3.15371E+01  2.038E-01  2.000E+01  2.000E+04 -1.312E-01
   1   18   30     3     9    2.4288E+05 -3.5400E+03   2.4642E+05  0.000E+00  0.000E+00  0.000E+00  3.06498E+01  2.053E-01  2.000E+01  2.000E+04 -1.770E-01



1
              HEAD IN LAYER   1 AT END OF TIME STEP   1 IN STRESS PERIOD    8
  ---------------------------------------------------------------------------

          1      2      3      4      5      6      7      8      9     10
         11     12     13     14     15     16     17     18     19     20
         21     22     23     24     25     26     27     28     29     30
 .........................................................................
   1  ****** ****** ****** ****** ****** ****** ****** ****** ****** ******
      ****** ****** ****** ****** ****** ****** ****** ****** ****** ******
      ****** ****** ****** ****** ****** ****** ****** ****** ****** ******
   2  ****** ****** ****** ****** ****** ****** ****** ****** ****** ******
      ****** ****** ****** ****** ****** ****** ****** ****** ****** ******
      ****** ****** ****** ****** ****** ****** ****** ****** ****** ******
   3  ****** ****** ****** ****** ****** ****** ****** ****** ****** ******
      ****** ****** ****** ****** ****** ****** ****** ****** ****** ******
      ****** ****** ****** ****** ****** ****** ****** ****** ****** ******
   4  ****** ****** ****** ****** ****** ****** ****** ****** ****** ******
      ****** ****** ****** ****** ****** ****** ****** ****** ****** ******
      ****** ****** ****** ****** ****** ****** ****** ****** ****** ******
   5  ****** ****** ****** ****** ****** ****** ****** ****** ****** ******
      ****** ****** ****** ****** ****** ****** ****** ****** ****** ******
      ****** ****** ****** ****** ****** ****** ****** ****** ****** ******
   6  ****** ****** ****** ****** ****** ****** ****** ****** ****** ******
      ****** ****** ****** ****** ****** ****** ****** ****** ****** ******
      ****** ****** ****** ****** ****** ****** ****** ****** ****** ******
   7  ****** ****** ****** ****** ****** ****** ****** ****** ****** ******
      ****** ****** ****** ****** ****** ****** ****** ****** ****** ******
      ****** ****** ****** ****** ****** ****** ****** ****** ****** ******
   8  ****** ****** ****** ****** ****** ****** ****** ****** ****** ******
      ****** ****** ****** ****** ****** ****** ****** ****** ****** ******
      ****** ****** ****** ****** ****** ****** ****** ****** ****** ******
   9  ****** ****** ****** ****** ****** ****** ****** ****** ****** ******
      ****** ****** ****** ****** ****** ****** ****** ****** ****** ******
      ****** ****** ****** ****** ****** ****** ****** ****** ****** ******
  10  ****** ****** ****** ****** ****** ****** ****** ****** ****** ******
      ****** ****** ****** ****** ****** ****** ****** ****** ****** ******
      ****** ****** ****** ****** ****** ****** ****** ****** ****** ******
  11  ****** ****** ****** ****** ****** ****** ****** ****** ****** ******
      ****** ****** ****** ****** ****** ****** ****** ****** ****** ******
      ****** ****** ****** ****** ****** ****** ****** ****** ****** ******
  12  ****** ****** ****** ****** ****** ****** ****** ****** ****** ******
      ****** ****** ****** ****** ****** ****** ****** ****** ****** ******
      ****** ****** ****** ****** ****** ****** ****** ****** ****** ******
  13  ****** ****** ****** ****** ****** ****** ****** ****** ****** ******
      ****** ****** ****** ****** ****** ****** ****** ****** ****** ******
      ****** ****** ****** ****** ****** ****** ****** ****** ****** ******
  14  ****** ****** ****** ****** ****** ****** ****** ****** ****** ******
      ****** ****** ****** ****** ****** ****** ****** ****** ****** ******
      ****** ****** ****** ****** ****** ****** ****** ****** ****** ******
  15  ****** ****** ****** ****** ****** ****** ****** ****** ****** ******
      ****** ****** ****** ****** ****** ****** ****** ****** ****** ******
      ****** ****** ****** ****** ****** ****** ****** ****** ****** ******
  16  ****** ****** ****** ****** ****** ****** ****** ****** ****** ******
      ****** ****** ****** ****** ****** ****** ****** ****** ****** ******
      ****** ****** ****** ****** ****** ****** ****** ****** ****** ******
  17  ****** ****** ****** ****** ****** ****** ****** ****** ****** ******
      ****** ****** ****** ****** ****** ****** ****** ****** ****** ******
      ****** ****** ****** ****** ****** ****** ****** ****** ****** ******
  18  ****** ****** ****** ****** ****** ****** ****** ****** ****** ******
      ****** ****** ****** ****** ****** ****** ****** ****** ****** ******
      ****** ****** ****** ****** ****** ****** ****** ****** ****** ******
  19  ****** ****** ****** ****** ****** ****** ****** ****** ****** ******
      ****** ****** ****** ****** ****** ****** ****** ****** ****** ******
      ****** ****** ****** ****** ****** ****** ****** ****** ****** ******
  20  ****** ****** ****** ****** ****** ****** ****** ****** ****** ******
      ****** ****** ****** ****** ****** ****** ****** ****** ****** ******
      ****** ****** ****** ****** ****** ****** ****** ****** ****** ******
  21  ****** ****** ****** ****** ****** ****** ****** ****** ****** ******
      ****** ****** ****** ****** ****** ****** ****** ****** ****** ******
      ****** ****** ****** ****** ****** ****** ****** ****** ****** ******
  22  ****** ****** ****** ****** ****** ****** ****** ****** ****** ******
      ****** ****** ****** ****** ****** ****** ****** ****** ****** ******
      ****** ****** ****** ****** ****** ****** ****** ****** ****** ******
  23  ****** ****** ****** ****** ****** ****** ****** ****** ****** ******
      ****** ****** ****** ****** ****** ****** ****** ****** ****** ******
      ****** ****** ****** ****** ****** ****** ****** ****** ****** ******
  24  ****** ****** ****** ****** ****** ****** ****** ****** ****** ******
      ****** ****** ****** ****** ****** ****** ****** ****** ****** ******
      ****** ****** ****** ****** ****** ****** ****** ****** ****** ******
  25  ****** ****** ****** ****** ****** ****** ****** ****** ****** ******
      ****** ****** ****** ****** ****** ****** ****** ****** ****** ******
      ****** ****** ****** ****** ****** ****** ****** ****** ****** ******

 HEAD WILL BE SAVED ON UNIT   51 AT END OF TIME STEP    1, STRESS PERIOD    8
1
  VOLUMETRIC BUDGET FOR ENTIRE MODEL AT END OF TIME STEP    1, STRESS PERIOD   8
  ------------------------------------------------------------------------------

     CUMULATIVE VOLUMES      L**3       RATES FOR THIS TIME STEP      L**3/T
     ------------------                 ------------------------

           IN:                                      IN:
           ---                                      ---
             STORAGE =    24957048.0704               STORAGE =           0.0000
       CONSTANT HEAD =    97918276.1994         CONSTANT HEAD =      143798.5164
               WELLS =           0.0000                 WELLS =           0.0000
            RECHARGE =    17608800.0000              RECHARGE =       27600.0000
      STREAM LEAKAGE =     8041888.0823        STREAM LEAKAGE =       12393.3625

            TOTAL IN =   148526012.3521              TOTAL IN =      183791.8789

          OUT:                                     OUT:
          ----                                     ----
             STORAGE =     1270678.6579               STORAGE =        3631.7788
       CONSTANT HEAD =           0.0000         CONSTANT HEAD =           0.0000
               WELLS =    52083696.3267                 WELLS =       71347.5292
            RECHARGE =           0.0000              RECHARGE =           0.0000
      STREAM LEAKAGE =    95171638.0458        STREAM LEAKAGE =      108812.5700

           TOTAL OUT =   148526013.0303             TOTAL OUT =      183791.8781

            IN - OUT =          -0.6783              IN - OUT =       8.1843E-04

 PERCENT DISCREPANCY =          -0.00     PERCENT DISCREPANCY =           0.00






         TIME SUMMARY AT END OF TIME STEP    1 IN STRESS PERIOD    8
                    SECONDS     MINUTES      HOURS       DAYS        YEARS
                    -----------------------------------------------------------
   TIME STEP LENGTH 7.86240E+06 1.31040E+05  2184.0      91.000     0.24914    
 STRESS PERIOD TIME 7.86240E+06 1.31040E+05  2184.0      91.000     0.24914    
         TOTAL TIME 6.30720E+07 1.05120E+06  17520.      730.00      1.9986    
1
1
                            STRESS PERIOD NO.    9, LENGTH =   92.00000    
                            -----------------------------------------------

                              NUMBER OF TIME STEPS =     1

                               MULTIPLIER FOR DELT =     1.500

                            INITIAL TIME STEP SIZE =   92.00000    

 WELL NO.  LAYER   ROW   COL   STRESS RATE         
 --------------------------------------------------
      1      1     21     23     -0.1821E+05
      2      1     20     24     -0.1241E+05
      3      1     19     20     -0.2382E+05
      4      1     19     24     -0.1691E+05

      4 WELLS

                 RECHARGE =  5.000000E-04

 REUSING STREAM SEGMENT DATA FROM LAST STRESS PERIOD
 
 SOLVING FOR HEAD 


     6 CALLS TO PCG ROUTINE FOR TIME STEP   1 IN STRESS PERIOD    9
    22 TOTAL ITERATIONS

 OUTPUT CONTROL FOR STRESS PERIOD    9   TIME STEP    1
    SAVE BUDGET
    SAVE HEAD FOR ALL LAYERS
    PRINT HEAD FOR ALL LAYERS
 UBDSV2 SAVING "STREAMFLOW OUT  " ON UNIT  50 AT TIME STEP  1, STRESS PERIOD   9



 STREAM LISTING     PERIOD      9   STEP        1

 LAYER ROW COL. STREAM  RCH.  FLOW INTO     FLOW TO   FLOW OUT OF   OVRLND.     DIRECT     STREAM       STREAM     STREAM     STREAM   STREAMBED  STREAMBED
                SEG.NO.  NO.  STRM. RCH.    AQUIFER    STRM. RCH.    RUNOFF     PRECIP       ET          HEAD       DEPTH      WIDTH   CONDCTNC.   GRADIENT

   1   13    1     1     1    1.0000E+05 -2.7492E+03   1.0275E+05  0.000E+00  0.000E+00  0.000E+00  4.84072E+01  1.458E-01  2.000E+01  2.000E+04 -1.375E-01
   1   13    2     1     2    1.0275E+05 -4.6463E+03   1.0740E+05  0.000E+00  0.000E+00  0.000E+00  4.79331E+01  1.490E-01  2.000E+01  2.000E+04 -2.323E-01
   1   14    3     1     3    1.0740E+05 -3.7047E+03   1.1110E+05  0.000E+00  0.000E+00  0.000E+00  4.74594E+01  1.525E-01  2.000E+01  2.000E+04 -1.852E-01
   1   15    4     1     4    1.1110E+05 -3.6052E+03   1.1471E+05  0.000E+00  0.000E+00  0.000E+00  4.69851E+01  1.556E-01  2.000E+01  2.000E+04 -1.803E-01
   1   16    5     1     5    1.1471E+05 -3.9248E+03   1.1863E+05  0.000E+00  0.000E+00  0.000E+00  4.65109E+01  1.587E-01  2.000E+01  2.000E+04 -1.962E-01
   1   16    6     1     6    1.1863E+05 -3.0944E+03   1.2172E+05  0.000E+00  0.000E+00  0.000E+00  4.60365E+01  1.615E-01  2.000E+01  2.000E+04 -1.547E-01
   1   16    7     1     7    1.2172E+05 -3.1446E+03   1.2487E+05  0.000E+00  0.000E+00  0.000E+00  4.55617E+01  1.640E-01  2.000E+01  2.000E+04 -1.572E-01
   1   16    8     1     8    1.2487E+05 -3.1572E+03   1.2803E+05  0.000E+00  0.000E+00  0.000E+00  4.50870E+01  1.665E-01  2.000E+01  2.000E+04 -1.579E-01
   1   16    9     1     9    1.2803E+05 -3.1149E+03   1.3114E+05  0.000E+00  0.000E+00  0.000E+00  4.46122E+01  1.690E-01  2.000E+01  2.000E+04 -1.557E-01
   1   16   10     1    10    1.3114E+05 -3.0111E+03   1.3415E+05  0.000E+00  0.000E+00  0.000E+00  4.41373E+01  1.714E-01  2.000E+01  2.000E+04 -1.506E-01
   1   16   11     1    11    1.3415E+05 -2.8413E+03   1.3699E+05  0.000E+00  0.000E+00  0.000E+00  4.36623E+01  1.736E-01  2.000E+01  2.000E+04 -1.421E-01
   1   16   12     1    12    1.3699E+05 -3.1965E+03   1.4019E+05  0.000E+00  0.000E+00  0.000E+00  4.31873E+01  1.759E-01  2.000E+01  2.000E+04 -1.598E-01
   1   15   13     1    13    1.4019E+05 -2.8352E+03   1.4303E+05  0.000E+00  0.000E+00  0.000E+00  4.27123E+01  1.782E-01  2.000E+01  2.000E+04 -1.418E-01
   1   14   14     1    14    1.4303E+05 -2.8814E+03   1.4591E+05  0.000E+00  0.000E+00  0.000E+00  4.22372E+01  1.804E-01  2.000E+01  2.000E+04 -1.441E-01
   1   13   15     1    15    1.4591E+05 -3.3168E+03   1.4922E+05  0.000E+00  0.000E+00  0.000E+00  4.17622E+01  1.827E-01  2.000E+01  2.000E+04 -1.658E-01
   1   12   16     1    16    1.4922E+05 -4.9582E+03   1.5418E+05  0.000E+00  0.000E+00  0.000E+00  4.12880E+01  1.857E-01  2.000E+01  2.000E+04 -2.479E-01
   1   12   17     1    17    1.5418E+05 -2.9535E+03   1.5714E+05  0.000E+00  0.000E+00  0.000E+00  4.08136E+01  1.886E-01  2.000E+01  2.000E+04 -1.477E-01
   1   12   18     1    18    1.5714E+05 -2.7521E+03   1.5989E+05  0.000E+00  0.000E+00  0.000E+00  4.03384E+01  1.907E-01  2.000E+01  2.000E+04 -1.376E-01
   1   12   19     1    19    1.5989E+05 -3.8857E+03   1.6377E+05  0.000E+00  0.000E+00  0.000E+00  3.98635E+01  1.931E-01  2.000E+01  2.000E+04 -1.943E-01
   1   13   20     1    20    1.6377E+05 -1.3724E+03   1.6515E+05  0.000E+00  0.000E+00  0.000E+00  3.93881E+01  1.950E-01  2.000E+01  2.000E+04 -6.862E-02
   1   14   21     1    21    1.6515E+05  9.8889E+02   1.6416E+05  0.000E+00  0.000E+00  0.000E+00  3.89110E+01  1.951E-01  2.000E+01  2.000E+04  4.944E-02
   1   14   22     1    22    1.6416E+05  5.6013E+03   1.5856E+05  0.000E+00  0.000E+00  0.000E+00  3.84314E+01  1.928E-01  2.000E+01  2.000E+04  2.801E-01
   1    9   30     2     1    5.0000E+04 -2.6747E+03   5.2675E+04  0.000E+00  0.000E+00  0.000E+00  4.02427E+01  1.177E-01  2.000E+01  2.000E+04 -1.337E-01
   1    9   29     2     2    5.2675E+04 -3.0076E+03   5.5682E+04  0.000E+00  0.000E+00  0.000E+00  3.99966E+01  1.216E-01  2.000E+01  2.000E+04 -1.504E-01
   1    9   28     2     3    5.5682E+04 -3.3893E+03   5.9072E+04  0.000E+00  0.000E+00  0.000E+00  3.97508E+01  1.258E-01  2.000E+01  2.000E+04 -1.695E-01
   1    9   27     2     4    5.9072E+04 -6.0863E+03   6.5158E+04  0.000E+00  0.000E+00  0.000E+00  3.95070E+01  1.320E-01  2.000E+01  2.000E+04 -3.043E-01
   1   10   26     2     5    6.5158E+04 -3.7064E+03   6.8864E+04  0.000E+00  0.000E+00  0.000E+00  3.92631E+01  1.381E-01  2.000E+01  2.000E+04 -1.853E-01
   1   11   25     2     6    6.8864E+04 -2.6611E+03   7.1525E+04  0.000E+00  0.000E+00  0.000E+00  3.90170E+01  1.420E-01  2.000E+01  2.000E+04 -1.331E-01
   1   12   24     2     7    7.1525E+04 -1.8175E+03   7.3343E+04  0.000E+00  0.000E+00  0.000E+00  3.87697E+01  1.447E-01  2.000E+01  2.000E+04 -9.088E-02
   1   13   23     2     8    7.3343E+04 -9.8118E+02   7.4324E+04  0.000E+00  0.000E+00  0.000E+00  3.85214E+01  1.464E-01  2.000E+01  2.000E+04 -4.906E-02
   1   14   22     2     9    7.4324E+04  2.3848E+03   7.1939E+04  0.000E+00  0.000E+00  0.000E+00  3.82706E+01  1.456E-01  2.000E+01  2.000E+04  1.192E-01
   1   14   22     3     1    2.3049E+05 -7.9125E+03   2.3841E+05  0.000E+00  0.000E+00  0.000E+00  3.77557E+01  2.001E-01  2.000E+01  2.000E+04 -3.956E-01
   1   15   23     3     2    2.3841E+05  2.1703E+03   2.3624E+05  0.000E+00  0.000E+00  0.000E+00  3.68683E+01  2.016E-01  2.000E+01  2.000E+04  1.085E-01
   1   15   24     3     3    2.3624E+05  1.1491E+03   2.3509E+05  0.000E+00  0.000E+00  0.000E+00  3.59785E+01  2.008E-01  2.000E+01  2.000E+04  5.745E-02
   1   15   25     3     4    2.3509E+05  5.5459E+02   2.3453E+05  0.000E+00  0.000E+00  0.000E+00  3.50892E+01  2.003E-01  2.000E+01  2.000E+04  2.773E-02
   1   15   26     3     5    2.3453E+05 -6.8311E+02   2.3522E+05  0.000E+00  0.000E+00  0.000E+00  3.42004E+01  2.004E-01  2.000E+01  2.000E+04 -3.416E-02
   1   16   27     3     6    2.3522E+05  2.2217E+01   2.3519E+05  0.000E+00  0.000E+00  0.000E+00  3.33116E+01  2.005E-01  2.000E+01  2.000E+04  1.111E-03
   1   17   28     3     7    2.3519E+05 -6.9143E+02   2.3589E+05  0.000E+00  0.000E+00  0.000E+00  3.24229E+01  2.007E-01  2.000E+01  2.000E+04 -3.457E-02
   1   18   29     3     8    2.3589E+05 -2.5000E+03   2.3839E+05  0.000E+00  0.000E+00  0.000E+00  3.15348E+01  2.015E-01  2.000E+01  2.000E+04 -1.250E-01
   1   18   30     3     9    2.3839E+05 -3.4457E+03   2.4183E+05  0.000E+00  0.000E+00  0.000E+00  3.06475E+01  2.030E-01  2.000E+01  2.000E+04 -1.723E-01



1
              HEAD IN LAYER   1 AT END OF TIME STEP   1 IN STRESS PERIOD    9
  ---------------------------------------------------------------------------

          1      2      3      4      5      6      7      8      9     10
         11     12     13     14     15     16     17     18     19     20
         21     22     23     24     25     26     27     28     29     30
 .........................................................................
   1  ****** ****** ****** ****** ****** ****** ****** ****** ****** ******
      ****** ****** ****** ****** ****** ****** ****** ****** ****** ******
      ****** ****** ****** ****** ****** ****** ****** ****** ****** ******
   2  ****** ****** ****** ****** ****** ****** ****** ****** ****** ******
      ****** ****** ****** ****** ****** ****** ****** ****** ****** ******
      ****** ****** ****** ****** ****** ****** ****** ****** ****** ******
   3  ****** ****** ****** ****** ****** ****** ****** ****** ****** ******
      ****** ****** ****** ****** ****** ****** ****** ****** ****** ******
      ****** ****** ****** ****** ****** ****** ****** ****** ****** ******
   4  ****** ****** ****** ****** ****** ****** ****** ****** ****** ******
      ****** ****** ****** ****** ****** ****** ****** ****** ****** ******
      ****** ****** ****** ****** ****** ****** ****** ****** ****** ******
   5  ****** ****** ****** ****** ****** ****** ****** ****** ****** ******
      ****** ****** ****** ****** ****** ****** ****** ****** ****** ******
      ****** ****** ****** ****** ****** ****** ****** ****** ****** ******
   6  ****** ****** ****** ****** ****** ****** ****** ****** ****** ******
      ****** ****** ****** ****** ****** ****** ****** ****** ****** ******
      ****** ****** ****** ****** ****** ****** ****** ****** ****** ******
   7  ****** ****** ****** ****** ****** ****** ****** ****** ****** ******
      ****** ****** ****** ****** ****** ****** ****** ****** ****** ******
      ****** ****** ****** ****** ****** ****** ****** ****** ****** ******
   8  ****** ****** ****** ****** ****** ****** ****** ****** ****** ******
      ****** ****** ****** ****** ****** ****** ****** ****** ****** ******
      ****** ****** ****** ****** ****** ****** ****** ****** ****** ******
   9  ****** ****** ****** ****** ****** ****** ****** ****** ****** ******
      ****** ****** ****** ****** ****** ****** ****** ****** ****** ******
      ****** ****** ****** ****** ****** ****** ****** ****** ****** ******
  10  ****** ****** ****** ****** ****** ****** ****** ****** ****** ******
      ****** ****** ****** ****** ****** ****** ****** ****** ****** ******
      ****** ****** ****** ****** ****** ****** ****** ****** ****** ******
  11  ****** ****** ****** ****** ****** ****** ****** ****** ****** ******
      ****** ****** ****** ****** ****** ****** ****** ****** ****** ******
      ****** ****** ****** ****** ****** ****** ****** ****** ****** ******
  12  ****** ****** ****** ****** ****** ****** ****** ****** ****** ******
      ****** ****** ****** ****** ****** ****** ****** ****** ****** ******
      ****** ****** ****** ****** ****** ****** ****** ****** ****** ******
  13  ****** ****** ****** ****** ****** ****** ****** ****** ****** ******
      ****** ****** ****** ****** ****** ****** ****** ****** ****** ******
      ****** ****** ****** ****** ****** ****** ****** ****** ****** ******
  14  ****** ****** ****** ****** ****** ****** ****** ****** ****** ******
      ****** ****** ****** ****** ****** ****** ****** ****** ****** ******
      ****** ****** ****** ****** ****** ****** ****** ****** ****** ******
  15  ****** ****** ****** ****** ****** ****** ****** ****** ****** ******
      ****** ****** ****** ****** ****** ****** ****** ****** ****** ******
      ****** ****** ****** ****** ****** ****** ****** ****** ****** ******
  16  ****** ****** ****** ****** ****** ****** ****** ****** ****** ******
      ****** ****** ****** ****** ****** ****** ****** ****** ****** ******
      ****** ****** ****** ****** ****** ****** ****** ****** ****** ******
  17  ****** ****** ****** ****** ****** ****** ****** ****** ****** ******
      ****** ****** ****** ****** ****** ****** ****** ****** ****** ******
      ****** ****** ****** ****** ****** ****** ****** ****** ****** ******
  18  ****** ****** ****** ****** ****** ****** ****** ****** ****** ******
      ****** ****** ****** ****** ****** ****** ****** ****** ****** ******
      ****** ****** ****** ****** ****** ****** ****** ****** ****** ******
  19  ****** ****** ****** ****** ****** ****** ****** ****** ****** ******
      ****** ****** ****** ****** ****** ****** ****** ****** ****** ******
      ****** ****** ****** ****** ****** ****** ****** ****** ****** ******
  20  ****** ****** ****** ****** ****** ****** ****** ****** ****** ******
      ****** ****** ****** ****** ****** ****** ****** ****** ****** ******
      ****** ****** ****** ****** ****** ****** ****** ****** ****** ******
  21  ****** ****** ****** ****** ****** ****** ****** ****** ****** ******
      ****** ****** ****** ****** ****** ****** ****** ****** ****** ******
      ****** ****** ****** ****** ****** ****** ****** ****** ****** ******
  22  ****** ****** ****** ****** ****** ****** ****** ****** ****** ******
      ****** ****** ****** ****** ****** ****** ****** ****** ****** ******
      ****** ****** ****** ****** ****** ****** ****** ****** ****** ******
  23  ****** ****** ****** ****** ****** ****** ****** ****** ****** ******
      ****** ****** ****** ****** ****** ****** ****** ****** ****** ******
      ****** ****** ****** ****** ****** ****** ****** ****** ****** ******
  24  ****** ****** ****** ****** ****** ****** ****** ****** ****** ******
      ****** ****** ****** ****** ****** ****** ****** ****** ****** ******
      ****** ****** ****** ****** ****** ****** ****** ****** ****** ******
  25  ****** ****** ****** ****** ****** ****** ****** ****** ****** ******
      ****** ****** ****** ****** ****** ****** ****** ****** ****** ******
      ****** ****** ****** ****** ****** ****** ****** ****** ****** ******

 HEAD WILL BE SAVED ON UNIT   51 AT END OF TIME STEP    1, STRESS PERIOD    9
1
  VOLUMETRIC BUDGET FOR ENTIRE MODEL AT END OF TIME STEP    1, STRESS PERIOD   9
  ------------------------------------------------------------------------------

     CUMULATIVE VOLUMES      L**3       RATES FOR THIS TIME STEP      L**3/T
     ------------------                 ------------------------

           IN:                                      IN:
           ---                                      ---
             STORAGE =    25203712.4639               STORAGE =        2681.1347
       CONSTANT HEAD =   111414438.2512         CONSTANT HEAD =      146697.4136
               WELLS =           0.0000                 WELLS =           0.0000
            RECHARGE =    18878400.0000              RECHARGE =       13800.0000
      STREAM LEAKAGE =     9226034.1879        STREAM LEAKAGE =       12871.1533

            TOTAL IN =   164722584.9030              TOTAL IN =      176049.7016

          OUT:                                     OUT:
          ----                                     ----
             STORAGE =     1270678.6579               STORAGE =           0.0000
       CONSTANT HEAD =           0.0000         CONSTANT HEAD =           0.0000
               WELLS =    58647669.0145                 WELLS =       71347.5292
            RECHARGE =           0.0000              RECHARGE =           0.0000
      STREAM LEAKAGE =   104804238.1906        STREAM LEAKAGE =      104702.1755

           TOTAL OUT =   164722585.8629             TOTAL OUT =      176049.7047

            IN - OUT =          -0.9599              IN - OUT =      -3.0614E-03

 PERCENT DISCREPANCY =          -0.00     PERCENT DISCREPANCY =          -0.00






         TIME SUMMARY AT END OF TIME STEP    1 IN STRESS PERIOD    9
                    SECONDS     MINUTES      HOURS       DAYS        YEARS
                    -----------------------------------------------------------
   TIME STEP LENGTH 7.94880E+06 1.32480E+05  2208.0      92.000     0.25188    
 STRESS PERIOD TIME 7.94880E+06 1.32480E+05  2208.0      92.000     0.25188    
         TOTAL TIME 7.10208E+07 1.18368E+06  19728.      822.00      2.2505    
1
1
                            STRESS PERIOD NO.   10, LENGTH =   91.00000    
                            -----------------------------------------------

                              NUMBER OF TIME STEPS =     1

                               MULTIPLIER FOR DELT =     1.500

                            INITIAL TIME STEP SIZE =   91.00000    

 WELL NO.  LAYER   ROW   COL   STRESS RATE         
 --------------------------------------------------
      1      1     21     23     -0.1821E+05
      2      1     20     24     -0.1241E+05
      3      1     19     20     -0.2382E+05
      4      1     19     24     -0.1691E+05

      4 WELLS

                 RECHARGE =  2.000000E-03

 REUSING STREAM SEGMENT DATA FROM LAST STRESS PERIOD
 
 SOLVING FOR HEAD 


     7 CALLS TO PCG ROUTINE FOR TIME STEP   1 IN STRESS PERIOD   10
    26 TOTAL ITERATIONS

 OUTPUT CONTROL FOR STRESS PERIOD   10   TIME STEP    1
    SAVE BUDGET
    SAVE HEAD FOR ALL LAYERS
    PRINT HEAD FOR ALL LAYERS
 UBDSV2 SAVING "STREAMFLOW OUT  " ON UNIT  50 AT TIME STEP  1, STRESS PERIOD  10



 STREAM LISTING     PERIOD     10   STEP        1

 LAYER ROW COL. STREAM  RCH.  FLOW INTO     FLOW TO   FLOW OUT OF   OVRLND.     DIRECT     STREAM       STREAM     STREAM     STREAM   STREAMBED  STREAMBED
                SEG.NO.  NO.  STRM. RCH.    AQUIFER    STRM. RCH.    RUNOFF     PRECIP       ET          HEAD       DEPTH      WIDTH   CONDCTNC.   GRADIENT

   1   13    1     1     1    1.0000E+05 -3.1724E+03   1.0317E+05  0.000E+00  0.000E+00  0.000E+00  4.84074E+01  1.460E-01  2.000E+01  2.000E+04 -1.586E-01
   1   13    2     1     2    1.0317E+05 -5.2085E+03   1.0838E+05  0.000E+00  0.000E+00  0.000E+00  4.79337E+01  1.496E-01  2.000E+01  2.000E+04 -2.604E-01
   1   14    3     1     3    1.0838E+05 -4.2715E+03   1.1265E+05  0.000E+00  0.000E+00  0.000E+00  4.74604E+01  1.536E-01  2.000E+01  2.000E+04 -2.136E-01
   1   15    4     1     4    1.1265E+05 -4.1649E+03   1.1682E+05  0.000E+00  0.000E+00  0.000E+00  4.69866E+01  1.571E-01  2.000E+01  2.000E+04 -2.082E-01
   1   16    5     1     5    1.1682E+05 -4.4399E+03   1.2126E+05  0.000E+00  0.000E+00  0.000E+00  4.65129E+01  1.606E-01  2.000E+01  2.000E+04 -2.220E-01
   1   16    6     1     6    1.2126E+05 -3.5019E+03   1.2476E+05  0.000E+00  0.000E+00  0.000E+00  4.60388E+01  1.638E-01  2.000E+01  2.000E+04 -1.751E-01
   1   16    7     1     7    1.2476E+05 -3.5587E+03   1.2832E+05  0.000E+00  0.000E+00  0.000E+00  4.55643E+01  1.666E-01  2.000E+01  2.000E+04 -1.779E-01
   1   16    8     1     8    1.2832E+05 -3.5753E+03   1.3189E+05  0.000E+00  0.000E+00  0.000E+00  4.50898E+01  1.694E-01  2.000E+01  2.000E+04 -1.788E-01
   1   16    9     1     9    1.3189E+05 -3.5329E+03   1.3543E+05  0.000E+00  0.000E+00  0.000E+00  4.46153E+01  1.722E-01  2.000E+01  2.000E+04 -1.766E-01
   1   16   10     1    10    1.3543E+05 -3.4252E+03   1.3885E+05  0.000E+00  0.000E+00  0.000E+00  4.41407E+01  1.748E-01  2.000E+01  2.000E+04 -1.713E-01
   1   16   11     1    11    1.3885E+05 -3.2495E+03   1.4210E+05  0.000E+00  0.000E+00  0.000E+00  4.36660E+01  1.774E-01  2.000E+01  2.000E+04 -1.625E-01
   1   16   12     1    12    1.4210E+05 -3.7212E+03   1.4582E+05  0.000E+00  0.000E+00  0.000E+00  4.31914E+01  1.800E-01  2.000E+01  2.000E+04 -1.861E-01
   1   15   13     1    13    1.4582E+05 -3.4073E+03   1.4923E+05  0.000E+00  0.000E+00  0.000E+00  4.27168E+01  1.827E-01  2.000E+01  2.000E+04 -1.704E-01
   1   14   14     1    14    1.4923E+05 -3.4649E+03   1.5269E+05  0.000E+00  0.000E+00  0.000E+00  4.22420E+01  1.852E-01  2.000E+01  2.000E+04 -1.732E-01
   1   13   15     1    15    1.5269E+05 -3.8915E+03   1.5659E+05  0.000E+00  0.000E+00  0.000E+00  4.17674E+01  1.879E-01  2.000E+01  2.000E+04 -1.946E-01
   1   12   16     1    16    1.5659E+05 -5.5106E+03   1.6210E+05  0.000E+00  0.000E+00  0.000E+00  4.12936E+01  1.913E-01  2.000E+01  2.000E+04 -2.755E-01
   1   12   17     1    17    1.6210E+05 -3.3618E+03   1.6546E+05  0.000E+00  0.000E+00  0.000E+00  4.08195E+01  1.945E-01  2.000E+01  2.000E+04 -1.681E-01
   1   12   18     1    18    1.6546E+05 -3.1526E+03   1.6861E+05  0.000E+00  0.000E+00  0.000E+00  4.03445E+01  1.968E-01  2.000E+01  2.000E+04 -1.576E-01
   1   12   19     1    19    1.6861E+05 -4.3733E+03   1.7298E+05  0.000E+00  0.000E+00  0.000E+00  3.98699E+01  1.994E-01  2.000E+01  2.000E+04 -2.187E-01
   1   13   20     1    20    1.7298E+05 -1.8452E+03   1.7483E+05  0.000E+00  0.000E+00  0.000E+00  3.93948E+01  2.016E-01  2.000E+01  2.000E+04 -9.226E-02
   1   14   21     1    21    1.7483E+05  5.5351E+02   1.7428E+05  0.000E+00  0.000E+00  0.000E+00  3.89180E+01  2.021E-01  2.000E+01  2.000E+04  2.768E-02
   1   14   22     1    22    1.7428E+05  5.5212E+03   1.6875E+05  0.000E+00  0.000E+00  0.000E+00  3.84386E+01  1.999E-01  2.000E+01  2.000E+04  2.761E-01
   1    9   30     2     1    5.0000E+04 -3.0361E+03   5.3036E+04  0.000E+00  0.000E+00  0.000E+00  4.02430E+01  1.180E-01  2.000E+01  2.000E+04 -1.518E-01
   1    9   29     2     2    5.3036E+04 -3.3662E+03   5.6402E+04  0.000E+00  0.000E+00  0.000E+00  3.99973E+01  1.223E-01  2.000E+01  2.000E+04 -1.683E-01
   1    9   28     2     3    5.6402E+04 -3.7463E+03   6.0149E+04  0.000E+00  0.000E+00  0.000E+00  3.97520E+01  1.270E-01  2.000E+01  2.000E+04 -1.873E-01
   1    9   27     2     4    6.0149E+04 -6.5659E+03   6.6714E+04  0.000E+00  0.000E+00  0.000E+00  3.95086E+01  1.336E-01  2.000E+01  2.000E+04 -3.283E-01
   1   10   26     2     5    6.6714E+04 -4.2017E+03   7.0916E+04  0.000E+00  0.000E+00  0.000E+00  3.92653E+01  1.403E-01  2.000E+01  2.000E+04 -2.101E-01
   1   11   25     2     6    7.0916E+04 -3.1351E+03   7.4051E+04  0.000E+00  0.000E+00  0.000E+00  3.90198E+01  1.448E-01  2.000E+01  2.000E+04 -1.568E-01
   1   12   24     2     7    7.4051E+04 -2.2363E+03   7.6288E+04  0.000E+00  0.000E+00  0.000E+00  3.87730E+01  1.480E-01  2.000E+01  2.000E+04 -1.118E-01
   1   13   23     2     8    7.6288E+04 -1.3075E+03   7.7595E+04  0.000E+00  0.000E+00  0.000E+00  3.85251E+01  1.501E-01  2.000E+01  2.000E+04 -6.537E-02
   1   14   22     2     9    7.7595E+04  2.2399E+03   7.5355E+04  0.000E+00  0.000E+00  0.000E+00  3.82745E+01  1.495E-01  2.000E+01  2.000E+04  1.120E-01
   1   14   22     3     1    2.4411E+05 -7.9982E+03   2.5211E+05  0.000E+00  0.000E+00  0.000E+00  3.77626E+01  2.071E-01  2.000E+01  2.000E+04 -3.999E-01
   1   15   23     3     2    2.5211E+05  1.7640E+03   2.5034E+05  0.000E+00  0.000E+00  0.000E+00  3.68753E+01  2.086E-01  2.000E+01  2.000E+04  8.820E-02
   1   15   24     3     3    2.5034E+05  8.5698E+02   2.4949E+05  0.000E+00  0.000E+00  0.000E+00  3.59857E+01  2.080E-01  2.000E+01  2.000E+04  4.285E-02
   1   15   25     3     4    2.4949E+05  2.6275E+02   2.4922E+05  0.000E+00  0.000E+00  0.000E+00  3.50966E+01  2.077E-01  2.000E+01  2.000E+04  1.314E-02
   1   15   26     3     5    2.4922E+05 -1.0577E+03   2.5028E+05  0.000E+00  0.000E+00  0.000E+00  3.42079E+01  2.079E-01  2.000E+01  2.000E+04 -5.289E-02
   1   16   27     3     6    2.5028E+05 -4.4935E+02   2.5073E+05  0.000E+00  0.000E+00  0.000E+00  3.33194E+01  2.083E-01  2.000E+01  2.000E+04 -2.247E-02
   1   17   28     3     7    2.5073E+05 -1.1732E+03   2.5190E+05  0.000E+00  0.000E+00  0.000E+00  3.24309E+01  2.087E-01  2.000E+01  2.000E+04 -5.866E-02
   1   18   29     3     8    2.5190E+05 -2.9529E+03   2.5486E+05  0.000E+00  0.000E+00  0.000E+00  3.15430E+01  2.097E-01  2.000E+01  2.000E+04 -1.476E-01
   1   18   30     3     9    2.5486E+05 -3.7860E+03   2.5864E+05  0.000E+00  0.000E+00  0.000E+00  3.06558E+01  2.114E-01  2.000E+01  2.000E+04 -1.893E-01



1
              HEAD IN LAYER   1 AT END OF TIME STEP   1 IN STRESS PERIOD   10
  ---------------------------------------------------------------------------

          1      2      3      4      5      6      7      8      9     10
         11     12     13     14     15     16     17     18     19     20
         21     22     23     24     25     26     27     28     29     30
 .........................................................................
   1  ****** ****** ****** ****** ****** ****** ****** ****** ****** ******
      ****** ****** ****** ****** ****** ****** ****** ****** ****** ******
      ****** ****** ****** ****** ****** ****** ****** ****** ****** ******
   2  ****** ****** ****** ****** ****** ****** ****** ****** ****** ******
      ****** ****** ****** ****** ****** ****** ****** ****** ****** ******
      ****** ****** ****** ****** ****** ****** ****** ****** ****** ******
   3  ****** ****** ****** ****** ****** ****** ****** ****** ****** ******
      ****** ****** ****** ****** ****** ****** ****** ****** ****** ******
      ****** ****** ****** ****** ****** ****** ****** ****** ****** ******
   4  ****** ****** ****** ****** ****** ****** ****** ****** ****** ******
      ****** ****** ****** ****** ****** ****** ****** ****** ****** ******
      ****** ****** ****** ****** ****** ****** ****** ****** ****** ******
   5  ****** ****** ****** ****** ****** ****** ****** ****** ****** ******
      ****** ****** ****** ****** ****** ****** ****** ****** ****** ******
      ****** ****** ****** ****** ****** ****** ****** ****** ****** ******
   6  ****** ****** ****** ****** ****** ****** ****** ****** ****** ******
      ****** ****** ****** ****** ****** ****** ****** ****** ****** ******
      ****** ****** ****** ****** ****** ****** ****** ****** ****** ******
   7  ****** ****** ****** ****** ****** ****** ****** ****** ****** ******
      ****** ****** ****** ****** ****** ****** ****** ****** ****** ******
      ****** ****** ****** ****** ****** ****** ****** ****** ****** ******
   8  ****** ****** ****** ****** ****** ****** ****** ****** ****** ******
      ****** ****** ****** ****** ****** ****** ****** ****** ****** ******
      ****** ****** ****** ****** ****** ****** ****** ****** ****** ******
   9  ****** ****** ****** ****** ****** ****** ****** ****** ****** ******
      ****** ****** ****** ****** ****** ****** ****** ****** ****** ******
      ****** ****** ****** ****** ****** ****** ****** ****** ****** ******
  10  ****** ****** ****** ****** ****** ****** ****** ****** ****** ******
      ****** ****** ****** ****** ****** ****** ****** ****** ****** ******
      ****** ****** ****** ****** ****** ****** ****** ****** ****** ******
  11  ****** ****** ****** ****** ****** ****** ****** ****** ****** ******
      ****** ****** ****** ****** ****** ****** ****** ****** ****** ******
      ****** ****** ****** ****** ****** ****** ****** ****** ****** ******
  12  ****** ****** ****** ****** ****** ****** ****** ****** ****** ******
      ****** ****** ****** ****** ****** ****** ****** ****** ****** ******
      ****** ****** ****** ****** ****** ****** ****** ****** ****** ******
  13  ****** ****** ****** ****** ****** ****** ****** ****** ****** ******
      ****** ****** ****** ****** ****** ****** ****** ****** ****** ******
      ****** ****** ****** ****** ****** ****** ****** ****** ****** ******
  14  ****** ****** ****** ****** ****** ****** ****** ****** ****** ******
      ****** ****** ****** ****** ****** ****** ****** ****** ****** ******
      ****** ****** ****** ****** ****** ****** ****** ****** ****** ******
  15  ****** ****** ****** ****** ****** ****** ****** ****** ****** ******
      ****** ****** ****** ****** ****** ****** ****** ****** ****** ******
      ****** ****** ****** ****** ****** ****** ****** ****** ****** ******
  16  ****** ****** ****** ****** ****** ****** ****** ****** ****** ******
      ****** ****** ****** ****** ****** ****** ****** ****** ****** ******
      ****** ****** ****** ****** ****** ****** ****** ****** ****** ******
  17  ****** ****** ****** ****** ****** ****** ****** ****** ****** ******
      ****** ****** ****** ****** ****** ****** ****** ****** ****** ******
      ****** ****** ****** ****** ****** ****** ****** ****** ****** ******
  18  ****** ****** ****** ****** ****** ****** ****** ****** ****** ******
      ****** ****** ****** ****** ****** ****** ****** ****** ****** ******
      ****** ****** ****** ****** ****** ****** ****** ****** ****** ******
  19  ****** ****** ****** ****** ****** ****** ****** ****** ****** ******
      ****** ****** ****** ****** ****** ****** ****** ****** ****** ******
      ****** ****** ****** ****** ****** ****** ****** ****** ****** ******
  20  ****** ****** ****** ****** ****** ****** ****** ****** ****** ******
      ****** ****** ****** ****** ****** ****** ****** ****** ****** ******
      ****** ****** ****** ****** ****** ****** ****** ****** ****** ******
  21  ****** ****** ****** ****** ****** ****** ****** ****** ****** ******
      ****** ****** ****** ****** ****** ****** ****** ****** ****** ******
      ****** ****** ****** ****** ****** ****** ****** ****** ****** ******
  22  ****** ****** ****** ****** ****** ****** ****** ****** ****** ******
      ****** ****** ****** ****** ****** ****** ****** ****** ****** ******
      ****** ****** ****** ****** ****** ****** ****** ****** ****** ******
  23  ****** ****** ****** ****** ****** ****** ****** ****** ****** ******
      ****** ****** ****** ****** ****** ****** ****** ****** ****** ******
      ****** ****** ****** ****** ****** ****** ****** ****** ****** ******
  24  ****** ****** ****** ****** ****** ****** ****** ****** ****** ******
      ****** ****** ****** ****** ****** ****** ****** ****** ****** ******
      ****** ****** ****** ****** ****** ****** ****** ****** ****** ******
  25  ****** ****** ****** ****** ****** ****** ****** ****** ****** ******
      ****** ****** ****** ****** ****** ****** ****** ****** ****** ******
      ****** ****** ****** ****** ****** ****** ****** ****** ****** ******

 HEAD WILL BE SAVED ON UNIT   51 AT END OF TIME STEP    1, STRESS PERIOD   10
1
  VOLUMETRIC BUDGET FOR ENTIRE MODEL AT END OF TIME STEP    1, STRESS PERIOD  10
  ------------------------------------------------------------------------------

     CUMULATIVE VOLUMES      L**3       RATES FOR THIS TIME STEP      L**3/T
     ------------------                 ------------------------

           IN:                                      IN:
           ---                                      ---
             STORAGE =    25203712.4639               STORAGE =           0.0000
       CONSTANT HEAD =   123749368.0405         CONSTANT HEAD =      135548.6790
               WELLS =           0.0000                 WELLS =           0.0000
            RECHARGE =    23901600.0000              RECHARGE =       55200.0000
      STREAM LEAKAGE =    10245088.9357        STREAM LEAKAGE =       11198.4038

            TOTAL IN =   183099769.4400              TOTAL IN =      201947.0828

          OUT:                                     OUT:
          ----                                     ----
             STORAGE =     2249695.3624               STORAGE =       10758.4253
       CONSTANT HEAD =           0.0000         CONSTANT HEAD =           0.0000
               WELLS =    65140294.1730                 WELLS =       71347.5292
            RECHARGE =           0.0000              RECHARGE =           0.0000
      STREAM LEAKAGE =   115709780.7084        STREAM LEAKAGE =      119841.1266

           TOTAL OUT =   183099770.2437             TOTAL OUT =      201947.0811

            IN - OUT =          -0.8037              IN - OUT =       1.7167E-03

 PERCENT DISCREPANCY =          -0.00     PERCENT DISCREPANCY =           0.00






         TIME SUMMARY AT END OF TIME STEP    1 IN STRESS PERIOD   10
                    SECONDS     MINUTES      HOURS       DAYS        YEARS
                    -----------------------------------------------------------
   TIME STEP LENGTH 7.86240E+06 1.31040E+05  2184.0      91.000     0.24914    
 STRESS PERIOD TIME 7.86240E+06 1.31040E+05  2184.0      91.000     0.24914    
         TOTAL TIME 7.88832E+07 1.31472E+06  21912.      913.00      2.4997    
1
1
                            STRESS PERIOD NO.   11, LENGTH =   91.00000    
                            -----------------------------------------------

                              NUMBER OF TIME STEPS =     1

                               MULTIPLIER FOR DELT =     1.500

                            INITIAL TIME STEP SIZE =   91.00000    

 WELL NO.  LAYER   ROW   COL   STRESS RATE         
 --------------------------------------------------
      1      1     21     23     -0.1821E+05
      2      1     20     24     -0.1241E+05
      3      1     19     20     -0.2382E+05
      4      1     19     24     -0.1691E+05

      4 WELLS

                 RECHARGE =   0.00000    

 REUSING STREAM SEGMENT DATA FROM LAST STRESS PERIOD
 
 SOLVING FOR HEAD 


     7 CALLS TO PCG ROUTINE FOR TIME STEP   1 IN STRESS PERIOD   11
    26 TOTAL ITERATIONS

 OUTPUT CONTROL FOR STRESS PERIOD   11   TIME STEP    1
    SAVE BUDGET
    SAVE HEAD FOR ALL LAYERS
    PRINT HEAD FOR ALL LAYERS
 UBDSV2 SAVING "STREAMFLOW OUT  " ON UNIT  50 AT TIME STEP  1, STRESS PERIOD  11



 STREAM LISTING     PERIOD     11   STEP        1

 LAYER ROW COL. STREAM  RCH.  FLOW INTO     FLOW TO   FLOW OUT OF   OVRLND.     DIRECT     STREAM       STREAM     STREAM     STREAM   STREAMBED  STREAMBED
                SEG.NO.  NO.  STRM. RCH.    AQUIFER    STRM. RCH.    RUNOFF     PRECIP       ET          HEAD       DEPTH      WIDTH   CONDCTNC.   GRADIENT

   1   13    1     1     1    1.0000E+05 -2.6882E+03   1.0269E+05  0.000E+00  0.000E+00  0.000E+00  4.84072E+01  1.458E-01  2.000E+01  2.000E+04 -1.344E-01
   1   13    2     1     2    1.0269E+05 -4.5755E+03   1.0726E+05  0.000E+00  0.000E+00  0.000E+00  4.79330E+01  1.489E-01  2.000E+01  2.000E+04 -2.288E-01
   1   14    3     1     3    1.0726E+05 -3.6166E+03   1.1088E+05  0.000E+00  0.000E+00  0.000E+00  4.74592E+01  1.524E-01  2.000E+01  2.000E+04 -1.808E-01
   1   15    4     1     4    1.1088E+05 -3.5133E+03   1.1439E+05  0.000E+00  0.000E+00  0.000E+00  4.69849E+01  1.554E-01  2.000E+01  2.000E+04 -1.757E-01
   1   16    5     1     5    1.1439E+05 -3.8383E+03   1.1823E+05  0.000E+00  0.000E+00  0.000E+00  4.65107E+01  1.584E-01  2.000E+01  2.000E+04 -1.919E-01
   1   16    6     1     6    1.1823E+05 -3.0260E+03   1.2126E+05  0.000E+00  0.000E+00  0.000E+00  4.60362E+01  1.612E-01  2.000E+01  2.000E+04 -1.513E-01
   1   16    7     1     7    1.2126E+05 -3.0760E+03   1.2433E+05  0.000E+00  0.000E+00  0.000E+00  4.55613E+01  1.636E-01  2.000E+01  2.000E+04 -1.538E-01
   1   16    8     1     8    1.2433E+05 -3.0886E+03   1.2742E+05  0.000E+00  0.000E+00  0.000E+00  4.50865E+01  1.661E-01  2.000E+01  2.000E+04 -1.544E-01
   1   16    9     1     9    1.2742E+05 -3.0462E+03   1.3047E+05  0.000E+00  0.000E+00  0.000E+00  4.46117E+01  1.685E-01  2.000E+01  2.000E+04 -1.523E-01
   1   16   10     1    10    1.3047E+05 -2.9427E+03   1.3341E+05  0.000E+00  0.000E+00  0.000E+00  4.41367E+01  1.708E-01  2.000E+01  2.000E+04 -1.471E-01
   1   16   11     1    11    1.3341E+05 -2.7732E+03   1.3618E+05  0.000E+00  0.000E+00  0.000E+00  4.36617E+01  1.730E-01  2.000E+01  2.000E+04 -1.387E-01
   1   16   12     1    12    1.3618E+05 -3.1115E+03   1.3930E+05  0.000E+00  0.000E+00  0.000E+00  4.31867E+01  1.753E-01  2.000E+01  2.000E+04 -1.556E-01
   1   15   13     1    13    1.3930E+05 -2.7435E+03   1.4204E+05  0.000E+00  0.000E+00  0.000E+00  4.27116E+01  1.775E-01  2.000E+01  2.000E+04 -1.372E-01
   1   14   14     1    14    1.4204E+05 -2.7900E+03   1.4483E+05  0.000E+00  0.000E+00  0.000E+00  4.22364E+01  1.796E-01  2.000E+01  2.000E+04 -1.395E-01
   1   13   15     1    15    1.4483E+05 -3.2286E+03   1.4806E+05  0.000E+00  0.000E+00  0.000E+00  4.17614E+01  1.819E-01  2.000E+01  2.000E+04 -1.614E-01
   1   12   16     1    16    1.4806E+05 -4.8831E+03   1.5294E+05  0.000E+00  0.000E+00  0.000E+00  4.12871E+01  1.849E-01  2.000E+01  2.000E+04 -2.442E-01
   1   12   17     1    17    1.5294E+05 -2.8884E+03   1.5583E+05  0.000E+00  0.000E+00  0.000E+00  4.08127E+01  1.877E-01  2.000E+01  2.000E+04 -1.444E-01
   1   12   18     1    18    1.5583E+05 -2.6857E+03   1.5852E+05  0.000E+00  0.000E+00  0.000E+00  4.03375E+01  1.897E-01  2.000E+01  2.000E+04 -1.343E-01
   1   12   19     1    19    1.5852E+05 -3.8042E+03   1.6232E+05  0.000E+00  0.000E+00  0.000E+00  3.98625E+01  1.921E-01  2.000E+01  2.000E+04 -1.902E-01
   1   13   20     1    20    1.6232E+05 -1.2821E+03   1.6360E+05  0.000E+00  0.000E+00  0.000E+00  3.93871E+01  1.939E-01  2.000E+01  2.000E+04 -6.411E-02
   1   14   21     1    21    1.6360E+05  1.0688E+03   1.6253E+05  0.000E+00  0.000E+00  0.000E+00  3.89099E+01  1.940E-01  2.000E+01  2.000E+04  5.344E-02
   1   14   22     1    22    1.6253E+05  5.6218E+03   1.5691E+05  0.000E+00  0.000E+00  0.000E+00  3.84302E+01  1.916E-01  2.000E+01  2.000E+04  2.811E-01
   1    9   30     2     1    5.0000E+04 -2.5946E+03   5.2595E+04  0.000E+00  0.000E+00  0.000E+00  4.02427E+01  1.177E-01  2.000E+01  2.000E+04 -1.297E-01
   1    9   29     2     2    5.2595E+04 -2.9285E+03   5.5523E+04  0.000E+00  0.000E+00  0.000E+00  3.99964E+01  1.214E-01  2.000E+01  2.000E+04 -1.464E-01
   1    9   28     2     3    5.5523E+04 -3.3121E+03   5.8835E+04  0.000E+00  0.000E+00  0.000E+00  3.97506E+01  1.256E-01  2.000E+01  2.000E+04 -1.656E-01
   1    9   27     2     4    5.8835E+04 -5.9942E+03   6.4829E+04  0.000E+00  0.000E+00  0.000E+00  3.95066E+01  1.316E-01  2.000E+01  2.000E+04 -2.997E-01
   1   10   26     2     5    6.4829E+04 -3.6040E+03   6.8434E+04  0.000E+00  0.000E+00  0.000E+00  3.92627E+01  1.377E-01  2.000E+01  2.000E+04 -1.802E-01
   1   11   25     2     6    6.8434E+04 -2.5607E+03   7.0994E+04  0.000E+00  0.000E+00  0.000E+00  3.90164E+01  1.414E-01  2.000E+01  2.000E+04 -1.280E-01
   1   12   24     2     7    7.0994E+04 -1.7251E+03   7.2719E+04  0.000E+00  0.000E+00  0.000E+00  3.87690E+01  1.440E-01  2.000E+01  2.000E+04 -8.625E-02
   1   13   23     2     8    7.2719E+04 -9.0456E+02   7.3624E+04  0.000E+00  0.000E+00  0.000E+00  3.85206E+01  1.456E-01  2.000E+01  2.000E+04 -4.523E-02
   1   14   22     2     9    7.3624E+04  2.4116E+03   7.1212E+04  0.000E+00  0.000E+00  0.000E+00  3.82697E+01  1.447E-01  2.000E+01  2.000E+04  1.206E-01
   1   14   22     3     1    2.2812E+05 -7.8930E+03   2.3602E+05  0.000E+00  0.000E+00  0.000E+00  3.77545E+01  1.989E-01  2.000E+01  2.000E+04 -3.946E-01
   1   15   23     3     2    2.3602E+05  2.2457E+03   2.3377E+05  0.000E+00  0.000E+00  0.000E+00  3.68670E+01  2.004E-01  2.000E+01  2.000E+04  1.123E-01
   1   15   24     3     3    2.3377E+05  1.2121E+03   2.3256E+05  0.000E+00  0.000E+00  0.000E+00  3.59773E+01  1.995E-01  2.000E+01  2.000E+04  6.060E-02
   1   15   25     3     4    2.3256E+05  6.2149E+02   2.3194E+05  0.000E+00  0.000E+00  0.000E+00  3.50879E+01  1.990E-01  2.000E+01  2.000E+04  3.107E-02
   1   15   26     3     5    2.3194E+05 -5.9347E+02   2.3253E+05  0.000E+00  0.000E+00  0.000E+00  3.41990E+01  1.990E-01  2.000E+01  2.000E+04 -2.967E-02
   1   16   27     3     6    2.3253E+05  1.2685E+02   2.3240E+05  0.000E+00  0.000E+00  0.000E+00  3.33102E+01  1.991E-01  2.000E+01  2.000E+04  6.342E-03
   1   17   28     3     7    2.3240E+05 -5.8645E+02   2.3299E+05  0.000E+00  0.000E+00  0.000E+00  3.24215E+01  1.992E-01  2.000E+01  2.000E+04 -2.932E-02
   1   18   29     3     8    2.3299E+05 -2.4060E+03   2.3540E+05  0.000E+00  0.000E+00  0.000E+00  3.15333E+01  2.000E-01  2.000E+01  2.000E+04 -1.203E-01
   1   18   30     3     9    2.3540E+05 -3.3690E+03   2.3877E+05  0.000E+00  0.000E+00  0.000E+00  3.06459E+01  2.015E-01  2.000E+01  2.000E+04 -1.685E-01



1
              HEAD IN LAYER   1 AT END OF TIME STEP   1 IN STRESS PERIOD   11
  ---------------------------------------------------------------------------

          1      2      3      4      5      6      7      8      9     10
         11     12     13     14     15     16     17     18     19     20
         21     22     23     24     25     26     27     28     29     30
 .........................................................................
   1  ****** ****** ****** ****** ****** ****** ****** ****** ****** ******
      ****** ****** ****** ****** ****** ****** ****** ****** ****** ******
      ****** ****** ****** ****** ****** ****** ****** ****** ****** ******
   2  ****** ****** ****** ****** ****** ****** ****** ****** ****** ******
      ****** ****** ****** ****** ****** ****** ****** ****** ****** ******
      ****** ****** ****** ****** ****** ****** ****** ****** ****** ******
   3  ****** ****** ****** ****** ****** ****** ****** ****** ****** ******
      ****** ****** ****** ****** ****** ****** ****** ****** ****** ******
      ****** ****** ****** ****** ****** ****** ****** ****** ****** ******
   4  ****** ****** ****** ****** ****** ****** ****** ****** ****** ******
      ****** ****** ****** ****** ****** ****** ****** ****** ****** ******
      ****** ****** ****** ****** ****** ****** ****** ****** ****** ******
   5  ****** ****** ****** ****** ****** ****** ****** ****** ****** ******
      ****** ****** ****** ****** ****** ****** ****** ****** ****** ******
      ****** ****** ****** ****** ****** ****** ****** ****** ****** ******
   6  ****** ****** ****** ****** ****** ****** ****** ****** ****** ******
      ****** ****** ****** ****** ****** ****** ****** ****** ****** ******
      ****** ****** ****** ****** ****** ****** ****** ****** ****** ******
   7  ****** ****** ****** ****** ****** ****** ****** ****** ****** ******
      ****** ****** ****** ****** ****** ****** ****** ****** ****** ******
      ****** ****** ****** ****** ****** ****** ****** ****** ****** ******
   8  ****** ****** ****** ****** ****** ****** ****** ****** ****** ******
      ****** ****** ****** ****** ****** ****** ****** ****** ****** ******
      ****** ****** ****** ****** ****** ****** ****** ****** ****** ******
   9  ****** ****** ****** ****** ****** ****** ****** ****** ****** ******
      ****** ****** ****** ****** ****** ****** ****** ****** ****** ******
      ****** ****** ****** ****** ****** ****** ****** ****** ****** ******
  10  ****** ****** ****** ****** ****** ****** ****** ****** ****** ******
      ****** ****** ****** ****** ****** ****** ****** ****** ****** ******
      ****** ****** ****** ****** ****** ****** ****** ****** ****** ******
  11  ****** ****** ****** ****** ****** ****** ****** ****** ****** ******
      ****** ****** ****** ****** ****** ****** ****** ****** ****** ******
      ****** ****** ****** ****** ****** ****** ****** ****** ****** ******
  12  ****** ****** ****** ****** ****** ****** ****** ****** ****** ******
      ****** ****** ****** ****** ****** ****** ****** ****** ****** ******
      ****** ****** ****** ****** ****** ****** ****** ****** ****** ******
  13  ****** ****** ****** ****** ****** ****** ****** ****** ****** ******
      ****** ****** ****** ****** ****** ****** ****** ****** ****** ******
      ****** ****** ****** ****** ****** ****** ****** ****** ****** ******
  14  ****** ****** ****** ****** ****** ****** ****** ****** ****** ******
      ****** ****** ****** ****** ****** ****** ****** ****** ****** ******
      ****** ****** ****** ****** ****** ****** ****** ****** ****** ******
  15  ****** ****** ****** ****** ****** ****** ****** ****** ****** ******
      ****** ****** ****** ****** ****** ****** ****** ****** ****** ******
      ****** ****** ****** ****** ****** ****** ****** ****** ****** ******
  16  ****** ****** ****** ****** ****** ****** ****** ****** ****** ******
      ****** ****** ****** ****** ****** ****** ****** ****** ****** ******
      ****** ****** ****** ****** ****** ****** ****** ****** ****** ******
  17  ****** ****** ****** ****** ****** ****** ****** ****** ****** ******
      ****** ****** ****** ****** ****** ****** ****** ****** ****** ******
      ****** ****** ****** ****** ****** ****** ****** ****** ****** ******
  18  ****** ****** ****** ****** ****** ****** ****** ****** ****** ******
      ****** ****** ****** ****** ****** ****** ****** ****** ****** ******
      ****** ****** ****** ****** ****** ****** ****** ****** ****** ******
  19  ****** ****** ****** ****** ****** ****** ****** ****** ****** ******
      ****** ****** ****** ****** ****** ****** ****** ****** ****** ******
      ****** ****** ****** ****** ****** ****** ****** ****** ****** ******
  20  ****** ****** ****** ****** ****** ****** ****** ****** ****** ******
      ****** ****** ****** ****** ****** ****** ****** ****** ****** ******
      ****** ****** ****** ****** ****** ****** ****** ****** ****** ******
  21  ****** ****** ****** ****** ****** ****** ****** ****** ****** ******
      ****** ****** ****** ****** ****** ****** ****** ****** ****** ******
      ****** ****** ****** ****** ****** ****** ****** ****** ****** ******
  22  ****** ****** ****** ****** ****** ****** ****** ****** ****** ******
      ****** ****** ****** ****** ****** ****** ****** ****** ****** ******
      ****** ****** ****** ****** ****** ****** ****** ****** ****** ******
  23  ****** ****** ****** ****** ****** ****** ****** ****** ****** ******
      ****** ****** ****** ****** ****** ****** ****** ****** ****** ******
      ****** ****** ****** ****** ****** ****** ****** ****** ****** ******
  24  ****** ****** ****** ****** ****** ****** ****** ****** ****** ******
      ****** ****** ****** ****** ****** ****** ****** ****** ****** ******
      ****** ****** ****** ****** ****** ****** ****** ****** ****** ******
  25  ****** ****** ****** ****** ****** ****** ****** ****** ****** ******
      ****** ****** ****** ****** ****** ****** ****** ****** ****** ******
      ****** ****** ****** ****** ****** ****** ****** ****** ****** ******

 HEAD WILL BE SAVED ON UNIT   51 AT END OF TIME STEP    1, STRESS PERIOD   11
1
  VOLUMETRIC BUDGET FOR ENTIRE MODEL AT END OF TIME STEP    1, STRESS PERIOD  11
  ------------------------------------------------------------------------------

     CUMULATIVE VOLUMES      L**3       RATES FOR THIS TIME STEP      L**3/T
     ------------------                 ------------------------

           IN:                                      IN:
           ---                                      ---
             STORAGE =    26282023.7208               STORAGE =       11849.5743
       CONSTANT HEAD =   137241301.8147         CONSTANT HEAD =      148263.0085
               WELLS =           0.0000                 WELLS =           0.0000
            RECHARGE =    23901600.0000              RECHARGE =           0.0000
      STREAM LEAKAGE =    11456152.5367        STREAM LEAKAGE =       13308.3912

            TOTAL IN =   198881078.0723              TOTAL IN =      173420.9740

          OUT:                                     OUT:
          ----                                     ----
             STORAGE =     2249695.3624               STORAGE =           0.0000
       CONSTANT HEAD =           0.0000         CONSTANT HEAD =           0.0000
               WELLS =    71632919.3315                 WELLS =       71347.5292
            RECHARGE =           0.0000              RECHARGE =           0.0000
      STREAM LEAKAGE =   124998464.3746        STREAM LEAKAGE =      102073.4469

           TOTAL OUT =   198881079.0684             TOTAL OUT =      173420.9761

            IN - OUT =          -0.9962              IN - OUT =      -2.1150E-03

 PERCENT DISCREPANCY =          -0.00     PERCENT DISCREPANCY =          -0.00






         TIME SUMMARY AT END OF TIME STEP    1 IN STRESS PERIOD   11
                    SECONDS     MINUTES      HOURS       DAYS        YEARS
                    -----------------------------------------------------------
   TIME STEP LENGTH 7.86240E+06 1.31040E+05  2184.0      91.000     0.24914    
 STRESS PERIOD TIME 7.86240E+06 1.31040E+05  2184.0      91.000     0.24914    
         TOTAL TIME 8.67456E+07 1.44576E+06  24096.      1004.0      2.7488    
1
1
                            STRESS PERIOD NO.   12, LENGTH =   91.00000    
                            -----------------------------------------------

                              NUMBER OF TIME STEPS =     1

                               MULTIPLIER FOR DELT =     1.500

                            INITIAL TIME STEP SIZE =   91.00000    

 WELL NO.  LAYER   ROW   COL   STRESS RATE         
 --------------------------------------------------
      1      1     21     23     -0.1821E+05
      2      1     20     24     -0.1241E+05
      3      1     19     20     -0.2382E+05
      4      1     19     24     -0.1691E+05

      4 WELLS

                 RECHARGE =  1.000000E-03

 REUSING STREAM SEGMENT DATA FROM LAST STRESS PERIOD
 
 SOLVING FOR HEAD 


     6 CALLS TO PCG ROUTINE FOR TIME STEP   1 IN STRESS PERIOD   12
    23 TOTAL ITERATIONS

 OUTPUT CONTROL FOR STRESS PERIOD   12   TIME STEP    1
    SAVE BUDGET
    SAVE HEAD FOR ALL LAYERS
    PRINT HEAD FOR ALL LAYERS
 UBDSV2 SAVING "STREAMFLOW OUT  " ON UNIT  50 AT TIME STEP  1, STRESS PERIOD  12



 STREAM LISTING     PERIOD     12   STEP        1

 LAYER ROW COL. STREAM  RCH.  FLOW INTO     FLOW TO   FLOW OUT OF   OVRLND.     DIRECT     STREAM       STREAM     STREAM     STREAM   STREAMBED  STREAMBED
                SEG.NO.  NO.  STRM. RCH.    AQUIFER    STRM. RCH.    RUNOFF     PRECIP       ET          HEAD       DEPTH      WIDTH   CONDCTNC.   GRADIENT

   1   13    1     1     1    1.0000E+05 -2.8617E+03   1.0286E+05  0.000E+00  0.000E+00  0.000E+00  4.84073E+01  1.459E-01  2.000E+01  2.000E+04 -1.431E-01
   1   13    2     1     2    1.0286E+05 -4.7935E+03   1.0766E+05  0.000E+00  0.000E+00  0.000E+00  4.79333E+01  1.492E-01  2.000E+01  2.000E+04 -2.397E-01
   1   14    3     1     3    1.0766E+05 -3.8557E+03   1.1151E+05  0.000E+00  0.000E+00  0.000E+00  4.74596E+01  1.528E-01  2.000E+01  2.000E+04 -1.928E-01
   1   15    4     1     4    1.1151E+05 -3.7544E+03   1.1527E+05  0.000E+00  0.000E+00  0.000E+00  4.69855E+01  1.560E-01  2.000E+01  2.000E+04 -1.877E-01
   1   16    5     1     5    1.1527E+05 -4.0608E+03   1.1933E+05  0.000E+00  0.000E+00  0.000E+00  4.65115E+01  1.592E-01  2.000E+01  2.000E+04 -2.030E-01
   1   16    6     1     6    1.1933E+05 -3.2032E+03   1.2253E+05  0.000E+00  0.000E+00  0.000E+00  4.60371E+01  1.621E-01  2.000E+01  2.000E+04 -1.602E-01
   1   16    7     1     7    1.2253E+05 -3.2550E+03   1.2578E+05  0.000E+00  0.000E+00  0.000E+00  4.55624E+01  1.647E-01  2.000E+01  2.000E+04 -1.628E-01
   1   16    8     1     8    1.2578E+05 -3.2687E+03   1.2905E+05  0.000E+00  0.000E+00  0.000E+00  4.50877E+01  1.673E-01  2.000E+01  2.000E+04 -1.634E-01
   1   16    9     1     9    1.2905E+05 -3.2263E+03   1.3228E+05  0.000E+00  0.000E+00  0.000E+00  4.46130E+01  1.698E-01  2.000E+01  2.000E+04 -1.613E-01
   1   16   10     1    10    1.3228E+05 -3.1215E+03   1.3540E+05  0.000E+00  0.000E+00  0.000E+00  4.41382E+01  1.723E-01  2.000E+01  2.000E+04 -1.561E-01
   1   16   11     1    11    1.3540E+05 -2.9502E+03   1.3835E+05  0.000E+00  0.000E+00  0.000E+00  4.36633E+01  1.746E-01  2.000E+01  2.000E+04 -1.475E-01
   1   16   12     1    12    1.3835E+05 -3.3344E+03   1.4169E+05  0.000E+00  0.000E+00  0.000E+00  4.31884E+01  1.770E-01  2.000E+01  2.000E+04 -1.667E-01
   1   15   13     1    13    1.4169E+05 -2.9869E+03   1.4467E+05  0.000E+00  0.000E+00  0.000E+00  4.27135E+01  1.794E-01  2.000E+01  2.000E+04 -1.493E-01
   1   14   14     1    14    1.4467E+05 -3.0360E+03   1.4771E+05  0.000E+00  0.000E+00  0.000E+00  4.22385E+01  1.817E-01  2.000E+01  2.000E+04 -1.518E-01
   1   13   15     1    15    1.4771E+05 -3.4692E+03   1.5118E+05  0.000E+00  0.000E+00  0.000E+00  4.17636E+01  1.841E-01  2.000E+01  2.000E+04 -1.735E-01
   1   12   16     1    16    1.5118E+05 -5.1026E+03   1.5628E+05  0.000E+00  0.000E+00  0.000E+00  4.12895E+01  1.872E-01  2.000E+01  2.000E+04 -2.551E-01
   1   12   17     1    17    1.5628E+05 -3.0621E+03   1.5934E+05  0.000E+00  0.000E+00  0.000E+00  4.08152E+01  1.902E-01  2.000E+01  2.000E+04 -1.531E-01
   1   12   18     1    18    1.5934E+05 -2.8590E+03   1.6220E+05  0.000E+00  0.000E+00  0.000E+00  4.03401E+01  1.923E-01  2.000E+01  2.000E+04 -1.429E-01
   1   12   19     1    19    1.6220E+05 -4.0155E+03   1.6622E+05  0.000E+00  0.000E+00  0.000E+00  3.98652E+01  1.948E-01  2.000E+01  2.000E+04 -2.008E-01
   1   13   20     1    20    1.6622E+05 -1.5010E+03   1.6772E+05  0.000E+00  0.000E+00  0.000E+00  3.93899E+01  1.967E-01  2.000E+01  2.000E+04 -7.505E-02
   1   14   21     1    21    1.6772E+05  8.7192E+02   1.6685E+05  0.000E+00  0.000E+00  0.000E+00  3.89129E+01  1.970E-01  2.000E+01  2.000E+04  4.360E-02
   1   14   22     1    22    1.6685E+05  5.5782E+03   1.6127E+05  0.000E+00  0.000E+00  0.000E+00  3.84333E+01  1.947E-01  2.000E+01  2.000E+04  2.789E-01
   1    9   30     2     1    5.0000E+04 -2.7741E+03   5.2774E+04  0.000E+00  0.000E+00  0.000E+00  4.02428E+01  1.178E-01  2.000E+01  2.000E+04 -1.387E-01
   1    9   29     2     2    5.2774E+04 -3.1062E+03   5.5880E+04  0.000E+00  0.000E+00  0.000E+00  3.99968E+01  1.218E-01  2.000E+01  2.000E+04 -1.553E-01
   1    9   28     2     3    5.5880E+04 -3.4873E+03   5.9368E+04  0.000E+00  0.000E+00  0.000E+00  3.97512E+01  1.262E-01  2.000E+01  2.000E+04 -1.744E-01
   1    9   27     2     4    5.9368E+04 -6.2148E+03   6.5582E+04  0.000E+00  0.000E+00  0.000E+00  3.95074E+01  1.324E-01  2.000E+01  2.000E+04 -3.107E-01
   1   10   26     2     5    6.5582E+04 -3.8416E+03   6.9424E+04  0.000E+00  0.000E+00  0.000E+00  3.92637E+01  1.387E-01  2.000E+01  2.000E+04 -1.921E-01
   1   11   25     2     6    6.9424E+04 -2.7917E+03   7.2216E+04  0.000E+00  0.000E+00  0.000E+00  3.90178E+01  1.428E-01  2.000E+01  2.000E+04 -1.396E-01
   1   12   24     2     7    7.2216E+04 -1.9349E+03   7.4150E+04  0.000E+00  0.000E+00  0.000E+00  3.87706E+01  1.456E-01  2.000E+01  2.000E+04 -9.674E-02
   1   13   23     2     8    7.4150E+04 -1.0750E+03   7.5225E+04  0.000E+00  0.000E+00  0.000E+00  3.85224E+01  1.474E-01  2.000E+01  2.000E+04 -5.375E-02
   1   14   22     2     9    7.5225E+04  2.3449E+03   7.2881E+04  0.000E+00  0.000E+00  0.000E+00  3.82717E+01  1.467E-01  2.000E+01  2.000E+04  1.172E-01
   1   14   22     3     1    2.3415E+05 -7.9368E+03   2.4209E+05  0.000E+00  0.000E+00  0.000E+00  3.77576E+01  2.020E-01  2.000E+01  2.000E+04 -3.968E-01
   1   15   23     3     2    2.4209E+05  2.0611E+03   2.4002E+05  0.000E+00  0.000E+00  0.000E+00  3.68702E+01  2.035E-01  2.000E+01  2.000E+04  1.031E-01
   1   15   24     3     3    2.4002E+05  1.0677E+03   2.3896E+05  0.000E+00  0.000E+00  0.000E+00  3.59805E+01  2.027E-01  2.000E+01  2.000E+04  5.338E-02
   1   15   25     3     4    2.3896E+05  4.7233E+02   2.3848E+05  0.000E+00  0.000E+00  0.000E+00  3.50912E+01  2.023E-01  2.000E+01  2.000E+04  2.362E-02
   1   15   26     3     5    2.3848E+05 -7.8843E+02   2.3927E+05  0.000E+00  0.000E+00  0.000E+00  3.42024E+01  2.024E-01  2.000E+01  2.000E+04 -3.942E-02
   1   16   27     3     6    2.3927E+05 -1.0761E+02   2.3938E+05  0.000E+00  0.000E+00  0.000E+00  3.33137E+01  2.026E-01  2.000E+01  2.000E+04 -5.381E-03
   1   17   28     3     7    2.3938E+05 -8.2339E+02   2.4020E+05  0.000E+00  0.000E+00  0.000E+00  3.24251E+01  2.029E-01  2.000E+01  2.000E+04 -4.117E-02
   1   18   29     3     8    2.4020E+05 -2.6226E+03   2.4283E+05  0.000E+00  0.000E+00  0.000E+00  3.15371E+01  2.037E-01  2.000E+01  2.000E+04 -1.311E-01
   1   18   30     3     9    2.4283E+05 -3.5398E+03   2.4637E+05  0.000E+00  0.000E+00  0.000E+00  3.06497E+01  2.053E-01  2.000E+01  2.000E+04 -1.770E-01



1
              HEAD IN LAYER   1 AT END OF TIME STEP   1 IN STRESS PERIOD   12
  ---------------------------------------------------------------------------

          1      2      3      4      5      6      7      8      9     10
         11     12     13     14     15     16     17     18     19     20
         21     22     23     24     25     26     27     28     29     30
 .........................................................................
   1  ****** ****** ****** ****** ****** ****** ****** ****** ****** ******
      ****** ****** ****** ****** ****** ****** ****** ****** ****** ******
      ****** ****** ****** ****** ****** ****** ****** ****** ****** ******
   2  ****** ****** ****** ****** ****** ****** ****** ****** ****** ******
      ****** ****** ****** ****** ****** ****** ****** ****** ****** ******
      ****** ****** ****** ****** ****** ****** ****** ****** ****** ******
   3  ****** ****** ****** ****** ****** ****** ****** ****** ****** ******
      ****** ****** ****** ****** ****** ****** ****** ****** ****** ******
      ****** ****** ****** ****** ****** ****** ****** ****** ****** ******
   4  ****** ****** ****** ****** ****** ****** ****** ****** ****** ******
      ****** ****** ****** ****** ****** ****** ****** ****** ****** ******
      ****** ****** ****** ****** ****** ****** ****** ****** ****** ******
   5  ****** ****** ****** ****** ****** ****** ****** ****** ****** ******
      ****** ****** ****** ****** ****** ****** ****** ****** ****** ******
      ****** ****** ****** ****** ****** ****** ****** ****** ****** ******
   6  ****** ****** ****** ****** ****** ****** ****** ****** ****** ******
      ****** ****** ****** ****** ****** ****** ****** ****** ****** ******
      ****** ****** ****** ****** ****** ****** ****** ****** ****** ******
   7  ****** ****** ****** ****** ****** ****** ****** ****** ****** ******
      ****** ****** ****** ****** ****** ****** ****** ****** ****** ******
      ****** ****** ****** ****** ****** ****** ****** ****** ****** ******
   8  ****** ****** ****** ****** ****** ****** ****** ****** ****** ******
      ****** ****** ****** ****** ****** ****** ****** ****** ****** ******
      ****** ****** ****** ****** ****** ****** ****** ****** ****** ******
   9  ****** ****** ****** ****** ****** ****** ****** ****** ****** ******
      ****** ****** ****** ****** ****** ****** ****** ****** ****** ******
      ****** ****** ****** ****** ****** ****** ****** ****** ****** ******
  10  ****** ****** ****** ****** ****** ****** ****** ****** ****** ******
      ****** ****** ****** ****** ****** ****** ****** ****** ****** ******
      ****** ****** ****** ****** ****** ****** ****** ****** ****** ******
  11  ****** ****** ****** ****** ****** ****** ****** ****** ****** ******
      ****** ****** ****** ****** ****** ****** ****** ****** ****** ******
      ****** ****** ****** ****** ****** ****** ****** ****** ****** ******
  12  ****** ****** ****** ****** ****** ****** ****** ****** ****** ******
      ****** ****** ****** ****** ****** ****** ****** ****** ****** ******
      ****** ****** ****** ****** ****** ****** ****** ****** ****** ******
  13  ****** ****** ****** ****** ****** ****** ****** ****** ****** ******
      ****** ****** ****** ****** ****** ****** ****** ****** ****** ******
      ****** ****** ****** ****** ****** ****** ****** ****** ****** ******
  14  ****** ****** ****** ****** ****** ****** ****** ****** ****** ******
      ****** ****** ****** ****** ****** ****** ****** ****** ****** ******
      ****** ****** ****** ****** ****** ****** ****** ****** ****** ******
  15  ****** ****** ****** ****** ****** ****** ****** ****** ****** ******
      ****** ****** ****** ****** ****** ****** ****** ****** ****** ******
      ****** ****** ****** ****** ****** ****** ****** ****** ****** ******
  16  ****** ****** ****** ****** ****** ****** ****** ****** ****** ******
      ****** ****** ****** ****** ****** ****** ****** ****** ****** ******
      ****** ****** ****** ****** ****** ****** ****** ****** ****** ******
  17  ****** ****** ****** ****** ****** ****** ****** ****** ****** ******
      ****** ****** ****** ****** ****** ****** ****** ****** ****** ******
      ****** ****** ****** ****** ****** ****** ****** ****** ****** ******
  18  ****** ****** ****** ****** ****** ****** ****** ****** ****** ******
      ****** ****** ****** ****** ****** ****** ****** ****** ****** ******
      ****** ****** ****** ****** ****** ****** ****** ****** ****** ******
  19  ****** ****** ****** ****** ****** ****** ****** ****** ****** ******
      ****** ****** ****** ****** ****** ****** ****** ****** ****** ******
      ****** ****** ****** ****** ****** ****** ****** ****** ****** ******
  20  ****** ****** ****** ****** ****** ****** ****** ****** ****** ******
      ****** ****** ****** ****** ****** ****** ****** ****** ****** ******
      ****** ****** ****** ****** ****** ****** ****** ****** ****** ******
  21  ****** ****** ****** ****** ****** ****** ****** ****** ****** ******
      ****** ****** ****** ****** ****** ****** ****** ****** ****** ******
      ****** ****** ****** ****** ****** ****** ****** ****** ****** ******
  22  ****** ****** ****** ****** ****** ****** ****** ****** ****** ******
      ****** ****** ****** ****** ****** ****** ****** ****** ****** ******
      ****** ****** ****** ****** ****** ****** ****** ****** ****** ******
  23  ****** ****** ****** ****** ****** ****** ****** ****** ****** ******
      ****** ****** ****** ****** ****** ****** ****** ****** ****** ******
      ****** ****** ****** ****** ****** ****** ****** ****** ****** ******
  24  ****** ****** ****** ****** ****** ****** ****** ****** ****** ******
      ****** ****** ****** ****** ****** ****** ****** ****** ****** ******
      ****** ****** ****** ****** ****** ****** ****** ****** ****** ******
  25  ****** ****** ****** ****** ****** ****** ****** ****** ****** ******
      ****** ****** ****** ****** ****** ****** ****** ****** ****** ******
      ****** ****** ****** ****** ****** ****** ****** ****** ****** ******

 HEAD WILL BE SAVED ON UNIT   51 AT END OF TIME STEP    1, STRESS PERIOD   12
1
  VOLUMETRIC BUDGET FOR ENTIRE MODEL AT END OF TIME STEP    1, STRESS PERIOD  12
  ------------------------------------------------------------------------------

     CUMULATIVE VOLUMES      L**3       RATES FOR THIS TIME STEP      L**3/T
     ------------------                 ------------------------

           IN:                                      IN:
           ---                                      ---
             STORAGE =    26282023.7208               STORAGE =           0.0000
       CONSTANT HEAD =   150331371.9641         CONSTANT HEAD =      143846.9247
               WELLS =           0.0000                 WELLS =           0.0000
            RECHARGE =    26413200.0000              RECHARGE =       27600.0000
      STREAM LEAKAGE =    12584195.4986        STREAM LEAKAGE =       12396.0765

            TOTAL IN =   215610791.1835              TOTAL IN =      183843.0012

          OUT:                                     OUT:
          ----                                     ----
             STORAGE =     2589456.1752               STORAGE =        3733.6353
       CONSTANT HEAD =           0.0000         CONSTANT HEAD =           0.0000
               WELLS =    78125544.4901                 WELLS =       71347.5292
            RECHARGE =           0.0000              RECHARGE =           0.0000
      STREAM LEAKAGE =   134895791.4388        STREAM LEAKAGE =      108761.8359

           TOTAL OUT =   215610792.1040             TOTAL OUT =      183843.0004

            IN - OUT =          -0.9205              IN - OUT =       8.3145E-04

 PERCENT DISCREPANCY =          -0.00     PERCENT DISCREPANCY =           0.00






         TIME SUMMARY AT END OF TIME STEP    1 IN STRESS PERIOD   12
                    SECONDS     MINUTES      HOURS       DAYS        YEARS
                    -----------------------------------------------------------
   TIME STEP LENGTH 7.86240E+06 1.31040E+05  2184.0      91.000     0.24914    
 STRESS PERIOD TIME 7.86240E+06 1.31040E+05  2184.0      91.000     0.24914    
         TOTAL TIME 9.46080E+07 1.57680E+06  26280.      1095.0      2.9979    
1

 Run end date and time (yyyy/mm/dd hh:mm:ss): 2018/10/10 15:27:26
 Elapsed run time:  0.079 Seconds

