                                  MODFLOW-2005     
      U.S. GEOLOGICAL SURVEY MODULAR FINITE-DIFFERENCE GROUND-WATER FLOW MODEL
                            VERSION 1.11.00 8/8/2013

 LIST FILE: supply2.lst
                         UNIT   10

 OPENING ..\data\supply.dis
 FILE TYPE:DIS   UNIT   11   STATUS:OLD    
 FORMAT:FORMATTED              ACCESS:SEQUENTIAL          

 OPENING ..\data\supply.ba6
 FILE TYPE:BAS6   UNIT   12   STATUS:OLD    
 FORMAT:FORMATTED              ACCESS:SEQUENTIAL          

 OPENING ..\data\supply_het.bc6
 FILE TYPE:BCF6   UNIT   13   STATUS:OLD    
 FORMAT:FORMATTED              ACCESS:SEQUENTIAL          

 OPENING ..\data\supply.rch
 FILE TYPE:RCH   UNIT   15   STATUS:OLD    
 FORMAT:FORMATTED              ACCESS:SEQUENTIAL          

 OPENING ..\data\supply2.sfr
 FILE TYPE:SFR   UNIT   16   STATUS:OLD    
 FORMAT:FORMATTED              ACCESS:SEQUENTIAL          

 OPENING ..\data\supply.oc
 FILE TYPE:OC   UNIT   17   STATUS:OLD    
 FORMAT:FORMATTED              ACCESS:SEQUENTIAL          

 OPENING ..\data\supply.pcg
 FILE TYPE:PCG   UNIT   18   STATUS:OLD    
 FORMAT:FORMATTED              ACCESS:SEQUENTIAL          

 OPENING supply2.wel
 FILE TYPE:WEL   UNIT   19   STATUS:OLD    
 FORMAT:FORMATTED              ACCESS:SEQUENTIAL          

 OPENING supply2sf.cbc
 FILE TYPE:DATA(BINARY)   UNIT   50   STATUS:UNKNOWN
 FORMAT:BINARY                 ACCESS:SEQUENTIAL          

 OPENING supply2hd.bhd
 FILE TYPE:DATA(BINARY)   UNIT   51   STATUS:UNKNOWN
 FORMAT:BINARY                 ACCESS:SEQUENTIAL          

 BAS -- BASIC PACKAGE, VERSION 7, 5/2/2005 INPUT READ FROM UNIT   12
 
 MODFLOW was compiled using uniform precision
 Precision of REAL and DOUBLE PRECISION variables:          15

 DISCRETIZATION INPUT DATA READ FROM UNIT   11
    1 LAYERS        25 ROWS        30 COLUMNS
   12 STRESS PERIOD(S) IN SIMULATION
 MODEL TIME UNIT IS DAYS
 MODEL LENGTH UNIT IS UNDEFINED
  Confining bed flag for each layer:
   0

                     DELR =   200.000    

                     DELC =   200.000    

 TOP ELEVATION OF LAYER 1 =  100.0000    

   MODEL LAYER BOTTOM EL. =   0.00000     FOR LAYER   1


 STRESS PERIOD     LENGTH       TIME STEPS     MULTIPLIER FOR DELT    SS FLAG
 ----------------------------------------------------------------------------
        1         92.00000          1                    1.500         TR
        2         91.00000          1                    1.500         TR
        3         91.00000          1                    1.500         TR
        4         91.00000          1                    1.500         TR
        5         92.00000          1                    1.500         TR
        6         91.00000          1                    1.500         TR
        7         91.00000          1                    1.500         TR
        8         91.00000          1                    1.500         TR
        9         92.00000          1                    1.500         TR
       10         91.00000          1                    1.500         TR
       11         91.00000          1                    1.500         TR
       12         91.00000          1                    1.500         TR

 TRANSIENT SIMULATION



 
 #MODOFC transient water supply sample problem                                   
 #                                                                               
 THE FREE FORMAT OPTION HAS BEEN SELECTED



                     BOUNDARY ARRAY FOR LAYER   1
 READING ON UNIT   12 WITH FORMAT: (20I4)              

 AQUIFER HEAD WILL BE SET TO   0.0000     AT ALL NO-FLOW NODES (IBOUND=0).



                       INITIAL HEAD FOR LAYER   1
 READING ON UNIT   12 WITH FORMAT: (10F13.0)           

 OUTPUT CONTROL IS SPECIFIED ONLY AT TIME STEPS FOR WHICH OUTPUT IS DESIRED
 COMPACT CELL-BY-CELL BUDGET FILES WILL BE WRITTEN
 HEAD PRINT FORMAT CODE IS  18    DRAWDOWN PRINT FORMAT CODE IS   0
 HEADS WILL BE SAVED ON UNIT   51    DRAWDOWNS WILL BE SAVED ON UNIT    0

 BCF -- BLOCK-CENTERED FLOW PACKAGE, VERSION 7, 5/2/2005
         INPUT READ FROM UNIT 13
 TRANSIENT SIMULATION
 HEAD AT CELLS THAT CONVERT TO DRY=   0.0000    
 WETTING CAPABILITY IS NOT ACTIVE
      LAYER  LAYER-TYPE CODE     INTERBLOCK T
      --------------------------------------------
         1            0          0 -- HARMONIC    

 COLUMN TO ROW ANISOTROPY =  1.000000    

     PRIMARY STORAGE COEF =  5.000000E-02 FOR LAYER   1



               TRANSMIS. ALONG ROWS FOR LAYER   1
 READING ON UNIT   13 WITH FORMAT: (FREE)              

 WEL -- WELL PACKAGE, VERSION 7, 5/2/2005 INPUT READ FROM UNIT   19
 # Well package input file written by MMProc
 No named parameters
 MAXIMUM OF      8 ACTIVE WELLS AT ONE TIME


     0 Well parameters

 RCH -- RECHARGE PACKAGE, VERSION 7, 5/2/2005 INPUT READ FROM UNIT   15
 No named parameters
 OPTION 1 -- RECHARGE TO TOP LAYER


     0 Recharge parameters

 SFR7 -- STREAMFLOW ROUTING PACKAGE, VERSION 1.0.7, 2013-01-15
         INPUT READ FROM UNIT  16
 #  Supply2 test problem for GWM-VI
 #  The eighth entry in the first data line is ISTCB2 -
 #    Setting this to a negative number indicates that
 #    streamflows out of the reach will be saved to a
 #    binary file.  The absolute value of ISTCB2 is the
 #    unit to which unformatted flows will be written.
 #
 No named parameters
 Segment information will not be 
 read by reach
 No named parameters
 No specifed inflow files


 NUMBER OF STREAM REACHES IS   40

 NUMBER OF STREAM SEGMENTS IS    3

 NUMBER OF STREAM PARAMETERS IS    0

 NUMBER OF STREAM SEGMENTS DEFINED USING PARAMETERS IS              0

 MAXIMUM ERROR FOR STREAM LEAKAGE RATES IS  1.00E-04

 CONSTANT FOR MANNINGS EQUATION IS  1.2839E+05





   STREAM NETWORK DESCRIPTION: 

   LAYER    ROW    COL   SEGMENT   REACH     LENGTH
                          NUMBER   NUMBER    IN CELL        
   --------------------------------------------------
      1     13      1       1        1    2.0000E+02
      1     13      2       1        2    2.0000E+02
      1     14      3       1        3    2.0000E+02
      1     15      4       1        4    2.0000E+02
      1     16      5       1        5    2.0000E+02
      1     16      6       1        6    2.0000E+02
      1     16      7       1        7    2.0000E+02
      1     16      8       1        8    2.0000E+02
      1     16      9       1        9    2.0000E+02
      1     16     10       1       10    2.0000E+02
      1     16     11       1       11    2.0000E+02
      1     16     12       1       12    2.0000E+02
      1     15     13       1       13    2.0000E+02
      1     14     14       1       14    2.0000E+02
      1     13     15       1       15    2.0000E+02
      1     12     16       1       16    2.0000E+02
      1     12     17       1       17    2.0000E+02
      1     12     18       1       18    2.0000E+02
      1     12     19       1       19    2.0000E+02
      1     13     20       1       20    2.0000E+02
      1     14     21       1       21    2.0000E+02
      1     14     22       1       22    2.0000E+02
      1      9     30       2        1    2.0000E+02
      1      9     29       2        2    2.0000E+02
      1      9     28       2        3    2.0000E+02
      1      9     27       2        4    2.0000E+02
      1     10     26       2        5    2.0000E+02
      1     11     25       2        6    2.0000E+02
      1     12     24       2        7    2.0000E+02
      1     13     23       2        8    2.0000E+02
      1     14     22       2        9    2.0000E+02
      1     14     22       3        1    2.0000E+02
      1     15     23       3        2    2.0000E+02
      1     15     24       3        3    2.0000E+02
      1     15     25       3        4    2.0000E+02
      1     15     26       3        5    2.0000E+02
      1     16     27       3        6    2.0000E+02
      1     17     28       3        7    2.0000E+02
      1     18     29       3        8    2.0000E+02
      1     18     30       3        9    2.0000E+02




 PCG -- CONJUGATE-GRADIENT SOLUTION PACKAGE, VERSION 7, 5/2/2005
 MAXIMUM OF    500 CALLS OF SOLUTION ROUTINE
 MAXIMUM OF      5 INTERNAL ITERATIONS PER CALL TO SOLUTION ROUTINE
 MATRIX PRECONDITIONING TYPE :    1



                                    SOLUTION BY THE CONJUGATE-GRADIENT METHOD
                                   -------------------------------------------
                    MAXIMUM NUMBER OF CALLS TO PCG ROUTINE =      500
                        MAXIMUM ITERATIONS PER CALL TO PCG =        5
                               MATRIX PRECONDITIONING TYPE =        1
        RELAXATION FACTOR (ONLY USED WITH PRECOND. TYPE 1) =    0.10000E+01
 PARAMETER OF POLYNOMIAL PRECOND. = 2 (2) OR IS CALCULATED :        0
                         HEAD CHANGE CRITERION FOR CLOSURE =    0.10000E-05
                     RESIDUAL CHANGE CRITERION FOR CLOSURE =    0.10000E+01
            PCG HEAD AND RESIDUAL CHANGE PRINTOUT INTERVAL =        1
     PRINTING FROM SOLVER IS LIMITED(1) OR SUPPRESSED (>1) =        1
                            STEADY-STATE DAMPING PARAMETER =    0.10000E+01
                               TRANSIENT DAMPING PARAMETER =    0.10000E+01
1
                            STRESS PERIOD NO.    1, LENGTH =   92.00000    
                            -----------------------------------------------

                              NUMBER OF TIME STEPS =     1

                               MULTIPLIER FOR DELT =     1.500

                            INITIAL TIME STEP SIZE =   92.00000    

 WELL NO.  LAYER   ROW   COL   STRESS RATE         
 --------------------------------------------------
      1      1     14      6       0.000    
      2      1      3      9       0.000    
      3      1     20     10       0.000    
      4      1     14     20       0.000    
      5      1     11     23      -9982.    
      6      1     13     22      -7684.    
      7      1      6     18      -7790.    
      8      1      7     23      -7655.    

      8 WELLS

                 RECHARGE =  5.000000E-04



 CLASSIFICATION & COUNT OF STREAM SEGMENTS BASED ON SOURCE OF INFLOW:

                HEADWATER     DIVERSION     RECEIVES TRIBUTARY FLOW
                ---------     ---------     -----------------------
                     2              0               1



                    INPUT DATA FOR EACH STREAM SEGMENT
 ---------------------------------------------------------------------------------------------

 SEGMENT    SEG.     INFLOW   OVERLAND   STREAM    STREAM   ICALC  OUTFLOW  DIVERSION PRIORITY
    NO.    LENGTH     RATE     RUNOFF      ET       PPT.    METH.  TO SEG.  FROM SEG.    NO.

      1  4.400E+03 1.000E+05 0.000E+00 0.000E+00 0.000E+00    1        3        0        0
      2  1.800E+03 5.000E+04 0.000E+00 0.000E+00 0.000E+00    1        3        0        0
      3  1.800E+03 0.000E+00 0.000E+00 0.000E+00 0.000E+00    1        0        0        0


         STREAMBED PROPERTIES AND STREAM DIMENSIONS

 SEGMENT     BED HYD. COND.      BED THICKNESS     ELEV.-TOP OF BED     WIDTH OF STREAM     DEPTH OF STREAM    STREAM ROUGHNESS
    No.     UPPER     LOWER     UPPER     LOWER     UPPER     LOWER     UPPER     LOWER     UPPER     LOWER   CHANNEL      BANK

     1  5.000E+00 5.000E+00 1.000E+00 1.000E+00 4.850E+01 3.800E+01 2.000E+01 2.000E+01                     5.000E-02
     2  5.000E+00 5.000E+00 1.000E+00 1.000E+00 4.025E+01 3.800E+01 2.000E+01 2.000E+01                     5.000E-02
     3  5.000E+00 5.000E+00 1.000E+00 1.000E+00 3.800E+01 3.000E+01 2.000E+01 2.000E+01                     5.000E-02



 
 SOLVING FOR HEAD 


     9 CALLS TO PCG ROUTINE FOR TIME STEP   1 IN STRESS PERIOD    1
    36 TOTAL ITERATIONS

 OUTPUT CONTROL FOR STRESS PERIOD    1   TIME STEP    1
    SAVE BUDGET
    SAVE HEAD FOR ALL LAYERS
    PRINT HEAD FOR ALL LAYERS
 UBDSV2 SAVING "STREAMFLOW OUT  " ON UNIT  50 AT TIME STEP  1, STRESS PERIOD   1



 STREAM LISTING     PERIOD      1   STEP        1

 LAYER ROW COL. STREAM  RCH.  FLOW INTO     FLOW TO   FLOW OUT OF   OVRLND.     DIRECT     STREAM       STREAM     STREAM     STREAM   STREAMBED  STREAMBED
                SEG.NO.  NO.  STRM. RCH.    AQUIFER    STRM. RCH.    RUNOFF     PRECIP       ET          HEAD       DEPTH      WIDTH   CONDCTNC.   GRADIENT

   1   13    1     1     1    1.0000E+05 -6.1172E+03   1.0612E+05  0.000E+00  0.000E+00  0.000E+00  4.84087E+01  1.473E-01  2.000E+01  2.000E+04 -3.059E-01
   1   13    2     1     2    1.0612E+05 -7.5865E+03   1.1370E+05  0.000E+00  0.000E+00  0.000E+00  4.79372E+01  1.531E-01  2.000E+01  2.000E+04 -3.793E-01
   1   14    3     1     3    1.1370E+05 -2.1988E+03   1.1590E+05  0.000E+00  0.000E+00  0.000E+00  4.74640E+01  1.571E-01  2.000E+01  2.000E+04 -1.099E-01
   1   15    4     1     4    1.1590E+05 -2.2704E+03   1.1817E+05  0.000E+00  0.000E+00  0.000E+00  4.69885E+01  1.590E-01  2.000E+01  2.000E+04 -1.135E-01
   1   16    5     1     5    1.1817E+05 -7.1870E+03   1.2536E+05  0.000E+00  0.000E+00  0.000E+00  4.65151E+01  1.628E-01  2.000E+01  2.000E+04 -3.594E-01
   1   16    6     1     6    1.2536E+05 -4.3052E+03   1.2967E+05  0.000E+00  0.000E+00  0.000E+00  4.60424E+01  1.674E-01  2.000E+01  2.000E+04 -2.153E-01
   1   16    7     1     7    1.2967E+05 -4.1405E+03   1.3381E+05  0.000E+00  0.000E+00  0.000E+00  4.55684E+01  1.707E-01  2.000E+01  2.000E+04 -2.070E-01
   1   16    8     1     8    1.3381E+05 -4.1003E+03   1.3791E+05  0.000E+00  0.000E+00  0.000E+00  4.50943E+01  1.738E-01  2.000E+01  2.000E+04 -2.050E-01
   1   16    9     1     9    1.3791E+05 -4.0904E+03   1.4200E+05  0.000E+00  0.000E+00  0.000E+00  4.46202E+01  1.770E-01  2.000E+01  2.000E+04 -2.045E-01
   1   16   10     1    10    1.4200E+05 -4.0889E+03   1.4609E+05  0.000E+00  0.000E+00  0.000E+00  4.41460E+01  1.801E-01  2.000E+01  2.000E+04 -2.044E-01
   1   16   11     1    11    1.4609E+05 -4.1259E+03   1.5021E+05  0.000E+00  0.000E+00  0.000E+00  4.36718E+01  1.831E-01  2.000E+01  2.000E+04 -2.063E-01
   1   16   12     1    12    1.5021E+05 -7.0079E+03   1.5722E+05  0.000E+00  0.000E+00  0.000E+00  4.31986E+01  1.872E-01  2.000E+01  2.000E+04 -3.504E-01
   1   15   13     1    13    1.5722E+05 -7.2976E+03   1.6452E+05  0.000E+00  0.000E+00  0.000E+00  4.27265E+01  1.924E-01  2.000E+01  2.000E+04 -3.649E-01
   1   14   14     1    14    1.6452E+05 -7.7534E+03   1.7227E+05  0.000E+00  0.000E+00  0.000E+00  4.22546E+01  1.978E-01  2.000E+01  2.000E+04 -3.877E-01
   1   13   15     1    15    1.7227E+05 -8.0171E+03   1.8029E+05  0.000E+00  0.000E+00  0.000E+00  4.17828E+01  2.033E-01  2.000E+01  2.000E+04 -4.009E-01
   1   12   16     1    16    1.8029E+05 -8.4130E+03   1.8870E+05  0.000E+00  0.000E+00  0.000E+00  4.13112E+01  2.089E-01  2.000E+01  2.000E+04 -4.207E-01
   1   12   17     1    17    1.8870E+05 -5.8919E+03   1.9459E+05  0.000E+00  0.000E+00  0.000E+00  4.08387E+01  2.137E-01  2.000E+01  2.000E+04 -2.946E-01
   1   12   18     1    18    1.9459E+05 -5.6070E+03   2.0020E+05  0.000E+00  0.000E+00  0.000E+00  4.03653E+01  2.175E-01  2.000E+01  2.000E+04 -2.803E-01
   1   12   19     1    19    2.0020E+05 -6.3456E+03   2.0654E+05  0.000E+00  0.000E+00  0.000E+00  3.98919E+01  2.215E-01  2.000E+01  2.000E+04 -3.173E-01
   1   13   20     1    20    2.0654E+05 -4.9346E+03   2.1148E+05  0.000E+00  0.000E+00  0.000E+00  3.94183E+01  2.251E-01  2.000E+01  2.000E+04 -2.467E-01
   1   14   21     1    21    2.1148E+05 -5.1722E+03   2.1665E+05  0.000E+00  0.000E+00  0.000E+00  3.89443E+01  2.284E-01  2.000E+01  2.000E+04 -2.586E-01
   1   14   22     1    22    2.1665E+05  4.9100E+03   2.1174E+05  0.000E+00  0.000E+00  0.000E+00  3.84671E+01  2.285E-01  2.000E+01  2.000E+04  2.455E-01
   1    9   30     2     1    5.0000E+04 -4.6810E+03   5.4681E+04  0.000E+00  0.000E+00  0.000E+00  4.02441E+01  1.191E-01  2.000E+01  2.000E+04 -2.341E-01
   1    9   29     2     2    5.4681E+04 -4.9397E+03   5.9621E+04  0.000E+00  0.000E+00  0.000E+00  4.00005E+01  1.255E-01  2.000E+01  2.000E+04 -2.470E-01
   1    9   28     2     3    5.9621E+04 -5.1240E+03   6.4745E+04  0.000E+00  0.000E+00  0.000E+00  3.97571E+01  1.321E-01  2.000E+01  2.000E+04 -2.562E-01
   1    9   27     2     4    6.4745E+04 -7.3282E+03   7.2073E+04  0.000E+00  0.000E+00  0.000E+00  3.95148E+01  1.398E-01  2.000E+01  2.000E+04 -3.664E-01
   1   10   26     2     5    7.2073E+04 -6.0796E+03   7.8153E+04  0.000E+00  0.000E+00  0.000E+00  3.92729E+01  1.479E-01  2.000E+01  2.000E+04 -3.040E-01
   1   11   25     2     6    7.8153E+04 -4.4221E+03   8.2575E+04  0.000E+00  0.000E+00  0.000E+00  3.90290E+01  1.540E-01  2.000E+01  2.000E+04 -2.211E-01
   1   12   24     2     7    8.2575E+04 -2.4267E+03   8.5001E+04  0.000E+00  0.000E+00  0.000E+00  3.87829E+01  1.579E-01  2.000E+01  2.000E+04 -1.213E-01
   1   13   23     2     8    8.5001E+04 -5.7065E+02   8.5572E+04  0.000E+00  0.000E+00  0.000E+00  3.85346E+01  1.596E-01  2.000E+01  2.000E+04 -2.853E-02
   1   14   22     2     9    8.5572E+04  1.2529E+03   8.4319E+04  0.000E+00  0.000E+00  0.000E+00  3.82842E+01  1.592E-01  2.000E+01  2.000E+04  6.264E-02
   1   14   22     3     1    2.9606E+05 -8.6762E+03   3.0474E+05  0.000E+00  0.000E+00  0.000E+00  3.77878E+01  2.322E-01  2.000E+01  2.000E+04 -4.338E-01
   1   15   23     3     2    3.0474E+05 -1.9839E+03   3.0672E+05  0.000E+00  0.000E+00  0.000E+00  3.69014E+01  2.347E-01  2.000E+01  2.000E+04 -9.919E-02
   1   15   24     3     3    3.0672E+05 -1.5283E+03   3.0825E+05  0.000E+00  0.000E+00  0.000E+00  3.60133E+01  2.355E-01  2.000E+01  2.000E+04 -7.642E-02
   1   15   25     3     4    3.0825E+05 -1.5783E+03   3.0983E+05  0.000E+00  0.000E+00  0.000E+00  3.51251E+01  2.362E-01  2.000E+01  2.000E+04 -7.891E-02
   1   15   26     3     5    3.0983E+05 -1.8819E+03   3.1171E+05  0.000E+00  0.000E+00  0.000E+00  3.42370E+01  2.370E-01  2.000E+01  2.000E+04 -9.409E-02
   1   16   27     3     6    3.1171E+05 -2.1643E+03   3.1387E+05  0.000E+00  0.000E+00  0.000E+00  3.33490E+01  2.379E-01  2.000E+01  2.000E+04 -1.082E-01
   1   17   28     3     7    3.1387E+05 -6.5786E+03   3.2045E+05  0.000E+00  0.000E+00  0.000E+00  3.24621E+01  2.399E-01  2.000E+01  2.000E+04 -3.289E-01
   1   18   29     3     8    3.2045E+05 -7.9950E+03   3.2845E+05  0.000E+00  0.000E+00  0.000E+00  3.15765E+01  2.432E-01  2.000E+01  2.000E+04 -3.997E-01
   1   18   30     3     9    3.2845E+05 -7.1747E+03   3.3562E+05  0.000E+00  0.000E+00  0.000E+00  3.06911E+01  2.466E-01  2.000E+01  2.000E+04 -3.587E-01



1
              HEAD IN LAYER   1 AT END OF TIME STEP   1 IN STRESS PERIOD    1
  ---------------------------------------------------------------------------

          1      2      3      4      5      6      7      8      9     10
         11     12     13     14     15     16     17     18     19     20
         21     22     23     24     25     26     27     28     29     30
 .........................................................................
   1  ****** ****** ****** ****** ****** ****** ****** ****** ****** ******
      ****** ****** ****** ****** ****** ****** ****** ****** ****** ******
      ****** ****** ****** ****** ****** ****** ****** ****** ****** ******
   2  ****** ****** ****** ****** ****** ****** ****** ****** ****** ******
      ****** ****** ****** ****** ****** ****** ****** ****** ****** ******
      ****** ****** ****** ****** ****** ****** ****** ****** ****** ******
   3  ****** ****** ****** ****** ****** ****** ****** ****** ****** ******
      ****** ****** ****** ****** ****** ****** ****** ****** ****** ******
      ****** ****** ****** ****** ****** ****** ****** ****** ****** ******
   4  ****** ****** ****** ****** ****** ****** ****** ****** ****** ******
      ****** ****** ****** ****** ****** ****** ****** ****** ****** ******
      ****** ****** ****** ****** ****** ****** ****** ****** ****** ******
   5  ****** ****** ****** ****** ****** ****** ****** ****** ****** ******
      ****** ****** ****** ****** ****** ****** ****** ****** ****** ******
      ****** ****** ****** ****** ****** ****** ****** ****** ****** ******
   6  ****** ****** ****** ****** ****** ****** ****** ****** ****** ******
      ****** ****** ****** ****** ****** ****** ****** ****** ****** ******
      ****** ****** ****** ****** ****** ****** ****** ****** ****** ******
   7  ****** ****** ****** ****** ****** ****** ****** ****** ****** ******
      ****** ****** ****** ****** ****** ****** ****** ****** ****** ******
      ****** ****** ****** ****** ****** ****** ****** ****** ****** ******
   8  ****** ****** ****** ****** ****** ****** ****** ****** ****** ******
      ****** ****** ****** ****** ****** ****** ****** ****** ****** ******
      ****** ****** ****** ****** ****** ****** ****** ****** ****** ******
   9  ****** ****** ****** ****** ****** ****** ****** ****** ****** ******
      ****** ****** ****** ****** ****** ****** ****** ****** ****** ******
      ****** ****** ****** ****** ****** ****** ****** ****** ****** ******
  10  ****** ****** ****** ****** ****** ****** ****** ****** ****** ******
      ****** ****** ****** ****** ****** ****** ****** ****** ****** ******
      ****** ****** ****** ****** ****** ****** ****** ****** ****** ******
  11  ****** ****** ****** ****** ****** ****** ****** ****** ****** ******
      ****** ****** ****** ****** ****** ****** ****** ****** ****** ******
      ****** ****** ****** ****** ****** ****** ****** ****** ****** ******
  12  ****** ****** ****** ****** ****** ****** ****** ****** ****** ******
      ****** ****** ****** ****** ****** ****** ****** ****** ****** ******
      ****** ****** ****** ****** ****** ****** ****** ****** ****** ******
  13  ****** ****** ****** ****** ****** ****** ****** ****** ****** ******
      ****** ****** ****** ****** ****** ****** ****** ****** ****** ******
      ****** ****** ****** ****** ****** ****** ****** ****** ****** ******
  14  ****** ****** ****** ****** ****** ****** ****** ****** ****** ******
      ****** ****** ****** ****** ****** ****** ****** ****** ****** ******
      ****** ****** ****** ****** ****** ****** ****** ****** ****** ******
  15  ****** ****** ****** ****** ****** ****** ****** ****** ****** ******
      ****** ****** ****** ****** ****** ****** ****** ****** ****** ******
      ****** ****** ****** ****** ****** ****** ****** ****** ****** ******
  16  ****** ****** ****** ****** ****** ****** ****** ****** ****** ******
      ****** ****** ****** ****** ****** ****** ****** ****** ****** ******
      ****** ****** ****** ****** ****** ****** ****** ****** ****** ******
  17  ****** ****** ****** ****** ****** ****** ****** ****** ****** ******
      ****** ****** ****** ****** ****** ****** ****** ****** ****** ******
      ****** ****** ****** ****** ****** ****** ****** ****** ****** ******
  18  ****** ****** ****** ****** ****** ****** ****** ****** ****** ******
      ****** ****** ****** ****** ****** ****** ****** ****** ****** ******
      ****** ****** ****** ****** ****** ****** ****** ****** ****** ******
  19  ****** ****** ****** ****** ****** ****** ****** ****** ****** ******
      ****** ****** ****** ****** ****** ****** ****** ****** ****** ******
      ****** ****** ****** ****** ****** ****** ****** ****** ****** ******
  20  ****** ****** ****** ****** ****** ****** ****** ****** ****** ******
      ****** ****** ****** ****** ****** ****** ****** ****** ****** ******
      ****** ****** ****** ****** ****** ****** ****** ****** ****** ******
  21  ****** ****** ****** ****** ****** ****** ****** ****** ****** ******
      ****** ****** ****** ****** ****** ****** ****** ****** ****** ******
      ****** ****** ****** ****** ****** ****** ****** ****** ****** ******
  22  ****** ****** ****** ****** ****** ****** ****** ****** ****** ******
      ****** ****** ****** ****** ****** ****** ****** ****** ****** ******
      ****** ****** ****** ****** ****** ****** ****** ****** ****** ******
  23  ****** ****** ****** ****** ****** ****** ****** ****** ****** ******
      ****** ****** ****** ****** ****** ****** ****** ****** ****** ******
      ****** ****** ****** ****** ****** ****** ****** ****** ****** ******
  24  ****** ****** ****** ****** ****** ****** ****** ****** ****** ******
      ****** ****** ****** ****** ****** ****** ****** ****** ****** ******
      ****** ****** ****** ****** ****** ****** ****** ****** ****** ******
  25  ****** ****** ****** ****** ****** ****** ****** ****** ****** ******
      ****** ****** ****** ****** ****** ****** ****** ****** ****** ******
      ****** ****** ****** ****** ****** ****** ****** ****** ****** ******

 HEAD WILL BE SAVED ON UNIT   51 AT END OF TIME STEP    1, STRESS PERIOD    1
1
  VOLUMETRIC BUDGET FOR ENTIRE MODEL AT END OF TIME STEP    1, STRESS PERIOD   1
  ------------------------------------------------------------------------------

     CUMULATIVE VOLUMES      L**3       RATES FOR THIS TIME STEP      L**3/T
     ------------------                 ------------------------

           IN:                                      IN:
           ---                                      ---
             STORAGE =    17694570.3267               STORAGE =      192332.2862
       CONSTANT HEAD =     1159379.5438         CONSTANT HEAD =       12601.9516
               WELLS =           0.0000                 WELLS =           0.0000
            RECHARGE =     1269600.0000              RECHARGE =       13800.0000
      STREAM LEAKAGE =      566986.4890        STREAM LEAKAGE =        6162.8966

            TOTAL IN =    20690536.3594              TOTAL IN =      224897.1343

          OUT:                                     OUT:
          ----                                     ----
             STORAGE =           0.0000               STORAGE =           0.0000
       CONSTANT HEAD =           0.0000         CONSTANT HEAD =           0.0000
               WELLS =     3046340.1253                 WELLS =       33112.3927
            RECHARGE =           0.0000              RECHARGE =           0.0000
      STREAM LEAKAGE =    17644196.5223        STREAM LEAKAGE =      191784.7448

           TOTAL OUT =    20690536.6477             TOTAL OUT =      224897.1375

            IN - OUT =          -0.2882              IN - OUT =      -3.1328E-03

 PERCENT DISCREPANCY =          -0.00     PERCENT DISCREPANCY =          -0.00






         TIME SUMMARY AT END OF TIME STEP    1 IN STRESS PERIOD    1
                    SECONDS     MINUTES      HOURS       DAYS        YEARS
                    -----------------------------------------------------------
   TIME STEP LENGTH 7.94880E+06 1.32480E+05  2208.0      92.000     0.25188    
 STRESS PERIOD TIME 7.94880E+06 1.32480E+05  2208.0      92.000     0.25188    
         TOTAL TIME 7.94880E+06 1.32480E+05  2208.0      92.000     0.25188    
1
1
                            STRESS PERIOD NO.    2, LENGTH =   91.00000    
                            -----------------------------------------------

                              NUMBER OF TIME STEPS =     1

                               MULTIPLIER FOR DELT =     1.500

                            INITIAL TIME STEP SIZE =   91.00000    

 WELL NO.  LAYER   ROW   COL   STRESS RATE         
 --------------------------------------------------
      1      1     14      6       0.000    
      2      1      3      9       0.000    
      3      1     20     10       0.000    
      4      1     14     20       0.000    
      5      1     11     23      -9982.    
      6      1     13     22      -7684.    
      7      1      6     18      -7790.    
      8      1      7     23      -7655.    

      8 WELLS

                 RECHARGE =  2.000000E-03

 REUSING STREAM SEGMENT DATA FROM LAST STRESS PERIOD
 
 SOLVING FOR HEAD 


     7 CALLS TO PCG ROUTINE FOR TIME STEP   1 IN STRESS PERIOD    2
    27 TOTAL ITERATIONS

 OUTPUT CONTROL FOR STRESS PERIOD    2   TIME STEP    1
    SAVE BUDGET
    SAVE HEAD FOR ALL LAYERS
    PRINT HEAD FOR ALL LAYERS
 UBDSV2 SAVING "STREAMFLOW OUT  " ON UNIT  50 AT TIME STEP  1, STRESS PERIOD   2



 STREAM LISTING     PERIOD      2   STEP        1

 LAYER ROW COL. STREAM  RCH.  FLOW INTO     FLOW TO   FLOW OUT OF   OVRLND.     DIRECT     STREAM       STREAM     STREAM     STREAM   STREAMBED  STREAMBED
                SEG.NO.  NO.  STRM. RCH.    AQUIFER    STRM. RCH.    RUNOFF     PRECIP       ET          HEAD       DEPTH      WIDTH   CONDCTNC.   GRADIENT

   1   13    1     1     1    1.0000E+05 -3.9929E+03   1.0399E+05  0.000E+00  0.000E+00  0.000E+00  4.84077E+01  1.464E-01  2.000E+01  2.000E+04 -1.996E-01
   1   13    2     1     2    1.0399E+05 -5.2541E+03   1.0925E+05  0.000E+00  0.000E+00  0.000E+00  4.79344E+01  1.503E-01  2.000E+01  2.000E+04 -2.627E-01
   1   14    3     1     3    1.0925E+05 -1.1157E+03   1.1036E+05  0.000E+00  0.000E+00  0.000E+00  4.74598E+01  1.530E-01  2.000E+01  2.000E+04 -5.579E-02
   1   15    4     1     4    1.1036E+05 -1.1442E+03   1.1151E+05  0.000E+00  0.000E+00  0.000E+00  4.69835E+01  1.539E-01  2.000E+01  2.000E+04 -5.721E-02
   1   16    5     1     5    1.1151E+05 -4.2601E+03   1.1577E+05  0.000E+00  0.000E+00  0.000E+00  4.65085E+01  1.562E-01  2.000E+01  2.000E+04 -2.130E-01
   1   16    6     1     6    1.1577E+05 -2.5122E+03   1.1828E+05  0.000E+00  0.000E+00  0.000E+00  4.60340E+01  1.590E-01  2.000E+01  2.000E+04 -1.256E-01
   1   16    7     1     7    1.1828E+05 -2.4188E+03   1.2070E+05  0.000E+00  0.000E+00  0.000E+00  4.55587E+01  1.610E-01  2.000E+01  2.000E+04 -1.209E-01
   1   16    8     1     8    1.2070E+05 -2.3910E+03   1.2309E+05  0.000E+00  0.000E+00  0.000E+00  4.50834E+01  1.629E-01  2.000E+01  2.000E+04 -1.195E-01
   1   16    9     1     9    1.2309E+05 -2.3720E+03   1.2546E+05  0.000E+00  0.000E+00  0.000E+00  4.46080E+01  1.648E-01  2.000E+01  2.000E+04 -1.186E-01
   1   16   10     1    10    1.2546E+05 -2.3499E+03   1.2781E+05  0.000E+00  0.000E+00  0.000E+00  4.41326E+01  1.667E-01  2.000E+01  2.000E+04 -1.175E-01
   1   16   11     1    11    1.2781E+05 -2.3592E+03   1.3017E+05  0.000E+00  0.000E+00  0.000E+00  4.36572E+01  1.685E-01  2.000E+01  2.000E+04 -1.180E-01
   1   16   12     1    12    1.3017E+05 -4.1417E+03   1.3431E+05  0.000E+00  0.000E+00  0.000E+00  4.31824E+01  1.711E-01  2.000E+01  2.000E+04 -2.071E-01
   1   15   13     1    13    1.3431E+05 -4.0625E+03   1.3837E+05  0.000E+00  0.000E+00  0.000E+00  4.27083E+01  1.742E-01  2.000E+01  2.000E+04 -2.031E-01
   1   14   14     1    14    1.3837E+05 -4.3725E+03   1.4275E+05  0.000E+00  0.000E+00  0.000E+00  4.22343E+01  1.774E-01  2.000E+01  2.000E+04 -2.186E-01
   1   13   15     1    15    1.4275E+05 -4.5933E+03   1.4734E+05  0.000E+00  0.000E+00  0.000E+00  4.17604E+01  1.808E-01  2.000E+01  2.000E+04 -2.297E-01
   1   12   16     1    16    1.4734E+05 -5.0469E+03   1.5239E+05  0.000E+00  0.000E+00  0.000E+00  4.12867E+01  1.844E-01  2.000E+01  2.000E+04 -2.523E-01
   1   12   17     1    17    1.5239E+05 -3.2222E+03   1.5561E+05  0.000E+00  0.000E+00  0.000E+00  4.08124E+01  1.874E-01  2.000E+01  2.000E+04 -1.611E-01
   1   12   18     1    18    1.5561E+05 -2.9015E+03   1.5851E+05  0.000E+00  0.000E+00  0.000E+00  4.03374E+01  1.897E-01  2.000E+01  2.000E+04 -1.451E-01
   1   12   19     1    19    1.5851E+05 -2.8266E+03   1.6134E+05  0.000E+00  0.000E+00  0.000E+00  3.98622E+01  1.917E-01  2.000E+01  2.000E+04 -1.413E-01
   1   13   20     1    20    1.6134E+05 -1.5682E+03   1.6291E+05  0.000E+00  0.000E+00  0.000E+00  3.93865E+01  1.933E-01  2.000E+01  2.000E+04 -7.841E-02
   1   14   21     1    21    1.6291E+05 -2.3622E+03   1.6527E+05  0.000E+00  0.000E+00  0.000E+00  3.89106E+01  1.947E-01  2.000E+01  2.000E+04 -1.181E-01
   1   14   22     1    22    1.6527E+05  5.7483E+03   1.5952E+05  0.000E+00  0.000E+00  0.000E+00  3.84321E+01  1.935E-01  2.000E+01  2.000E+04  2.874E-01
   1    9   30     2     1    5.0000E+04 -1.8455E+03   5.1845E+04  0.000E+00  0.000E+00  0.000E+00  4.02421E+01  1.171E-01  2.000E+01  2.000E+04 -9.227E-02
   1    9   29     2     2    5.1845E+04 -2.1038E+03   5.3949E+04  0.000E+00  0.000E+00  0.000E+00  3.99948E+01  1.198E-01  2.000E+01  2.000E+04 -1.052E-01
   1    9   28     2     3    5.3949E+04 -2.2691E+03   5.6218E+04  0.000E+00  0.000E+00  0.000E+00  3.97478E+01  1.228E-01  2.000E+01  2.000E+04 -1.135E-01
   1    9   27     2     4    5.6218E+04 -3.4727E+03   5.9691E+04  0.000E+00  0.000E+00  0.000E+00  3.95016E+01  1.266E-01  2.000E+01  2.000E+04 -1.736E-01
   1   10   26     2     5    5.9691E+04 -2.1064E+03   6.1797E+04  0.000E+00  0.000E+00  0.000E+00  3.92552E+01  1.302E-01  2.000E+01  2.000E+04 -1.053E-01
   1   11   25     2     6    6.1797E+04 -5.6960E+02   6.2367E+04  0.000E+00  0.000E+00  0.000E+00  3.90069E+01  1.319E-01  2.000E+01  2.000E+04 -2.848E-02
   1   12   24     2     7    6.2367E+04  1.1352E+03   6.1232E+04  0.000E+00  0.000E+00  0.000E+00  3.87566E+01  1.316E-01  2.000E+01  2.000E+04  5.676E-02
   1   13   23     2     8    6.1232E+04  5.5647E+02   6.0675E+04  0.000E+00  0.000E+00  0.000E+00  3.85055E+01  1.305E-01  2.000E+01  2.000E+04  2.782E-02
   1   14   22     2     9    6.0675E+04  2.1802E+03   5.8495E+04  0.000E+00  0.000E+00  0.000E+00  3.82537E+01  1.287E-01  2.000E+01  2.000E+04  1.090E-01
   1   14   22     3     1    2.1801E+05 -7.9097E+03   2.2592E+05  0.000E+00  0.000E+00  0.000E+00  3.77492E+01  1.937E-01  2.000E+01  2.000E+04 -3.955E-01
   1   15   23     3     2    2.2592E+05 -1.0493E+03   2.2697E+05  0.000E+00  0.000E+00  0.000E+00  3.68627E+01  1.960E-01  2.000E+01  2.000E+04 -5.246E-02
   1   15   24     3     3    2.2697E+05 -6.6303E+02   2.2764E+05  0.000E+00  0.000E+00  0.000E+00  3.59742E+01  1.965E-01  2.000E+01  2.000E+04 -3.315E-02
   1   15   25     3     4    2.2764E+05 -6.6949E+02   2.2831E+05  0.000E+00  0.000E+00  0.000E+00  3.50857E+01  1.968E-01  2.000E+01  2.000E+04 -3.347E-02
   1   15   26     3     5    2.2831E+05 -7.7119E+02   2.2908E+05  0.000E+00  0.000E+00  0.000E+00  3.41972E+01  1.972E-01  2.000E+01  2.000E+04 -3.856E-02
   1   16   27     3     6    2.2908E+05 -8.9803E+02   2.2997E+05  0.000E+00  0.000E+00  0.000E+00  3.33087E+01  1.976E-01  2.000E+01  2.000E+04 -4.490E-02
   1   17   28     3     7    2.2997E+05 -3.2559E+03   2.3323E+05  0.000E+00  0.000E+00  0.000E+00  3.24209E+01  1.987E-01  2.000E+01  2.000E+04 -1.628E-01
   1   18   29     3     8    2.3323E+05 -5.0576E+03   2.3829E+05  0.000E+00  0.000E+00  0.000E+00  3.15341E+01  2.008E-01  2.000E+01  2.000E+04 -2.529E-01
   1   18   30     3     9    2.3829E+05 -4.6850E+03   2.4297E+05  0.000E+00  0.000E+00  0.000E+00  3.06477E+01  2.033E-01  2.000E+01  2.000E+04 -2.342E-01



1
              HEAD IN LAYER   1 AT END OF TIME STEP   1 IN STRESS PERIOD    2
  ---------------------------------------------------------------------------

          1      2      3      4      5      6      7      8      9     10
         11     12     13     14     15     16     17     18     19     20
         21     22     23     24     25     26     27     28     29     30
 .........................................................................
   1  ****** ****** ****** ****** ****** ****** ****** ****** ****** ******
      ****** ****** ****** ****** ****** ****** ****** ****** ****** ******
      ****** ****** ****** ****** ****** ****** ****** ****** ****** ******
   2  ****** ****** ****** ****** ****** ****** ****** ****** ****** ******
      ****** ****** ****** ****** ****** ****** ****** ****** ****** ******
      ****** ****** ****** ****** ****** ****** ****** ****** ****** ******
   3  ****** ****** ****** ****** ****** ****** ****** ****** ****** ******
      ****** ****** ****** ****** ****** ****** ****** ****** ****** ******
      ****** ****** ****** ****** ****** ****** ****** ****** ****** ******
   4  ****** ****** ****** ****** ****** ****** ****** ****** ****** ******
      ****** ****** ****** ****** ****** ****** ****** ****** ****** ******
      ****** ****** ****** ****** ****** ****** ****** ****** ****** ******
   5  ****** ****** ****** ****** ****** ****** ****** ****** ****** ******
      ****** ****** ****** ****** ****** ****** ****** ****** ****** ******
      ****** ****** ****** ****** ****** ****** ****** ****** ****** ******
   6  ****** ****** ****** ****** ****** ****** ****** ****** ****** ******
      ****** ****** ****** ****** ****** ****** ****** ****** ****** ******
      ****** ****** ****** ****** ****** ****** ****** ****** ****** ******
   7  ****** ****** ****** ****** ****** ****** ****** ****** ****** ******
      ****** ****** ****** ****** ****** ****** ****** ****** ****** ******
      ****** ****** ****** ****** ****** ****** ****** ****** ****** ******
   8  ****** ****** ****** ****** ****** ****** ****** ****** ****** ******
      ****** ****** ****** ****** ****** ****** ****** ****** ****** ******
      ****** ****** ****** ****** ****** ****** ****** ****** ****** ******
   9  ****** ****** ****** ****** ****** ****** ****** ****** ****** ******
      ****** ****** ****** ****** ****** ****** ****** ****** ****** ******
      ****** ****** ****** ****** ****** ****** ****** ****** ****** ******
  10  ****** ****** ****** ****** ****** ****** ****** ****** ****** ******
      ****** ****** ****** ****** ****** ****** ****** ****** ****** ******
      ****** ****** ****** ****** ****** ****** ****** ****** ****** ******
  11  ****** ****** ****** ****** ****** ****** ****** ****** ****** ******
      ****** ****** ****** ****** ****** ****** ****** ****** ****** ******
      ****** ****** ****** ****** ****** ****** ****** ****** ****** ******
  12  ****** ****** ****** ****** ****** ****** ****** ****** ****** ******
      ****** ****** ****** ****** ****** ****** ****** ****** ****** ******
      ****** ****** ****** ****** ****** ****** ****** ****** ****** ******
  13  ****** ****** ****** ****** ****** ****** ****** ****** ****** ******
      ****** ****** ****** ****** ****** ****** ****** ****** ****** ******
      ****** ****** ****** ****** ****** ****** ****** ****** ****** ******
  14  ****** ****** ****** ****** ****** ****** ****** ****** ****** ******
      ****** ****** ****** ****** ****** ****** ****** ****** ****** ******
      ****** ****** ****** ****** ****** ****** ****** ****** ****** ******
  15  ****** ****** ****** ****** ****** ****** ****** ****** ****** ******
      ****** ****** ****** ****** ****** ****** ****** ****** ****** ******
      ****** ****** ****** ****** ****** ****** ****** ****** ****** ******
  16  ****** ****** ****** ****** ****** ****** ****** ****** ****** ******
      ****** ****** ****** ****** ****** ****** ****** ****** ****** ******
      ****** ****** ****** ****** ****** ****** ****** ****** ****** ******
  17  ****** ****** ****** ****** ****** ****** ****** ****** ****** ******
      ****** ****** ****** ****** ****** ****** ****** ****** ****** ******
      ****** ****** ****** ****** ****** ****** ****** ****** ****** ******
  18  ****** ****** ****** ****** ****** ****** ****** ****** ****** ******
      ****** ****** ****** ****** ****** ****** ****** ****** ****** ******
      ****** ****** ****** ****** ****** ****** ****** ****** ****** ******
  19  ****** ****** ****** ****** ****** ****** ****** ****** ****** ******
      ****** ****** ****** ****** ****** ****** ****** ****** ****** ******
      ****** ****** ****** ****** ****** ****** ****** ****** ****** ******
  20  ****** ****** ****** ****** ****** ****** ****** ****** ****** ******
      ****** ****** ****** ****** ****** ****** ****** ****** ****** ******
      ****** ****** ****** ****** ****** ****** ****** ****** ****** ******
  21  ****** ****** ****** ****** ****** ****** ****** ****** ****** ******
      ****** ****** ****** ****** ****** ****** ****** ****** ****** ******
      ****** ****** ****** ****** ****** ****** ****** ****** ****** ******
  22  ****** ****** ****** ****** ****** ****** ****** ****** ****** ******
      ****** ****** ****** ****** ****** ****** ****** ****** ****** ******
      ****** ****** ****** ****** ****** ****** ****** ****** ****** ******
  23  ****** ****** ****** ****** ****** ****** ****** ****** ****** ******
      ****** ****** ****** ****** ****** ****** ****** ****** ****** ******
      ****** ****** ****** ****** ****** ****** ****** ****** ****** ******
  24  ****** ****** ****** ****** ****** ****** ****** ****** ****** ******
      ****** ****** ****** ****** ****** ****** ****** ****** ****** ******
      ****** ****** ****** ****** ****** ****** ****** ****** ****** ******
  25  ****** ****** ****** ****** ****** ****** ****** ****** ****** ******
      ****** ****** ****** ****** ****** ****** ****** ****** ****** ******
      ****** ****** ****** ****** ****** ****** ****** ****** ****** ******

 HEAD WILL BE SAVED ON UNIT   51 AT END OF TIME STEP    1, STRESS PERIOD    2
1
  VOLUMETRIC BUDGET FOR ENTIRE MODEL AT END OF TIME STEP    1, STRESS PERIOD   2
  ------------------------------------------------------------------------------

     CUMULATIVE VOLUMES      L**3       RATES FOR THIS TIME STEP      L**3/T
     ------------------                 ------------------------

           IN:                                      IN:
           ---                                      ---
             STORAGE =    22582550.7488               STORAGE =       53714.0706
       CONSTANT HEAD =     2722007.5814         CONSTANT HEAD =       17171.7367
               WELLS =           0.0000                 WELLS =           0.0000
            RECHARGE =     6292800.0000              RECHARGE =       55200.0000
      STREAM LEAKAGE =     1442421.2704        STREAM LEAKAGE =        9620.1624

            TOTAL IN =    33039779.6006              TOTAL IN =      135705.9697

          OUT:                                     OUT:
          ----                                     ----
             STORAGE =           0.0000               STORAGE =           0.0000
       CONSTANT HEAD =           0.0000         CONSTANT HEAD =           0.0000
               WELLS =     6059567.8580                 WELLS =       33112.3927
            RECHARGE =           0.0000              RECHARGE =           0.0000
      STREAM LEAKAGE =    26980212.9149        STREAM LEAKAGE =      102593.5867

           TOTAL OUT =    33039780.7729             TOTAL OUT =      135705.9794

            IN - OUT =          -1.1722              IN - OUT =      -9.7144E-03

 PERCENT DISCREPANCY =          -0.00     PERCENT DISCREPANCY =          -0.00






         TIME SUMMARY AT END OF TIME STEP    1 IN STRESS PERIOD    2
                    SECONDS     MINUTES      HOURS       DAYS        YEARS
                    -----------------------------------------------------------
   TIME STEP LENGTH 7.86240E+06 1.31040E+05  2184.0      91.000     0.24914    
 STRESS PERIOD TIME 7.86240E+06 1.31040E+05  2184.0      91.000     0.24914    
         TOTAL TIME 1.58112E+07 2.63520E+05  4392.0      183.00     0.50103    
1
1
                            STRESS PERIOD NO.    3, LENGTH =   91.00000    
                            -----------------------------------------------

                              NUMBER OF TIME STEPS =     1

                               MULTIPLIER FOR DELT =     1.500

                            INITIAL TIME STEP SIZE =   91.00000    

 WELL NO.  LAYER   ROW   COL   STRESS RATE         
 --------------------------------------------------
      1      1     14      6       0.000    
      2      1      3      9       0.000    
      3      1     20     10       0.000    
      4      1     14     20       0.000    
      5      1     11     23      -9982.    
      6      1     13     22      -7684.    
      7      1      6     18      -7790.    
      8      1      7     23      -7655.    

      8 WELLS

                 RECHARGE =   0.00000    

 REUSING STREAM SEGMENT DATA FROM LAST STRESS PERIOD
 
 SOLVING FOR HEAD 


     7 CALLS TO PCG ROUTINE FOR TIME STEP   1 IN STRESS PERIOD    3
    27 TOTAL ITERATIONS

 OUTPUT CONTROL FOR STRESS PERIOD    3   TIME STEP    1
    SAVE BUDGET
    SAVE HEAD FOR ALL LAYERS
    PRINT HEAD FOR ALL LAYERS
 UBDSV2 SAVING "STREAMFLOW OUT  " ON UNIT  50 AT TIME STEP  1, STRESS PERIOD   3



 STREAM LISTING     PERIOD      3   STEP        1

 LAYER ROW COL. STREAM  RCH.  FLOW INTO     FLOW TO   FLOW OUT OF   OVRLND.     DIRECT     STREAM       STREAM     STREAM     STREAM   STREAMBED  STREAMBED
                SEG.NO.  NO.  STRM. RCH.    AQUIFER    STRM. RCH.    RUNOFF     PRECIP       ET          HEAD       DEPTH      WIDTH   CONDCTNC.   GRADIENT

   1   13    1     1     1    1.0000E+05 -2.7349E+03   1.0273E+05  0.000E+00  0.000E+00  0.000E+00  4.84072E+01  1.458E-01  2.000E+01  2.000E+04 -1.367E-01
   1   13    2     1     2    1.0273E+05 -3.8418E+03   1.0658E+05  0.000E+00  0.000E+00  0.000E+00  4.79327E+01  1.487E-01  2.000E+01  2.000E+04 -1.921E-01
   1   14    3     1     3    1.0658E+05 -6.5467E+02   1.0723E+05  0.000E+00  0.000E+00  0.000E+00  4.74574E+01  1.506E-01  2.000E+01  2.000E+04 -3.273E-02
   1   15    4     1     4    1.0723E+05 -6.3948E+02   1.0787E+05  0.000E+00  0.000E+00  0.000E+00  4.69807E+01  1.511E-01  2.000E+01  2.000E+04 -3.197E-02
   1   16    5     1     5    1.0787E+05 -2.4714E+03   1.1034E+05  0.000E+00  0.000E+00  0.000E+00  4.65047E+01  1.524E-01  2.000E+01  2.000E+04 -1.236E-01
   1   16    6     1     6    1.1034E+05 -1.5129E+03   1.1186E+05  0.000E+00  0.000E+00  0.000E+00  4.60291E+01  1.541E-01  2.000E+01  2.000E+04 -7.565E-02
   1   16    7     1     7    1.1186E+05 -1.4779E+03   1.1333E+05  0.000E+00  0.000E+00  0.000E+00  4.55530E+01  1.553E-01  2.000E+01  2.000E+04 -7.389E-02
   1   16    8     1     8    1.1333E+05 -1.4684E+03   1.1480E+05  0.000E+00  0.000E+00  0.000E+00  4.50770E+01  1.565E-01  2.000E+01  2.000E+04 -7.342E-02
   1   16    9     1     9    1.1480E+05 -1.4545E+03   1.1626E+05  0.000E+00  0.000E+00  0.000E+00  4.46009E+01  1.577E-01  2.000E+01  2.000E+04 -7.272E-02
   1   16   10     1    10    1.1626E+05 -1.4337E+03   1.1769E+05  0.000E+00  0.000E+00  0.000E+00  4.41248E+01  1.589E-01  2.000E+01  2.000E+04 -7.168E-02
   1   16   11     1    11    1.1769E+05 -1.4386E+03   1.1913E+05  0.000E+00  0.000E+00  0.000E+00  4.36487E+01  1.601E-01  2.000E+01  2.000E+04 -7.193E-02
   1   16   12     1    12    1.1913E+05 -2.5412E+03   1.2167E+05  0.000E+00  0.000E+00  0.000E+00  4.31731E+01  1.617E-01  2.000E+01  2.000E+04 -1.271E-01
   1   15   13     1    13    1.2167E+05 -2.4041E+03   1.2407E+05  0.000E+00  0.000E+00  0.000E+00  4.26978E+01  1.637E-01  2.000E+01  2.000E+04 -1.202E-01
   1   14   14     1    14    1.2407E+05 -2.6482E+03   1.2672E+05  0.000E+00  0.000E+00  0.000E+00  4.22225E+01  1.657E-01  2.000E+01  2.000E+04 -1.324E-01
   1   13   15     1    15    1.2672E+05 -2.8375E+03   1.2956E+05  0.000E+00  0.000E+00  0.000E+00  4.17474E+01  1.679E-01  2.000E+01  2.000E+04 -1.419E-01
   1   12   16     1    16    1.2956E+05 -3.1655E+03   1.3272E+05  0.000E+00  0.000E+00  0.000E+00  4.12725E+01  1.702E-01  2.000E+01  2.000E+04 -1.583E-01
   1   12   17     1    17    1.3272E+05 -1.8660E+03   1.3459E+05  0.000E+00  0.000E+00  0.000E+00  4.07972E+01  1.722E-01  2.000E+01  2.000E+04 -9.330E-02
   1   12   18     1    18    1.3459E+05 -1.5588E+03   1.3615E+05  0.000E+00  0.000E+00  0.000E+00  4.03212E+01  1.735E-01  2.000E+01  2.000E+04 -7.794E-02
   1   12   19     1    19    1.3615E+05 -1.1038E+03   1.3725E+05  0.000E+00  0.000E+00  0.000E+00  3.98450E+01  1.745E-01  2.000E+01  2.000E+04 -5.519E-02
   1   13   20     1    20    1.3725E+05 -5.5840E+01   1.3731E+05  0.000E+00  0.000E+00  0.000E+00  3.93681E+01  1.749E-01  2.000E+01  2.000E+04 -2.792E-03
   1   14   21     1    21    1.3731E+05 -8.8933E+02   1.3820E+05  0.000E+00  0.000E+00  0.000E+00  3.88912E+01  1.753E-01  2.000E+01  2.000E+04 -4.447E-02
   1   14   22     1    22    1.3820E+05  6.1229E+03   1.3208E+05  0.000E+00  0.000E+00  0.000E+00  3.84119E+01  1.733E-01  2.000E+01  2.000E+04  3.061E-01
   1    9   30     2     1    5.0000E+04 -5.8378E+02   5.0584E+04  0.000E+00  0.000E+00  0.000E+00  4.02413E+01  1.163E-01  2.000E+01  2.000E+04 -2.919E-02
   1    9   29     2     2    5.0584E+04 -8.3884E+02   5.1423E+04  0.000E+00  0.000E+00  0.000E+00  3.99923E+01  1.173E-01  2.000E+01  2.000E+04 -4.194E-02
   1    9   28     2     3    5.1423E+04 -9.7807E+02   5.2401E+04  0.000E+00  0.000E+00  0.000E+00  3.97435E+01  1.185E-01  2.000E+01  2.000E+04 -4.890E-02
   1    9   27     2     4    5.2401E+04 -1.5646E+03   5.3965E+04  0.000E+00  0.000E+00  0.000E+00  3.94952E+01  1.202E-01  2.000E+01  2.000E+04 -7.823E-02
   1   10   26     2     5    5.3965E+04 -3.4544E+02   5.4311E+04  0.000E+00  0.000E+00  0.000E+00  3.92465E+01  1.215E-01  2.000E+01  2.000E+04 -1.727E-02
   1   11   25     2     6    5.4311E+04  1.0688E+03   5.3242E+04  0.000E+00  0.000E+00  0.000E+00  3.89960E+01  1.210E-01  2.000E+01  2.000E+04  5.344E-02
   1   12   24     2     7    5.3242E+04  2.6096E+03   5.0632E+04  0.000E+00  0.000E+00  0.000E+00  3.87435E+01  1.185E-01  2.000E+01  2.000E+04  1.305E-01
   1   13   23     2     8    5.0632E+04  9.1059E+02   4.9722E+04  0.000E+00  0.000E+00  0.000E+00  3.84911E+01  1.161E-01  2.000E+01  2.000E+04  4.553E-02
   1   14   22     2     9    4.9722E+04  2.6566E+03   4.7065E+04  0.000E+00  0.000E+00  0.000E+00  3.82386E+01  1.136E-01  2.000E+01  2.000E+04  1.328E-01
   1   14   22     3     1    1.7914E+05 -7.5557E+03   1.8670E+05  0.000E+00  0.000E+00  0.000E+00  3.77280E+01  1.724E-01  2.000E+01  2.000E+04 -3.778E-01
   1   15   23     3     2    1.8670E+05 -6.6354E+02   1.8736E+05  0.000E+00  0.000E+00  0.000E+00  3.68414E+01  1.748E-01  2.000E+01  2.000E+04 -3.318E-02
   1   15   24     3     3    1.8736E+05 -3.4290E+02   1.8770E+05  0.000E+00  0.000E+00  0.000E+00  3.59528E+01  1.750E-01  2.000E+01  2.000E+04 -1.714E-02
   1   15   25     3     4    1.8770E+05 -3.3217E+02   1.8804E+05  0.000E+00  0.000E+00  0.000E+00  3.50641E+01  1.752E-01  2.000E+01  2.000E+04 -1.661E-02
   1   15   26     3     5    1.8804E+05 -3.6828E+02   1.8840E+05  0.000E+00  0.000E+00  0.000E+00  3.41754E+01  1.754E-01  2.000E+01  2.000E+04 -1.841E-02
   1   16   27     3     6    1.8840E+05 -4.3433E+02   1.8884E+05  0.000E+00  0.000E+00  0.000E+00  3.32868E+01  1.757E-01  2.000E+01  2.000E+04 -2.172E-02
   1   17   28     3     7    1.8884E+05 -1.8504E+03   1.9069E+05  0.000E+00  0.000E+00  0.000E+00  3.23985E+01  1.763E-01  2.000E+01  2.000E+04 -9.252E-02
   1   18   29     3     8    1.9069E+05 -3.5549E+03   1.9424E+05  0.000E+00  0.000E+00  0.000E+00  3.15111E+01  1.778E-01  2.000E+01  2.000E+04 -1.777E-01
   1   18   30     3     9    1.9424E+05 -3.5569E+03   1.9780E+05  0.000E+00  0.000E+00  0.000E+00  3.06242E+01  1.798E-01  2.000E+01  2.000E+04 -1.778E-01



1
              HEAD IN LAYER   1 AT END OF TIME STEP   1 IN STRESS PERIOD    3
  ---------------------------------------------------------------------------

          1      2      3      4      5      6      7      8      9     10
         11     12     13     14     15     16     17     18     19     20
         21     22     23     24     25     26     27     28     29     30
 .........................................................................
   1  ****** ****** ****** ****** ****** ****** ****** ****** ****** ******
      ****** ****** ****** ****** ****** ****** ****** ****** ****** ******
      ****** ****** ****** ****** ****** ****** ****** ****** ****** ******
   2  ****** ****** ****** ****** ****** ****** ****** ****** ****** ******
      ****** ****** ****** ****** ****** ****** ****** ****** ****** ******
      ****** ****** ****** ****** ****** ****** ****** ****** ****** ******
   3  ****** ****** ****** ****** ****** ****** ****** ****** ****** ******
      ****** ****** ****** ****** ****** ****** ****** ****** ****** ******
      ****** ****** ****** ****** ****** ****** ****** ****** ****** ******
   4  ****** ****** ****** ****** ****** ****** ****** ****** ****** ******
      ****** ****** ****** ****** ****** ****** ****** ****** ****** ******
      ****** ****** ****** ****** ****** ****** ****** ****** ****** ******
   5  ****** ****** ****** ****** ****** ****** ****** ****** ****** ******
      ****** ****** ****** ****** ****** ****** ****** ****** ****** ******
      ****** ****** ****** ****** ****** ****** ****** ****** ****** ******
   6  ****** ****** ****** ****** ****** ****** ****** ****** ****** ******
      ****** ****** ****** ****** ****** ****** ****** ****** ****** ******
      ****** ****** ****** ****** ****** ****** ****** ****** ****** ******
   7  ****** ****** ****** ****** ****** ****** ****** ****** ****** ******
      ****** ****** ****** ****** ****** ****** ****** ****** ****** ******
      ****** ****** ****** ****** ****** ****** ****** ****** ****** ******
   8  ****** ****** ****** ****** ****** ****** ****** ****** ****** ******
      ****** ****** ****** ****** ****** ****** ****** ****** ****** ******
      ****** ****** ****** ****** ****** ****** ****** ****** ****** ******
   9  ****** ****** ****** ****** ****** ****** ****** ****** ****** ******
      ****** ****** ****** ****** ****** ****** ****** ****** ****** ******
      ****** ****** ****** ****** ****** ****** ****** ****** ****** ******
  10  ****** ****** ****** ****** ****** ****** ****** ****** ****** ******
      ****** ****** ****** ****** ****** ****** ****** ****** ****** ******
      ****** ****** ****** ****** ****** ****** ****** ****** ****** ******
  11  ****** ****** ****** ****** ****** ****** ****** ****** ****** ******
      ****** ****** ****** ****** ****** ****** ****** ****** ****** ******
      ****** ****** ****** ****** ****** ****** ****** ****** ****** ******
  12  ****** ****** ****** ****** ****** ****** ****** ****** ****** ******
      ****** ****** ****** ****** ****** ****** ****** ****** ****** ******
      ****** ****** ****** ****** ****** ****** ****** ****** ****** ******
  13  ****** ****** ****** ****** ****** ****** ****** ****** ****** ******
      ****** ****** ****** ****** ****** ****** ****** ****** ****** ******
      ****** ****** ****** ****** ****** ****** ****** ****** ****** ******
  14  ****** ****** ****** ****** ****** ****** ****** ****** ****** ******
      ****** ****** ****** ****** ****** ****** ****** ****** ****** ******
      ****** ****** ****** ****** ****** ****** ****** ****** ****** ******
  15  ****** ****** ****** ****** ****** ****** ****** ****** ****** ******
      ****** ****** ****** ****** ****** ****** ****** ****** ****** ******
      ****** ****** ****** ****** ****** ****** ****** ****** ****** ******
  16  ****** ****** ****** ****** ****** ****** ****** ****** ****** ******
      ****** ****** ****** ****** ****** ****** ****** ****** ****** ******
      ****** ****** ****** ****** ****** ****** ****** ****** ****** ******
  17  ****** ****** ****** ****** ****** ****** ****** ****** ****** ******
      ****** ****** ****** ****** ****** ****** ****** ****** ****** ******
      ****** ****** ****** ****** ****** ****** ****** ****** ****** ******
  18  ****** ****** ****** ****** ****** ****** ****** ****** ****** ******
      ****** ****** ****** ****** ****** ****** ****** ****** ****** ******
      ****** ****** ****** ****** ****** ****** ****** ****** ****** ******
  19  ****** ****** ****** ****** ****** ****** ****** ****** ****** ******
      ****** ****** ****** ****** ****** ****** ****** ****** ****** ******
      ****** ****** ****** ****** ****** ****** ****** ****** ****** ******
  20  ****** ****** ****** ****** ****** ****** ****** ****** ****** ******
      ****** ****** ****** ****** ****** ****** ****** ****** ****** ******
      ****** ****** ****** ****** ****** ****** ****** ****** ****** ******
  21  ****** ****** ****** ****** ****** ****** ****** ****** ****** ******
      ****** ****** ****** ****** ****** ****** ****** ****** ****** ******
      ****** ****** ****** ****** ****** ****** ****** ****** ****** ******
  22  ****** ****** ****** ****** ****** ****** ****** ****** ****** ******
      ****** ****** ****** ****** ****** ****** ****** ****** ****** ******
      ****** ****** ****** ****** ****** ****** ****** ****** ****** ******
  23  ****** ****** ****** ****** ****** ****** ****** ****** ****** ******
      ****** ****** ****** ****** ****** ****** ****** ****** ****** ******
      ****** ****** ****** ****** ****** ****** ****** ****** ****** ******
  24  ****** ****** ****** ****** ****** ****** ****** ****** ****** ******
      ****** ****** ****** ****** ****** ****** ****** ****** ****** ******
      ****** ****** ****** ****** ****** ****** ****** ****** ****** ******
  25  ****** ****** ****** ****** ****** ****** ****** ****** ****** ******
      ****** ****** ****** ****** ****** ****** ****** ****** ****** ******
      ****** ****** ****** ****** ****** ****** ****** ****** ****** ******

 HEAD WILL BE SAVED ON UNIT   51 AT END OF TIME STEP    1, STRESS PERIOD    3
1
  VOLUMETRIC BUDGET FOR ENTIRE MODEL AT END OF TIME STEP    1, STRESS PERIOD   3
  ------------------------------------------------------------------------------

     CUMULATIVE VOLUMES      L**3       RATES FOR THIS TIME STEP      L**3/T
     ------------------                 ------------------------

           IN:                                      IN:
           ---                                      ---
             STORAGE =    27600922.4882               STORAGE =       55146.9422
       CONSTANT HEAD =     5066665.1852         CONSTANT HEAD =       25765.4682
               WELLS =           0.0000                 WELLS =           0.0000
            RECHARGE =     6292800.0000              RECHARGE =           0.0000
      STREAM LEAKAGE =     2658958.3520        STREAM LEAKAGE =       13368.5394

            TOTAL IN =    41619346.0254              TOTAL IN =       94280.9497

          OUT:                                     OUT:
          ----                                     ----
             STORAGE =           0.0000               STORAGE =           0.0000
       CONSTANT HEAD =           0.0000         CONSTANT HEAD =           0.0000
               WELLS =     9072795.5906                 WELLS =       33112.3927
            RECHARGE =           0.0000              RECHARGE =           0.0000
      STREAM LEAKAGE =    32546552.2801        STREAM LEAKAGE =       61168.5645

           TOTAL OUT =    41619347.8707             TOTAL OUT =       94280.9571

            IN - OUT =          -1.8452              IN - OUT =      -7.3959E-03

 PERCENT DISCREPANCY =          -0.00     PERCENT DISCREPANCY =          -0.00






         TIME SUMMARY AT END OF TIME STEP    1 IN STRESS PERIOD    3
                    SECONDS     MINUTES      HOURS       DAYS        YEARS
                    -----------------------------------------------------------
   TIME STEP LENGTH 7.86240E+06 1.31040E+05  2184.0      91.000     0.24914    
 STRESS PERIOD TIME 7.86240E+06 1.31040E+05  2184.0      91.000     0.24914    
         TOTAL TIME 2.36736E+07 3.94560E+05  6576.0      274.00     0.75017    
1
1
                            STRESS PERIOD NO.    4, LENGTH =   91.00000    
                            -----------------------------------------------

                              NUMBER OF TIME STEPS =     1

                               MULTIPLIER FOR DELT =     1.500

                            INITIAL TIME STEP SIZE =   91.00000    

 WELL NO.  LAYER   ROW   COL   STRESS RATE         
 --------------------------------------------------
      1      1     14      6       0.000    
      2      1      3      9       0.000    
      3      1     20     10       0.000    
      4      1     14     20       0.000    
      5      1     11     23      -9982.    
      6      1     13     22      -7684.    
      7      1      6     18      -7790.    
      8      1      7     23      -7655.    

      8 WELLS

                 RECHARGE =  1.000000E-03

 REUSING STREAM SEGMENT DATA FROM LAST STRESS PERIOD
 
 SOLVING FOR HEAD 


     6 CALLS TO PCG ROUTINE FOR TIME STEP   1 IN STRESS PERIOD    4
    23 TOTAL ITERATIONS

 OUTPUT CONTROL FOR STRESS PERIOD    4   TIME STEP    1
    SAVE BUDGET
    SAVE HEAD FOR ALL LAYERS
    PRINT HEAD FOR ALL LAYERS
 UBDSV2 SAVING "STREAMFLOW OUT  " ON UNIT  50 AT TIME STEP  1, STRESS PERIOD   4



 STREAM LISTING     PERIOD      4   STEP        1

 LAYER ROW COL. STREAM  RCH.  FLOW INTO     FLOW TO   FLOW OUT OF   OVRLND.     DIRECT     STREAM       STREAM     STREAM     STREAM   STREAMBED  STREAMBED
                SEG.NO.  NO.  STRM. RCH.    AQUIFER    STRM. RCH.    RUNOFF     PRECIP       ET          HEAD       DEPTH      WIDTH   CONDCTNC.   GRADIENT

   1   13    1     1     1    1.0000E+05 -2.4923E+03   1.0249E+05  0.000E+00  0.000E+00  0.000E+00  4.84071E+01  1.457E-01  2.000E+01  2.000E+04 -1.246E-01
   1   13    2     1     2    1.0249E+05 -3.5603E+03   1.0605E+05  0.000E+00  0.000E+00  0.000E+00  4.79324E+01  1.483E-01  2.000E+01  2.000E+04 -1.780E-01
   1   14    3     1     3    1.0605E+05 -6.2598E+02   1.0668E+05  0.000E+00  0.000E+00  0.000E+00  4.74569E+01  1.501E-01  2.000E+01  2.000E+04 -3.130E-02
   1   15    4     1     4    1.0668E+05 -6.0152E+02   1.0728E+05  0.000E+00  0.000E+00  0.000E+00  4.69802E+01  1.506E-01  2.000E+01  2.000E+04 -3.008E-02
   1   16    5     1     5    1.0728E+05 -2.1762E+03   1.0946E+05  0.000E+00  0.000E+00  0.000E+00  4.65041E+01  1.518E-01  2.000E+01  2.000E+04 -1.088E-01
   1   16    6     1     6    1.0946E+05 -1.3683E+03   1.1082E+05  0.000E+00  0.000E+00  0.000E+00  4.60283E+01  1.533E-01  2.000E+01  2.000E+04 -6.842E-02
   1   16    7     1     7    1.1082E+05 -1.3447E+03   1.1217E+05  0.000E+00  0.000E+00  0.000E+00  4.55521E+01  1.544E-01  2.000E+01  2.000E+04 -6.724E-02
   1   16    8     1     8    1.1217E+05 -1.3400E+03   1.1351E+05  0.000E+00  0.000E+00  0.000E+00  4.50760E+01  1.555E-01  2.000E+01  2.000E+04 -6.700E-02
   1   16    9     1     9    1.1351E+05 -1.3296E+03   1.1484E+05  0.000E+00  0.000E+00  0.000E+00  4.45998E+01  1.566E-01  2.000E+01  2.000E+04 -6.648E-02
   1   16   10     1    10    1.1484E+05 -1.3133E+03   1.1615E+05  0.000E+00  0.000E+00  0.000E+00  4.41236E+01  1.577E-01  2.000E+01  2.000E+04 -6.567E-02
   1   16   11     1    11    1.1615E+05 -1.3200E+03   1.1747E+05  0.000E+00  0.000E+00  0.000E+00  4.36474E+01  1.588E-01  2.000E+01  2.000E+04 -6.600E-02
   1   16   12     1    12    1.1747E+05 -2.2894E+03   1.1976E+05  0.000E+00  0.000E+00  0.000E+00  4.31716E+01  1.603E-01  2.000E+01  2.000E+04 -1.145E-01
   1   15   13     1    13    1.1976E+05 -2.1591E+03   1.2192E+05  0.000E+00  0.000E+00  0.000E+00  4.26961E+01  1.621E-01  2.000E+01  2.000E+04 -1.080E-01
   1   14   14     1    14    1.2192E+05 -2.3702E+03   1.2429E+05  0.000E+00  0.000E+00  0.000E+00  4.22207E+01  1.639E-01  2.000E+01  2.000E+04 -1.185E-01
   1   13   15     1    15    1.2429E+05 -2.5207E+03   1.2681E+05  0.000E+00  0.000E+00  0.000E+00  4.17454E+01  1.658E-01  2.000E+01  2.000E+04 -1.260E-01
   1   12   16     1    16    1.2681E+05 -2.7219E+03   1.2953E+05  0.000E+00  0.000E+00  0.000E+00  4.12702E+01  1.679E-01  2.000E+01  2.000E+04 -1.361E-01
   1   12   17     1    17    1.2953E+05 -1.6005E+03   1.3113E+05  0.000E+00  0.000E+00  0.000E+00  4.07946E+01  1.696E-01  2.000E+01  2.000E+04 -8.002E-02
   1   12   18     1    18    1.3113E+05 -1.3095E+03   1.3244E+05  0.000E+00  0.000E+00  0.000E+00  4.03184E+01  1.707E-01  2.000E+01  2.000E+04 -6.548E-02
   1   12   19     1    19    1.3244E+05 -7.8105E+02   1.3322E+05  0.000E+00  0.000E+00  0.000E+00  3.98420E+01  1.715E-01  2.000E+01  2.000E+04 -3.905E-02
   1   13   20     1    20    1.3322E+05  1.3216E+02   1.3309E+05  0.000E+00  0.000E+00  0.000E+00  3.93650E+01  1.718E-01  2.000E+01  2.000E+04  6.608E-03
   1   14   21     1    21    1.3309E+05 -6.7140E+02   1.3376E+05  0.000E+00  0.000E+00  0.000E+00  3.88879E+01  1.720E-01  2.000E+01  2.000E+04 -3.357E-02
   1   14   22     1    22    1.3376E+05  6.1610E+03   1.2760E+05  0.000E+00  0.000E+00  0.000E+00  3.84085E+01  1.698E-01  2.000E+01  2.000E+04  3.080E-01
   1    9   30     2     1    5.0000E+04 -4.6537E+02   5.0465E+04  0.000E+00  0.000E+00  0.000E+00  4.02412E+01  1.162E-01  2.000E+01  2.000E+04 -2.327E-02
   1    9   29     2     2    5.0465E+04 -7.1148E+02   5.1177E+04  0.000E+00  0.000E+00  0.000E+00  3.99920E+01  1.170E-01  2.000E+01  2.000E+04 -3.557E-02
   1    9   28     2     3    5.1177E+04 -8.2531E+02   5.2002E+04  0.000E+00  0.000E+00  0.000E+00  3.97431E+01  1.181E-01  2.000E+01  2.000E+04 -4.127E-02
   1    9   27     2     4    5.2002E+04 -1.2254E+03   5.3228E+04  0.000E+00  0.000E+00  0.000E+00  3.94945E+01  1.195E-01  2.000E+01  2.000E+04 -6.127E-02
   1   10   26     2     5    5.3228E+04 -1.3429E+02   5.3362E+04  0.000E+00  0.000E+00  0.000E+00  3.92454E+01  1.204E-01  2.000E+01  2.000E+04 -6.715E-03
   1   11   25     2     6    5.3362E+04  1.2329E+03   5.2129E+04  0.000E+00  0.000E+00  0.000E+00  3.89946E+01  1.196E-01  2.000E+01  2.000E+04  6.164E-02
   1   12   24     2     7    5.2129E+04  2.7533E+03   4.9376E+04  0.000E+00  0.000E+00  0.000E+00  3.87419E+01  1.169E-01  2.000E+01  2.000E+04  1.377E-01
   1   13   23     2     8    4.9376E+04  8.9177E+02   4.8484E+04  0.000E+00  0.000E+00  0.000E+00  3.84894E+01  1.144E-01  2.000E+01  2.000E+04  4.459E-02
   1   14   22     2     9    4.8484E+04  2.7276E+03   4.5756E+04  0.000E+00  0.000E+00  0.000E+00  3.82368E+01  1.118E-01  2.000E+01  2.000E+04  1.364E-01
   1   14   22     3     1    1.7336E+05 -7.5147E+03   1.8087E+05  0.000E+00  0.000E+00  0.000E+00  3.77247E+01  1.691E-01  2.000E+01  2.000E+04 -3.757E-01
   1   15   23     3     2    1.8087E+05 -6.4508E+02   1.8152E+05  0.000E+00  0.000E+00  0.000E+00  3.68381E+01  1.715E-01  2.000E+01  2.000E+04 -3.225E-02
   1   15   24     3     3    1.8152E+05 -3.4452E+02   1.8186E+05  0.000E+00  0.000E+00  0.000E+00  3.59495E+01  1.718E-01  2.000E+01  2.000E+04 -1.723E-02
   1   15   25     3     4    1.8186E+05 -3.3319E+02   1.8220E+05  0.000E+00  0.000E+00  0.000E+00  3.50608E+01  1.719E-01  2.000E+01  2.000E+04 -1.666E-02
   1   15   26     3     5    1.8220E+05 -3.7843E+02   1.8258E+05  0.000E+00  0.000E+00  0.000E+00  3.41721E+01  1.721E-01  2.000E+01  2.000E+04 -1.892E-02
   1   16   27     3     6    1.8258E+05 -4.3667E+02   1.8301E+05  0.000E+00  0.000E+00  0.000E+00  3.32835E+01  1.724E-01  2.000E+01  2.000E+04 -2.183E-02
   1   17   28     3     7    1.8301E+05 -1.7943E+03   1.8481E+05  0.000E+00  0.000E+00  0.000E+00  3.23952E+01  1.730E-01  2.000E+01  2.000E+04 -8.971E-02
   1   18   29     3     8    1.8481E+05 -3.3538E+03   1.8816E+05  0.000E+00  0.000E+00  0.000E+00  3.15078E+01  1.745E-01  2.000E+01  2.000E+04 -1.677E-01
   1   18   30     3     9    1.8816E+05 -3.4588E+03   1.9162E+05  0.000E+00  0.000E+00  0.000E+00  3.06208E+01  1.764E-01  2.000E+01  2.000E+04 -1.729E-01



1
              HEAD IN LAYER   1 AT END OF TIME STEP   1 IN STRESS PERIOD    4
  ---------------------------------------------------------------------------

          1      2      3      4      5      6      7      8      9     10
         11     12     13     14     15     16     17     18     19     20
         21     22     23     24     25     26     27     28     29     30
 .........................................................................
   1  ****** ****** ****** ****** ****** ****** ****** ****** ****** ******
      ****** ****** ****** ****** ****** ****** ****** ****** ****** ******
      ****** ****** ****** ****** ****** ****** ****** ****** ****** ******
   2  ****** ****** ****** ****** ****** ****** ****** ****** ****** ******
      ****** ****** ****** ****** ****** ****** ****** ****** ****** ******
      ****** ****** ****** ****** ****** ****** ****** ****** ****** ******
   3  ****** ****** ****** ****** ****** ****** ****** ****** ****** ******
      ****** ****** ****** ****** ****** ****** ****** ****** ****** ******
      ****** ****** ****** ****** ****** ****** ****** ****** ****** ******
   4  ****** ****** ****** ****** ****** ****** ****** ****** ****** ******
      ****** ****** ****** ****** ****** ****** ****** ****** ****** ******
      ****** ****** ****** ****** ****** ****** ****** ****** ****** ******
   5  ****** ****** ****** ****** ****** ****** ****** ****** ****** ******
      ****** ****** ****** ****** ****** ****** ****** ****** ****** ******
      ****** ****** ****** ****** ****** ****** ****** ****** ****** ******
   6  ****** ****** ****** ****** ****** ****** ****** ****** ****** ******
      ****** ****** ****** ****** ****** ****** ****** ****** ****** ******
      ****** ****** ****** ****** ****** ****** ****** ****** ****** ******
   7  ****** ****** ****** ****** ****** ****** ****** ****** ****** ******
      ****** ****** ****** ****** ****** ****** ****** ****** ****** ******
      ****** ****** ****** ****** ****** ****** ****** ****** ****** ******
   8  ****** ****** ****** ****** ****** ****** ****** ****** ****** ******
      ****** ****** ****** ****** ****** ****** ****** ****** ****** ******
      ****** ****** ****** ****** ****** ****** ****** ****** ****** ******
   9  ****** ****** ****** ****** ****** ****** ****** ****** ****** ******
      ****** ****** ****** ****** ****** ****** ****** ****** ****** ******
      ****** ****** ****** ****** ****** ****** ****** ****** ****** ******
  10  ****** ****** ****** ****** ****** ****** ****** ****** ****** ******
      ****** ****** ****** ****** ****** ****** ****** ****** ****** ******
      ****** ****** ****** ****** ****** ****** ****** ****** ****** ******
  11  ****** ****** ****** ****** ****** ****** ****** ****** ****** ******
      ****** ****** ****** ****** ****** ****** ****** ****** ****** ******
      ****** ****** ****** ****** ****** ****** ****** ****** ****** ******
  12  ****** ****** ****** ****** ****** ****** ****** ****** ****** ******
      ****** ****** ****** ****** ****** ****** ****** ****** ****** ******
      ****** ****** ****** ****** ****** ****** ****** ****** ****** ******
  13  ****** ****** ****** ****** ****** ****** ****** ****** ****** ******
      ****** ****** ****** ****** ****** ****** ****** ****** ****** ******
      ****** ****** ****** ****** ****** ****** ****** ****** ****** ******
  14  ****** ****** ****** ****** ****** ****** ****** ****** ****** ******
      ****** ****** ****** ****** ****** ****** ****** ****** ****** ******
      ****** ****** ****** ****** ****** ****** ****** ****** ****** ******
  15  ****** ****** ****** ****** ****** ****** ****** ****** ****** ******
      ****** ****** ****** ****** ****** ****** ****** ****** ****** ******
      ****** ****** ****** ****** ****** ****** ****** ****** ****** ******
  16  ****** ****** ****** ****** ****** ****** ****** ****** ****** ******
      ****** ****** ****** ****** ****** ****** ****** ****** ****** ******
      ****** ****** ****** ****** ****** ****** ****** ****** ****** ******
  17  ****** ****** ****** ****** ****** ****** ****** ****** ****** ******
      ****** ****** ****** ****** ****** ****** ****** ****** ****** ******
      ****** ****** ****** ****** ****** ****** ****** ****** ****** ******
  18  ****** ****** ****** ****** ****** ****** ****** ****** ****** ******
      ****** ****** ****** ****** ****** ****** ****** ****** ****** ******
      ****** ****** ****** ****** ****** ****** ****** ****** ****** ******
  19  ****** ****** ****** ****** ****** ****** ****** ****** ****** ******
      ****** ****** ****** ****** ****** ****** ****** ****** ****** ******
      ****** ****** ****** ****** ****** ****** ****** ****** ****** ******
  20  ****** ****** ****** ****** ****** ****** ****** ****** ****** ******
      ****** ****** ****** ****** ****** ****** ****** ****** ****** ******
      ****** ****** ****** ****** ****** ****** ****** ****** ****** ******
  21  ****** ****** ****** ****** ****** ****** ****** ****** ****** ******
      ****** ****** ****** ****** ****** ****** ****** ****** ****** ******
      ****** ****** ****** ****** ****** ****** ****** ****** ****** ******
  22  ****** ****** ****** ****** ****** ****** ****** ****** ****** ******
      ****** ****** ****** ****** ****** ****** ****** ****** ****** ******
      ****** ****** ****** ****** ****** ****** ****** ****** ****** ******
  23  ****** ****** ****** ****** ****** ****** ****** ****** ****** ******
      ****** ****** ****** ****** ****** ****** ****** ****** ****** ******
      ****** ****** ****** ****** ****** ****** ****** ****** ****** ******
  24  ****** ****** ****** ****** ****** ****** ****** ****** ****** ******
      ****** ****** ****** ****** ****** ****** ****** ****** ****** ******
      ****** ****** ****** ****** ****** ****** ****** ****** ****** ******
  25  ****** ****** ****** ****** ****** ****** ****** ****** ****** ******
      ****** ****** ****** ****** ****** ****** ****** ****** ****** ******
      ****** ****** ****** ****** ****** ****** ****** ****** ****** ******

 HEAD WILL BE SAVED ON UNIT   51 AT END OF TIME STEP    1, STRESS PERIOD    4
1
  VOLUMETRIC BUDGET FOR ENTIRE MODEL AT END OF TIME STEP    1, STRESS PERIOD   4
  ------------------------------------------------------------------------------

     CUMULATIVE VOLUMES      L**3       RATES FOR THIS TIME STEP      L**3/T
     ------------------                 ------------------------

           IN:                                      IN:
           ---                                      ---
             STORAGE =    29306331.5344               STORAGE =       18740.7587
       CONSTANT HEAD =     7651353.0114         CONSTANT HEAD =       28403.1629
               WELLS =           0.0000                 WELLS =           0.0000
            RECHARGE =     8804400.0000              RECHARGE =       27600.0000
      STREAM LEAKAGE =     3923734.2018        STREAM LEAKAGE =       13898.6357

            TOTAL IN =    49685818.7477              TOTAL IN =       88642.5574

          OUT:                                     OUT:
          ----                                     ----
             STORAGE =        1137.2451               STORAGE =          12.4972
       CONSTANT HEAD =           0.0000         CONSTANT HEAD =           0.0000
               WELLS =    12086023.3233                 WELLS =       33112.3927
            RECHARGE =           0.0000              RECHARGE =           0.0000
      STREAM LEAKAGE =    37598660.0954        STREAM LEAKAGE =       55517.6683

           TOTAL OUT =    49685820.6637             TOTAL OUT =       88642.5582

            IN - OUT =          -1.9160              IN - OUT =      -7.7736E-04

 PERCENT DISCREPANCY =          -0.00     PERCENT DISCREPANCY =          -0.00






         TIME SUMMARY AT END OF TIME STEP    1 IN STRESS PERIOD    4
                    SECONDS     MINUTES      HOURS       DAYS        YEARS
                    -----------------------------------------------------------
   TIME STEP LENGTH 7.86240E+06 1.31040E+05  2184.0      91.000     0.24914    
 STRESS PERIOD TIME 7.86240E+06 1.31040E+05  2184.0      91.000     0.24914    
         TOTAL TIME 3.15360E+07 5.25600E+05  8760.0      365.00     0.99932    
1
1
                            STRESS PERIOD NO.    5, LENGTH =   92.00000    
                            -----------------------------------------------

                              NUMBER OF TIME STEPS =     1

                               MULTIPLIER FOR DELT =     1.500

                            INITIAL TIME STEP SIZE =   92.00000    

 WELL NO.  LAYER   ROW   COL   STRESS RATE         
 --------------------------------------------------
      1      1     14      6       0.000    
      2      1      3      9       0.000    
      3      1     20     10       0.000    
      4      1     14     20       0.000    
      5      1     11     23      -9982.    
      6      1     13     22      -7684.    
      7      1      6     18      -7790.    
      8      1      7     23      -7655.    

      8 WELLS

                 RECHARGE =  5.000000E-04

 REUSING STREAM SEGMENT DATA FROM LAST STRESS PERIOD
 
 SOLVING FOR HEAD 


     7 CALLS TO PCG ROUTINE FOR TIME STEP   1 IN STRESS PERIOD    5
    26 TOTAL ITERATIONS

 OUTPUT CONTROL FOR STRESS PERIOD    5   TIME STEP    1
    SAVE BUDGET
    SAVE HEAD FOR ALL LAYERS
    PRINT HEAD FOR ALL LAYERS
 UBDSV2 SAVING "STREAMFLOW OUT  " ON UNIT  50 AT TIME STEP  1, STRESS PERIOD   5



 STREAM LISTING     PERIOD      5   STEP        1

 LAYER ROW COL. STREAM  RCH.  FLOW INTO     FLOW TO   FLOW OUT OF   OVRLND.     DIRECT     STREAM       STREAM     STREAM     STREAM   STREAMBED  STREAMBED
                SEG.NO.  NO.  STRM. RCH.    AQUIFER    STRM. RCH.    RUNOFF     PRECIP       ET          HEAD       DEPTH      WIDTH   CONDCTNC.   GRADIENT

   1   13    1     1     1    1.0000E+05 -2.0704E+03   1.0207E+05  0.000E+00  0.000E+00  0.000E+00  4.84069E+01  1.455E-01  2.000E+01  2.000E+04 -1.035E-01
   1   13    2     1     2    1.0207E+05 -3.0835E+03   1.0515E+05  0.000E+00  0.000E+00  0.000E+00  4.79319E+01  1.478E-01  2.000E+01  2.000E+04 -1.542E-01
   1   14    3     1     3    1.0515E+05 -5.0338E+02   1.0566E+05  0.000E+00  0.000E+00  0.000E+00  4.74561E+01  1.493E-01  2.000E+01  2.000E+04 -2.517E-02
   1   15    4     1     4    1.0566E+05 -4.7286E+02   1.0613E+05  0.000E+00  0.000E+00  0.000E+00  4.69793E+01  1.497E-01  2.000E+01  2.000E+04 -2.364E-02
   1   16    5     1     5    1.0613E+05 -1.7504E+03   1.0788E+05  0.000E+00  0.000E+00  0.000E+00  4.65029E+01  1.506E-01  2.000E+01  2.000E+04 -8.752E-02
   1   16    6     1     6    1.0788E+05 -1.1188E+03   1.0900E+05  0.000E+00  0.000E+00  0.000E+00  4.60269E+01  1.519E-01  2.000E+01  2.000E+04 -5.594E-02
   1   16    7     1     7    1.0900E+05 -1.1056E+03   1.1010E+05  0.000E+00  0.000E+00  0.000E+00  4.55505E+01  1.528E-01  2.000E+01  2.000E+04 -5.528E-02
   1   16    8     1     8    1.1010E+05 -1.1048E+03   1.1121E+05  0.000E+00  0.000E+00  0.000E+00  4.50742E+01  1.537E-01  2.000E+01  2.000E+04 -5.524E-02
   1   16    9     1     9    1.1121E+05 -1.0978E+03   1.1231E+05  0.000E+00  0.000E+00  0.000E+00  4.45978E+01  1.546E-01  2.000E+01  2.000E+04 -5.489E-02
   1   16   10     1    10    1.1231E+05 -1.0856E+03   1.1339E+05  0.000E+00  0.000E+00  0.000E+00  4.41214E+01  1.555E-01  2.000E+01  2.000E+04 -5.428E-02
   1   16   11     1    11    1.1339E+05 -1.0931E+03   1.1449E+05  0.000E+00  0.000E+00  0.000E+00  4.36451E+01  1.564E-01  2.000E+01  2.000E+04 -5.465E-02
   1   16   12     1    12    1.1449E+05 -1.8830E+03   1.1637E+05  0.000E+00  0.000E+00  0.000E+00  4.31690E+01  1.577E-01  2.000E+01  2.000E+04 -9.415E-02
   1   15   13     1    13    1.1637E+05 -1.7228E+03   1.1809E+05  0.000E+00  0.000E+00  0.000E+00  4.26932E+01  1.591E-01  2.000E+01  2.000E+04 -8.614E-02
   1   14   14     1    14    1.1809E+05 -1.8998E+03   1.1999E+05  0.000E+00  0.000E+00  0.000E+00  4.22174E+01  1.606E-01  2.000E+01  2.000E+04 -9.499E-02
   1   13   15     1    15    1.1999E+05 -2.0252E+03   1.2202E+05  0.000E+00  0.000E+00  0.000E+00  4.17417E+01  1.622E-01  2.000E+01  2.000E+04 -1.013E-01
   1   12   16     1    16    1.2202E+05 -2.1645E+03   1.2418E+05  0.000E+00  0.000E+00  0.000E+00  4.12661E+01  1.639E-01  2.000E+01  2.000E+04 -1.082E-01
   1   12   17     1    17    1.2418E+05 -1.2296E+03   1.2541E+05  0.000E+00  0.000E+00  0.000E+00  4.07902E+01  1.652E-01  2.000E+01  2.000E+04 -6.148E-02
   1   12   18     1    18    1.2541E+05 -9.5632E+02   1.2637E+05  0.000E+00  0.000E+00  0.000E+00  4.03138E+01  1.661E-01  2.000E+01  2.000E+04 -4.782E-02
   1   12   19     1    19    1.2637E+05 -3.4708E+02   1.2671E+05  0.000E+00  0.000E+00  0.000E+00  3.98371E+01  1.666E-01  2.000E+01  2.000E+04 -1.735E-02
   1   13   20     1    20    1.2671E+05  4.9408E+02   1.2622E+05  0.000E+00  0.000E+00  0.000E+00  3.93597E+01  1.665E-01  2.000E+01  2.000E+04  2.470E-02
   1   14   21     1    21    1.2622E+05 -3.0074E+02   1.2652E+05  0.000E+00  0.000E+00  0.000E+00  3.88824E+01  1.665E-01  2.000E+01  2.000E+04 -1.504E-02
   1   14   22     1    22    1.2652E+05  6.2428E+03   1.2028E+05  0.000E+00  0.000E+00  0.000E+00  3.84027E+01  1.641E-01  2.000E+01  2.000E+04  3.121E-01
   1    9   30     2     1    5.0000E+04 -2.1956E+02   5.0220E+04  0.000E+00  0.000E+00  0.000E+00  4.02410E+01  1.160E-01  2.000E+01  2.000E+04 -1.098E-02
   1    9   29     2     2    5.0220E+04 -4.6133E+02   5.0681E+04  0.000E+00  0.000E+00  0.000E+00  3.99915E+01  1.165E-01  2.000E+01  2.000E+04 -2.307E-02
   1    9   28     2     3    5.0681E+04 -5.6112E+02   5.1242E+04  0.000E+00  0.000E+00  0.000E+00  3.97422E+01  1.172E-01  2.000E+01  2.000E+04 -2.806E-02
   1    9   27     2     4    5.1242E+04 -8.0314E+02   5.2045E+04  0.000E+00  0.000E+00  0.000E+00  3.94931E+01  1.181E-01  2.000E+01  2.000E+04 -4.016E-02
   1   10   26     2     5    5.2045E+04  2.3019E+02   5.1815E+04  0.000E+00  0.000E+00  0.000E+00  3.92435E+01  1.185E-01  2.000E+01  2.000E+04  1.151E-02
   1   11   25     2     6    5.1815E+04  1.5661E+03   5.0249E+04  0.000E+00  0.000E+00  0.000E+00  3.89923E+01  1.173E-01  2.000E+01  2.000E+04  7.830E-02
   1   12   24     2     7    5.0249E+04  3.0578E+03   4.7191E+04  0.000E+00  0.000E+00  0.000E+00  3.87391E+01  1.141E-01  2.000E+01  2.000E+04  1.529E-01
   1   13   23     2     8    4.7191E+04  9.6320E+02   4.6228E+04  0.000E+00  0.000E+00  0.000E+00  3.84862E+01  1.112E-01  2.000E+01  2.000E+04  4.816E-02
   1   14   22     2     9    4.6228E+04  2.8576E+03   4.3370E+04  0.000E+00  0.000E+00  0.000E+00  3.82335E+01  1.085E-01  2.000E+01  2.000E+04  1.429E-01
   1   14   22     3     1    1.6365E+05 -7.4310E+03   1.7108E+05  0.000E+00  0.000E+00  0.000E+00  3.77190E+01  1.635E-01  2.000E+01  2.000E+04 -3.715E-01
   1   15   23     3     2    1.7108E+05 -5.4919E+02   1.7163E+05  0.000E+00  0.000E+00  0.000E+00  3.68325E+01  1.658E-01  2.000E+01  2.000E+04 -2.746E-02
   1   15   24     3     3    1.7163E+05 -2.7364E+02   1.7190E+05  0.000E+00  0.000E+00  0.000E+00  3.59438E+01  1.661E-01  2.000E+01  2.000E+04 -1.368E-02
   1   15   25     3     4    1.7190E+05 -2.6271E+02   1.7217E+05  0.000E+00  0.000E+00  0.000E+00  3.50551E+01  1.662E-01  2.000E+01  2.000E+04 -1.314E-02
   1   15   26     3     5    1.7217E+05 -3.0680E+02   1.7247E+05  0.000E+00  0.000E+00  0.000E+00  3.41664E+01  1.664E-01  2.000E+01  2.000E+04 -1.534E-02
   1   16   27     3     6    1.7247E+05 -3.4707E+02   1.7282E+05  0.000E+00  0.000E+00  0.000E+00  3.32777E+01  1.666E-01  2.000E+01  2.000E+04 -1.735E-02
   1   17   28     3     7    1.7282E+05 -1.5297E+03   1.7435E+05  0.000E+00  0.000E+00  0.000E+00  3.23893E+01  1.671E-01  2.000E+01  2.000E+04 -7.648E-02
   1   18   29     3     8    1.7435E+05 -2.9871E+03   1.7734E+05  0.000E+00  0.000E+00  0.000E+00  3.15017E+01  1.684E-01  2.000E+01  2.000E+04 -1.494E-01
   1   18   30     3     9    1.7734E+05 -3.2057E+03   1.8054E+05  0.000E+00  0.000E+00  0.000E+00  3.06146E+01  1.702E-01  2.000E+01  2.000E+04 -1.603E-01



1
              HEAD IN LAYER   1 AT END OF TIME STEP   1 IN STRESS PERIOD    5
  ---------------------------------------------------------------------------

          1      2      3      4      5      6      7      8      9     10
         11     12     13     14     15     16     17     18     19     20
         21     22     23     24     25     26     27     28     29     30
 .........................................................................
   1  ****** ****** ****** ****** ****** ****** ****** ****** ****** ******
      ****** ****** ****** ****** ****** ****** ****** ****** ****** ******
      ****** ****** ****** ****** ****** ****** ****** ****** ****** ******
   2  ****** ****** ****** ****** ****** ****** ****** ****** ****** ******
      ****** ****** ****** ****** ****** ****** ****** ****** ****** ******
      ****** ****** ****** ****** ****** ****** ****** ****** ****** ******
   3  ****** ****** ****** ****** ****** ****** ****** ****** ****** ******
      ****** ****** ****** ****** ****** ****** ****** ****** ****** ******
      ****** ****** ****** ****** ****** ****** ****** ****** ****** ******
   4  ****** ****** ****** ****** ****** ****** ****** ****** ****** ******
      ****** ****** ****** ****** ****** ****** ****** ****** ****** ******
      ****** ****** ****** ****** ****** ****** ****** ****** ****** ******
   5  ****** ****** ****** ****** ****** ****** ****** ****** ****** ******
      ****** ****** ****** ****** ****** ****** ****** ****** ****** ******
      ****** ****** ****** ****** ****** ****** ****** ****** ****** ******
   6  ****** ****** ****** ****** ****** ****** ****** ****** ****** ******
      ****** ****** ****** ****** ****** ****** ****** ****** ****** ******
      ****** ****** ****** ****** ****** ****** ****** ****** ****** ******
   7  ****** ****** ****** ****** ****** ****** ****** ****** ****** ******
      ****** ****** ****** ****** ****** ****** ****** ****** ****** ******
      ****** ****** ****** ****** ****** ****** ****** ****** ****** ******
   8  ****** ****** ****** ****** ****** ****** ****** ****** ****** ******
      ****** ****** ****** ****** ****** ****** ****** ****** ****** ******
      ****** ****** ****** ****** ****** ****** ****** ****** ****** ******
   9  ****** ****** ****** ****** ****** ****** ****** ****** ****** ******
      ****** ****** ****** ****** ****** ****** ****** ****** ****** ******
      ****** ****** ****** ****** ****** ****** ****** ****** ****** ******
  10  ****** ****** ****** ****** ****** ****** ****** ****** ****** ******
      ****** ****** ****** ****** ****** ****** ****** ****** ****** ******
      ****** ****** ****** ****** ****** ****** ****** ****** ****** ******
  11  ****** ****** ****** ****** ****** ****** ****** ****** ****** ******
      ****** ****** ****** ****** ****** ****** ****** ****** ****** ******
      ****** ****** ****** ****** ****** ****** ****** ****** ****** ******
  12  ****** ****** ****** ****** ****** ****** ****** ****** ****** ******
      ****** ****** ****** ****** ****** ****** ****** ****** ****** ******
      ****** ****** ****** ****** ****** ****** ****** ****** ****** ******
  13  ****** ****** ****** ****** ****** ****** ****** ****** ****** ******
      ****** ****** ****** ****** ****** ****** ****** ****** ****** ******
      ****** ****** ****** ****** ****** ****** ****** ****** ****** ******
  14  ****** ****** ****** ****** ****** ****** ****** ****** ****** ******
      ****** ****** ****** ****** ****** ****** ****** ****** ****** ******
      ****** ****** ****** ****** ****** ****** ****** ****** ****** ******
  15  ****** ****** ****** ****** ****** ****** ****** ****** ****** ******
      ****** ****** ****** ****** ****** ****** ****** ****** ****** ******
      ****** ****** ****** ****** ****** ****** ****** ****** ****** ******
  16  ****** ****** ****** ****** ****** ****** ****** ****** ****** ******
      ****** ****** ****** ****** ****** ****** ****** ****** ****** ******
      ****** ****** ****** ****** ****** ****** ****** ****** ****** ******
  17  ****** ****** ****** ****** ****** ****** ****** ****** ****** ******
      ****** ****** ****** ****** ****** ****** ****** ****** ****** ******
      ****** ****** ****** ****** ****** ****** ****** ****** ****** ******
  18  ****** ****** ****** ****** ****** ****** ****** ****** ****** ******
      ****** ****** ****** ****** ****** ****** ****** ****** ****** ******
      ****** ****** ****** ****** ****** ****** ****** ****** ****** ******
  19  ****** ****** ****** ****** ****** ****** ****** ****** ****** ******
      ****** ****** ****** ****** ****** ****** ****** ****** ****** ******
      ****** ****** ****** ****** ****** ****** ****** ****** ****** ******
  20  ****** ****** ****** ****** ****** ****** ****** ****** ****** ******
      ****** ****** ****** ****** ****** ****** ****** ****** ****** ******
      ****** ****** ****** ****** ****** ****** ****** ****** ****** ******
  21  ****** ****** ****** ****** ****** ****** ****** ****** ****** ******
      ****** ****** ****** ****** ****** ****** ****** ****** ****** ******
      ****** ****** ****** ****** ****** ****** ****** ****** ****** ******
  22  ****** ****** ****** ****** ****** ****** ****** ****** ****** ******
      ****** ****** ****** ****** ****** ****** ****** ****** ****** ******
      ****** ****** ****** ****** ****** ****** ****** ****** ****** ******
  23  ****** ****** ****** ****** ****** ****** ****** ****** ****** ******
      ****** ****** ****** ****** ****** ****** ****** ****** ****** ******
      ****** ****** ****** ****** ****** ****** ****** ****** ****** ******
  24  ****** ****** ****** ****** ****** ****** ****** ****** ****** ******
      ****** ****** ****** ****** ****** ****** ****** ****** ****** ******
      ****** ****** ****** ****** ****** ****** ****** ****** ****** ******
  25  ****** ****** ****** ****** ****** ****** ****** ****** ****** ******
      ****** ****** ****** ****** ****** ****** ****** ****** ****** ******
      ****** ****** ****** ****** ****** ****** ****** ****** ****** ******

 HEAD WILL BE SAVED ON UNIT   51 AT END OF TIME STEP    1, STRESS PERIOD    5
1
  VOLUMETRIC BUDGET FOR ENTIRE MODEL AT END OF TIME STEP    1, STRESS PERIOD   5
  ------------------------------------------------------------------------------

     CUMULATIVE VOLUMES      L**3       RATES FOR THIS TIME STEP      L**3/T
     ------------------                 ------------------------

           IN:                                      IN:
           ---                                      ---
             STORAGE =    31008451.5679               STORAGE =       18501.3047
       CONSTANT HEAD =    10535798.2635         CONSTANT HEAD =       31352.6658
               WELLS =           0.0000                 WELLS =           0.0000
            RECHARGE =    10074000.0000              RECHARGE =       13800.0000
      STREAM LEAKAGE =     5341617.5773        STREAM LEAKAGE =       15411.7758

            TOTAL IN =    56959867.4087              TOTAL IN =       79065.7463

          OUT:                                     OUT:
          ----                                     ----
             STORAGE =        1137.2451               STORAGE =           0.0000
       CONSTANT HEAD =           0.0000         CONSTANT HEAD =           0.0000
               WELLS =    15132363.4486                 WELLS =       33112.3927
            RECHARGE =           0.0000              RECHARGE =           0.0000
      STREAM LEAKAGE =    41826368.9126        STREAM LEAKAGE =       45953.3567

           TOTAL OUT =    56959869.6062             TOTAL OUT =       79065.7494

            IN - OUT =          -2.1975              IN - OUT =      -3.0599E-03

 PERCENT DISCREPANCY =          -0.00     PERCENT DISCREPANCY =          -0.00






         TIME SUMMARY AT END OF TIME STEP    1 IN STRESS PERIOD    5
                    SECONDS     MINUTES      HOURS       DAYS        YEARS
                    -----------------------------------------------------------
   TIME STEP LENGTH 7.94880E+06 1.32480E+05  2208.0      92.000     0.25188    
 STRESS PERIOD TIME 7.94880E+06 1.32480E+05  2208.0      92.000     0.25188    
         TOTAL TIME 3.94848E+07 6.58080E+05  10968.      457.00      1.2512    
1
1
                            STRESS PERIOD NO.    6, LENGTH =   91.00000    
                            -----------------------------------------------

                              NUMBER OF TIME STEPS =     1

                               MULTIPLIER FOR DELT =     1.500

                            INITIAL TIME STEP SIZE =   91.00000    

 WELL NO.  LAYER   ROW   COL   STRESS RATE         
 --------------------------------------------------
      1      1     14      6       0.000    
      2      1      3      9       0.000    
      3      1     20     10       0.000    
      4      1     14     20       0.000    
      5      1     11     23      -9982.    
      6      1     13     22      -7684.    
      7      1      6     18      -7790.    
      8      1      7     23      -7655.    

      8 WELLS

                 RECHARGE =  2.000000E-03

 REUSING STREAM SEGMENT DATA FROM LAST STRESS PERIOD
 
 SOLVING FOR HEAD 


     7 CALLS TO PCG ROUTINE FOR TIME STEP   1 IN STRESS PERIOD    6
    26 TOTAL ITERATIONS

 OUTPUT CONTROL FOR STRESS PERIOD    6   TIME STEP    1
    SAVE BUDGET
    SAVE HEAD FOR ALL LAYERS
    PRINT HEAD FOR ALL LAYERS
 UBDSV2 SAVING "STREAMFLOW OUT  " ON UNIT  50 AT TIME STEP  1, STRESS PERIOD   6



 STREAM LISTING     PERIOD      6   STEP        1

 LAYER ROW COL. STREAM  RCH.  FLOW INTO     FLOW TO   FLOW OUT OF   OVRLND.     DIRECT     STREAM       STREAM     STREAM     STREAM   STREAMBED  STREAMBED
                SEG.NO.  NO.  STRM. RCH.    AQUIFER    STRM. RCH.    RUNOFF     PRECIP       ET          HEAD       DEPTH      WIDTH   CONDCTNC.   GRADIENT

   1   13    1     1     1    1.0000E+05 -2.3796E+03   1.0238E+05  0.000E+00  0.000E+00  0.000E+00  4.84070E+01  1.457E-01  2.000E+01  2.000E+04 -1.190E-01
   1   13    2     1     2    1.0238E+05 -3.4218E+03   1.0580E+05  0.000E+00  0.000E+00  0.000E+00  4.79323E+01  1.482E-01  2.000E+01  2.000E+04 -1.711E-01
   1   14    3     1     3    1.0580E+05 -6.5785E+02   1.0646E+05  0.000E+00  0.000E+00  0.000E+00  4.74567E+01  1.499E-01  2.000E+01  2.000E+04 -3.289E-02
   1   15    4     1     4    1.0646E+05 -6.3914E+02   1.0710E+05  0.000E+00  0.000E+00  0.000E+00  4.69800E+01  1.505E-01  2.000E+01  2.000E+04 -3.196E-02
   1   16    5     1     5    1.0710E+05 -2.2500E+03   1.0935E+05  0.000E+00  0.000E+00  0.000E+00  4.65039E+01  1.517E-01  2.000E+01  2.000E+04 -1.125E-01
   1   16    6     1     6    1.0935E+05 -1.4116E+03   1.1076E+05  0.000E+00  0.000E+00  0.000E+00  4.60282E+01  1.532E-01  2.000E+01  2.000E+04 -7.058E-02
   1   16    7     1     7    1.1076E+05 -1.3831E+03   1.1214E+05  0.000E+00  0.000E+00  0.000E+00  4.55521E+01  1.544E-01  2.000E+01  2.000E+04 -6.915E-02
   1   16    8     1     8    1.1214E+05 -1.3778E+03   1.1352E+05  0.000E+00  0.000E+00  0.000E+00  4.50760E+01  1.555E-01  2.000E+01  2.000E+04 -6.889E-02
   1   16    9     1     9    1.1352E+05 -1.3706E+03   1.1489E+05  0.000E+00  0.000E+00  0.000E+00  4.45998E+01  1.567E-01  2.000E+01  2.000E+04 -6.853E-02
   1   16   10     1    10    1.1489E+05 -1.3605E+03   1.1625E+05  0.000E+00  0.000E+00  0.000E+00  4.41237E+01  1.578E-01  2.000E+01  2.000E+04 -6.802E-02
   1   16   11     1    11    1.1625E+05 -1.3719E+03   1.1762E+05  0.000E+00  0.000E+00  0.000E+00  4.36475E+01  1.589E-01  2.000E+01  2.000E+04 -6.860E-02
   1   16   12     1    12    1.1762E+05 -2.3337E+03   1.1996E+05  0.000E+00  0.000E+00  0.000E+00  4.31718E+01  1.604E-01  2.000E+01  2.000E+04 -1.167E-01
   1   15   13     1    13    1.1996E+05 -2.1785E+03   1.2214E+05  0.000E+00  0.000E+00  0.000E+00  4.26963E+01  1.622E-01  2.000E+01  2.000E+04 -1.089E-01
   1   14   14     1    14    1.2214E+05 -2.3468E+03   1.2448E+05  0.000E+00  0.000E+00  0.000E+00  4.22208E+01  1.640E-01  2.000E+01  2.000E+04 -1.173E-01
   1   13   15     1    15    1.2448E+05 -2.4486E+03   1.2693E+05  0.000E+00  0.000E+00  0.000E+00  4.17455E+01  1.659E-01  2.000E+01  2.000E+04 -1.224E-01
   1   12   16     1    16    1.2693E+05 -2.5334E+03   1.2947E+05  0.000E+00  0.000E+00  0.000E+00  4.12702E+01  1.679E-01  2.000E+01  2.000E+04 -1.267E-01
   1   12   17     1    17    1.2947E+05 -1.5349E+03   1.3100E+05  0.000E+00  0.000E+00  0.000E+00  4.07945E+01  1.695E-01  2.000E+01  2.000E+04 -7.675E-02
   1   12   18     1    18    1.3100E+05 -1.2661E+03   1.3227E+05  0.000E+00  0.000E+00  0.000E+00  4.03183E+01  1.706E-01  2.000E+01  2.000E+04 -6.330E-02
   1   12   19     1    19    1.3227E+05 -7.2959E+02   1.3300E+05  0.000E+00  0.000E+00  0.000E+00  3.98418E+01  1.714E-01  2.000E+01  2.000E+04 -3.648E-02
   1   13   20     1    20    1.3300E+05  7.4192E+01   1.3292E+05  0.000E+00  0.000E+00  0.000E+00  3.93648E+01  1.716E-01  2.000E+01  2.000E+04  3.710E-03
   1   14   21     1    21    1.3292E+05 -7.1829E+02   1.3364E+05  0.000E+00  0.000E+00  0.000E+00  3.88878E+01  1.719E-01  2.000E+01  2.000E+04 -3.591E-02
   1   14   22     1    22    1.3364E+05  6.1322E+03   1.2751E+05  0.000E+00  0.000E+00  0.000E+00  3.84084E+01  1.698E-01  2.000E+01  2.000E+04  3.066E-01
   1    9   30     2     1    5.0000E+04 -5.7658E+02   5.0577E+04  0.000E+00  0.000E+00  0.000E+00  4.02413E+01  1.163E-01  2.000E+01  2.000E+04 -2.883E-02
   1    9   29     2     2    5.0577E+04 -8.1362E+02   5.1390E+04  0.000E+00  0.000E+00  0.000E+00  3.99922E+01  1.172E-01  2.000E+01  2.000E+04 -4.068E-02
   1    9   28     2     3    5.1390E+04 -9.0569E+02   5.2296E+04  0.000E+00  0.000E+00  0.000E+00  3.97434E+01  1.184E-01  2.000E+01  2.000E+04 -4.528E-02
   1    9   27     2     4    5.2296E+04 -1.2337E+03   5.3530E+04  0.000E+00  0.000E+00  0.000E+00  3.94949E+01  1.199E-01  2.000E+01  2.000E+04 -6.169E-02
   1   10   26     2     5    5.3530E+04 -2.2840E+02   5.3758E+04  0.000E+00  0.000E+00  0.000E+00  3.92459E+01  1.209E-01  2.000E+01  2.000E+04 -1.142E-02
   1   11   25     2     6    5.3758E+04  1.1205E+03   5.2637E+04  0.000E+00  0.000E+00  0.000E+00  3.89953E+01  1.203E-01  2.000E+01  2.000E+04  5.603E-02
   1   12   24     2     7    5.2637E+04  2.6565E+03   4.9981E+04  0.000E+00  0.000E+00  0.000E+00  3.87427E+01  1.177E-01  2.000E+01  2.000E+04  1.328E-01
   1   13   23     2     8    4.9981E+04  8.2664E+02   4.9154E+04  0.000E+00  0.000E+00  0.000E+00  3.84903E+01  1.153E-01  2.000E+01  2.000E+04  4.133E-02
   1   14   22     2     9    4.9154E+04  2.7196E+03   4.6435E+04  0.000E+00  0.000E+00  0.000E+00  3.82378E+01  1.128E-01  2.000E+01  2.000E+04  1.360E-01
   1   14   22     3     1    1.7394E+05 -7.5350E+03   1.8148E+05  0.000E+00  0.000E+00  0.000E+00  3.77250E+01  1.695E-01  2.000E+01  2.000E+04 -3.768E-01
   1   15   23     3     2    1.8148E+05 -6.8841E+02   1.8217E+05  0.000E+00  0.000E+00  0.000E+00  3.68385E+01  1.718E-01  2.000E+01  2.000E+04 -3.442E-02
   1   15   24     3     3    1.8217E+05 -3.9663E+02   1.8256E+05  0.000E+00  0.000E+00  0.000E+00  3.59499E+01  1.721E-01  2.000E+01  2.000E+04 -1.983E-02
   1   15   25     3     4    1.8256E+05 -3.9003E+02   1.8295E+05  0.000E+00  0.000E+00  0.000E+00  3.50612E+01  1.724E-01  2.000E+01  2.000E+04 -1.950E-02
   1   15   26     3     5    1.8295E+05 -4.5877E+02   1.8341E+05  0.000E+00  0.000E+00  0.000E+00  3.41726E+01  1.726E-01  2.000E+01  2.000E+04 -2.294E-02
   1   16   27     3     6    1.8341E+05 -5.1687E+02   1.8393E+05  0.000E+00  0.000E+00  0.000E+00  3.32840E+01  1.729E-01  2.000E+01  2.000E+04 -2.584E-02
   1   17   28     3     7    1.8393E+05 -1.9965E+03   1.8592E+05  0.000E+00  0.000E+00  0.000E+00  3.23958E+01  1.736E-01  2.000E+01  2.000E+04 -9.982E-02
   1   18   29     3     8    1.8592E+05 -3.4355E+03   1.8936E+05  0.000E+00  0.000E+00  0.000E+00  3.15084E+01  1.751E-01  2.000E+01  2.000E+04 -1.718E-01
   1   18   30     3     9    1.8936E+05 -3.5673E+03   1.9293E+05  0.000E+00  0.000E+00  0.000E+00  3.06215E+01  1.771E-01  2.000E+01  2.000E+04 -1.784E-01



1
              HEAD IN LAYER   1 AT END OF TIME STEP   1 IN STRESS PERIOD    6
  ---------------------------------------------------------------------------

          1      2      3      4      5      6      7      8      9     10
         11     12     13     14     15     16     17     18     19     20
         21     22     23     24     25     26     27     28     29     30
 .........................................................................
   1  ****** ****** ****** ****** ****** ****** ****** ****** ****** ******
      ****** ****** ****** ****** ****** ****** ****** ****** ****** ******
      ****** ****** ****** ****** ****** ****** ****** ****** ****** ******
   2  ****** ****** ****** ****** ****** ****** ****** ****** ****** ******
      ****** ****** ****** ****** ****** ****** ****** ****** ****** ******
      ****** ****** ****** ****** ****** ****** ****** ****** ****** ******
   3  ****** ****** ****** ****** ****** ****** ****** ****** ****** ******
      ****** ****** ****** ****** ****** ****** ****** ****** ****** ******
      ****** ****** ****** ****** ****** ****** ****** ****** ****** ******
   4  ****** ****** ****** ****** ****** ****** ****** ****** ****** ******
      ****** ****** ****** ****** ****** ****** ****** ****** ****** ******
      ****** ****** ****** ****** ****** ****** ****** ****** ****** ******
   5  ****** ****** ****** ****** ****** ****** ****** ****** ****** ******
      ****** ****** ****** ****** ****** ****** ****** ****** ****** ******
      ****** ****** ****** ****** ****** ****** ****** ****** ****** ******
   6  ****** ****** ****** ****** ****** ****** ****** ****** ****** ******
      ****** ****** ****** ****** ****** ****** ****** ****** ****** ******
      ****** ****** ****** ****** ****** ****** ****** ****** ****** ******
   7  ****** ****** ****** ****** ****** ****** ****** ****** ****** ******
      ****** ****** ****** ****** ****** ****** ****** ****** ****** ******
      ****** ****** ****** ****** ****** ****** ****** ****** ****** ******
   8  ****** ****** ****** ****** ****** ****** ****** ****** ****** ******
      ****** ****** ****** ****** ****** ****** ****** ****** ****** ******
      ****** ****** ****** ****** ****** ****** ****** ****** ****** ******
   9  ****** ****** ****** ****** ****** ****** ****** ****** ****** ******
      ****** ****** ****** ****** ****** ****** ****** ****** ****** ******
      ****** ****** ****** ****** ****** ****** ****** ****** ****** ******
  10  ****** ****** ****** ****** ****** ****** ****** ****** ****** ******
      ****** ****** ****** ****** ****** ****** ****** ****** ****** ******
      ****** ****** ****** ****** ****** ****** ****** ****** ****** ******
  11  ****** ****** ****** ****** ****** ****** ****** ****** ****** ******
      ****** ****** ****** ****** ****** ****** ****** ****** ****** ******
      ****** ****** ****** ****** ****** ****** ****** ****** ****** ******
  12  ****** ****** ****** ****** ****** ****** ****** ****** ****** ******
      ****** ****** ****** ****** ****** ****** ****** ****** ****** ******
      ****** ****** ****** ****** ****** ****** ****** ****** ****** ******
  13  ****** ****** ****** ****** ****** ****** ****** ****** ****** ******
      ****** ****** ****** ****** ****** ****** ****** ****** ****** ******
      ****** ****** ****** ****** ****** ****** ****** ****** ****** ******
  14  ****** ****** ****** ****** ****** ****** ****** ****** ****** ******
      ****** ****** ****** ****** ****** ****** ****** ****** ****** ******
      ****** ****** ****** ****** ****** ****** ****** ****** ****** ******
  15  ****** ****** ****** ****** ****** ****** ****** ****** ****** ******
      ****** ****** ****** ****** ****** ****** ****** ****** ****** ******
      ****** ****** ****** ****** ****** ****** ****** ****** ****** ******
  16  ****** ****** ****** ****** ****** ****** ****** ****** ****** ******
      ****** ****** ****** ****** ****** ****** ****** ****** ****** ******
      ****** ****** ****** ****** ****** ****** ****** ****** ****** ******
  17  ****** ****** ****** ****** ****** ****** ****** ****** ****** ******
      ****** ****** ****** ****** ****** ****** ****** ****** ****** ******
      ****** ****** ****** ****** ****** ****** ****** ****** ****** ******
  18  ****** ****** ****** ****** ****** ****** ****** ****** ****** ******
      ****** ****** ****** ****** ****** ****** ****** ****** ****** ******
      ****** ****** ****** ****** ****** ****** ****** ****** ****** ******
  19  ****** ****** ****** ****** ****** ****** ****** ****** ****** ******
      ****** ****** ****** ****** ****** ****** ****** ****** ****** ******
      ****** ****** ****** ****** ****** ****** ****** ****** ****** ******
  20  ****** ****** ****** ****** ****** ****** ****** ****** ****** ******
      ****** ****** ****** ****** ****** ****** ****** ****** ****** ******
      ****** ****** ****** ****** ****** ****** ****** ****** ****** ******
  21  ****** ****** ****** ****** ****** ****** ****** ****** ****** ******
      ****** ****** ****** ****** ****** ****** ****** ****** ****** ******
      ****** ****** ****** ****** ****** ****** ****** ****** ****** ******
  22  ****** ****** ****** ****** ****** ****** ****** ****** ****** ******
      ****** ****** ****** ****** ****** ****** ****** ****** ****** ******
      ****** ****** ****** ****** ****** ****** ****** ****** ****** ******
  23  ****** ****** ****** ****** ****** ****** ****** ****** ****** ******
      ****** ****** ****** ****** ****** ****** ****** ****** ****** ******
      ****** ****** ****** ****** ****** ****** ****** ****** ****** ******
  24  ****** ****** ****** ****** ****** ****** ****** ****** ****** ******
      ****** ****** ****** ****** ****** ****** ****** ****** ****** ******
      ****** ****** ****** ****** ****** ****** ****** ****** ****** ******
  25  ****** ****** ****** ****** ****** ****** ****** ****** ****** ******
      ****** ****** ****** ****** ****** ****** ****** ****** ****** ******
      ****** ****** ****** ****** ****** ****** ****** ****** ****** ******

 HEAD WILL BE SAVED ON UNIT   51 AT END OF TIME STEP    1, STRESS PERIOD    6
1
  VOLUMETRIC BUDGET FOR ENTIRE MODEL AT END OF TIME STEP    1, STRESS PERIOD   6
  ------------------------------------------------------------------------------

     CUMULATIVE VOLUMES      L**3       RATES FOR THIS TIME STEP      L**3/T
     ------------------                 ------------------------

           IN:                                      IN:
           ---                                      ---
             STORAGE =    31008451.5679               STORAGE =           0.0000
       CONSTANT HEAD =    13217082.3282         CONSTANT HEAD =       29464.6601
               WELLS =           0.0000                 WELLS =           0.0000
            RECHARGE =    15097200.0000              RECHARGE =       55200.0000
      STREAM LEAKAGE =     6572819.9812        STREAM LEAKAGE =       13529.6967

            TOTAL IN =    65895553.8773              TOTAL IN =       98194.3568

          OUT:                                     OUT:
          ----                                     ----
             STORAGE =      786015.9510               STORAGE =        8625.0407
       CONSTANT HEAD =           0.0000         CONSTANT HEAD =           0.0000
               WELLS =    18145591.1812                 WELLS =       33112.3927
            RECHARGE =           0.0000              RECHARGE =           0.0000
      STREAM LEAKAGE =    46963948.6860        STREAM LEAKAGE =       56456.9206

           TOTAL OUT =    65895555.8182             TOTAL OUT =       98194.3540

            IN - OUT =          -1.9409              IN - OUT =       2.8193E-03

 PERCENT DISCREPANCY =          -0.00     PERCENT DISCREPANCY =           0.00






         TIME SUMMARY AT END OF TIME STEP    1 IN STRESS PERIOD    6
                    SECONDS     MINUTES      HOURS       DAYS        YEARS
                    -----------------------------------------------------------
   TIME STEP LENGTH 7.86240E+06 1.31040E+05  2184.0      91.000     0.24914    
 STRESS PERIOD TIME 7.86240E+06 1.31040E+05  2184.0      91.000     0.24914    
         TOTAL TIME 4.73472E+07 7.89120E+05  13152.      548.00      1.5003    
1
1
                            STRESS PERIOD NO.    7, LENGTH =   91.00000    
                            -----------------------------------------------

                              NUMBER OF TIME STEPS =     1

                               MULTIPLIER FOR DELT =     1.500

                            INITIAL TIME STEP SIZE =   91.00000    

 WELL NO.  LAYER   ROW   COL   STRESS RATE         
 --------------------------------------------------
      1      1     14      6       0.000    
      2      1      3      9       0.000    
      3      1     20     10       0.000    
      4      1     14     20       0.000    
      5      1     11     23      -9982.    
      6      1     13     22      -7684.    
      7      1      6     18      -7790.    
      8      1      7     23      -7655.    

      8 WELLS

                 RECHARGE =   0.00000    

 REUSING STREAM SEGMENT DATA FROM LAST STRESS PERIOD
 
 SOLVING FOR HEAD 


     7 CALLS TO PCG ROUTINE FOR TIME STEP   1 IN STRESS PERIOD    7
    26 TOTAL ITERATIONS

 OUTPUT CONTROL FOR STRESS PERIOD    7   TIME STEP    1
    SAVE BUDGET
    SAVE HEAD FOR ALL LAYERS
    PRINT HEAD FOR ALL LAYERS
 UBDSV2 SAVING "STREAMFLOW OUT  " ON UNIT  50 AT TIME STEP  1, STRESS PERIOD   7



 STREAM LISTING     PERIOD      7   STEP        1

 LAYER ROW COL. STREAM  RCH.  FLOW INTO     FLOW TO   FLOW OUT OF   OVRLND.     DIRECT     STREAM       STREAM     STREAM     STREAM   STREAMBED  STREAMBED
                SEG.NO.  NO.  STRM. RCH.    AQUIFER    STRM. RCH.    RUNOFF     PRECIP       ET          HEAD       DEPTH      WIDTH   CONDCTNC.   GRADIENT

   1   13    1     1     1    1.0000E+05 -1.7093E+03   1.0171E+05  0.000E+00  0.000E+00  0.000E+00  4.84068E+01  1.454E-01  2.000E+01  2.000E+04 -8.547E-02
   1   13    2     1     2    1.0171E+05 -2.6717E+03   1.0438E+05  0.000E+00  0.000E+00  0.000E+00  4.79314E+01  1.473E-01  2.000E+01  2.000E+04 -1.336E-01
   1   14    3     1     3    1.0438E+05 -4.0549E+02   1.0479E+05  0.000E+00  0.000E+00  0.000E+00  4.74554E+01  1.486E-01  2.000E+01  2.000E+04 -2.027E-02
   1   15    4     1     4    1.0479E+05 -3.7627E+02   1.0516E+05  0.000E+00  0.000E+00  0.000E+00  4.69785E+01  1.489E-01  2.000E+01  2.000E+04 -1.881E-02
   1   16    5     1     5    1.0516E+05 -1.4985E+03   1.0666E+05  0.000E+00  0.000E+00  0.000E+00  4.65020E+01  1.497E-01  2.000E+01  2.000E+04 -7.493E-02
   1   16    6     1     6    1.0666E+05 -9.5798E+02   1.0762E+05  0.000E+00  0.000E+00  0.000E+00  4.60258E+01  1.508E-01  2.000E+01  2.000E+04 -4.790E-02
   1   16    7     1     7    1.0762E+05 -9.4777E+02   1.0857E+05  0.000E+00  0.000E+00  0.000E+00  4.55493E+01  1.516E-01  2.000E+01  2.000E+04 -4.739E-02
   1   16    8     1     8    1.0857E+05 -9.4851E+02   1.0952E+05  0.000E+00  0.000E+00  0.000E+00  4.50728E+01  1.524E-01  2.000E+01  2.000E+04 -4.743E-02
   1   16    9     1     9    1.0952E+05 -9.4458E+02   1.1046E+05  0.000E+00  0.000E+00  0.000E+00  4.45963E+01  1.532E-01  2.000E+01  2.000E+04 -4.723E-02
   1   16   10     1    10    1.1046E+05 -9.3715E+02   1.1140E+05  0.000E+00  0.000E+00  0.000E+00  4.41198E+01  1.539E-01  2.000E+01  2.000E+04 -4.686E-02
   1   16   11     1    11    1.1140E+05 -9.4777E+02   1.1235E+05  0.000E+00  0.000E+00  0.000E+00  4.36434E+01  1.547E-01  2.000E+01  2.000E+04 -4.739E-02
   1   16   12     1    12    1.1235E+05 -1.6209E+03   1.1397E+05  0.000E+00  0.000E+00  0.000E+00  4.31672E+01  1.558E-01  2.000E+01  2.000E+04 -8.104E-02
   1   15   13     1    13    1.1397E+05 -1.4109E+03   1.1538E+05  0.000E+00  0.000E+00  0.000E+00  4.26911E+01  1.570E-01  2.000E+01  2.000E+04 -7.054E-02
   1   14   14     1    14    1.1538E+05 -1.5493E+03   1.1693E+05  0.000E+00  0.000E+00  0.000E+00  4.22151E+01  1.582E-01  2.000E+01  2.000E+04 -7.746E-02
   1   13   15     1    15    1.1693E+05 -1.6468E+03   1.1857E+05  0.000E+00  0.000E+00  0.000E+00  4.17391E+01  1.596E-01  2.000E+01  2.000E+04 -8.234E-02
   1   12   16     1    16    1.1857E+05 -1.7334E+03   1.2031E+05  0.000E+00  0.000E+00  0.000E+00  4.12632E+01  1.609E-01  2.000E+01  2.000E+04 -8.667E-02
   1   12   17     1    17    1.2031E+05 -9.5489E+02   1.2126E+05  0.000E+00  0.000E+00  0.000E+00  4.07870E+01  1.620E-01  2.000E+01  2.000E+04 -4.774E-02
   1   12   18     1    18    1.2126E+05 -7.0045E+02   1.2196E+05  0.000E+00  0.000E+00  0.000E+00  4.03104E+01  1.627E-01  2.000E+01  2.000E+04 -3.502E-02
   1   12   19     1    19    1.2196E+05 -3.7282E+01   1.2200E+05  0.000E+00  0.000E+00  0.000E+00  3.98334E+01  1.630E-01  2.000E+01  2.000E+04 -1.864E-03
   1   13   20     1    20    1.2200E+05  7.4389E+02   1.2126E+05  0.000E+00  0.000E+00  0.000E+00  3.93559E+01  1.627E-01  2.000E+01  2.000E+04  3.719E-02
   1   14   21     1    21    1.2126E+05 -6.1305E+01   1.2132E+05  0.000E+00  0.000E+00  0.000E+00  3.88783E+01  1.624E-01  2.000E+01  2.000E+04 -3.065E-03
   1   14   22     1    22    1.2132E+05  6.2946E+03   1.1502E+05  0.000E+00  0.000E+00  0.000E+00  3.83985E+01  1.599E-01  2.000E+01  2.000E+04  3.147E-01
   1    9   30     2     1    5.0000E+04 -5.9753E+01   5.0060E+04  0.000E+00  0.000E+00  0.000E+00  4.02409E+01  1.159E-01  2.000E+01  2.000E+04 -2.988E-03
   1    9   29     2     2    5.0060E+04 -2.9841E+02   5.0358E+04  0.000E+00  0.000E+00  0.000E+00  3.99912E+01  1.162E-01  2.000E+01  2.000E+04 -1.492E-02
   1    9   28     2     3    5.0358E+04 -3.8867E+02   5.0747E+04  0.000E+00  0.000E+00  0.000E+00  3.97416E+01  1.166E-01  2.000E+01  2.000E+04 -1.943E-02
   1    9   27     2     4    5.0747E+04 -5.2918E+02   5.1276E+04  0.000E+00  0.000E+00  0.000E+00  3.94923E+01  1.173E-01  2.000E+01  2.000E+04 -2.646E-02
   1   10   26     2     5    5.1276E+04  4.7614E+02   5.0800E+04  0.000E+00  0.000E+00  0.000E+00  3.92423E+01  1.173E-01  2.000E+01  2.000E+04  2.381E-02
   1   11   25     2     6    5.0800E+04  1.7956E+03   4.9004E+04  0.000E+00  0.000E+00  0.000E+00  3.89907E+01  1.157E-01  2.000E+01  2.000E+04  8.978E-02
   1   12   24     2     7    4.9004E+04  3.2719E+03   4.5732E+04  0.000E+00  0.000E+00  0.000E+00  3.87372E+01  1.122E-01  2.000E+01  2.000E+04  1.636E-01
   1   13   23     2     8    4.5732E+04  1.0190E+03   4.4713E+04  0.000E+00  0.000E+00  0.000E+00  3.84841E+01  1.091E-01  2.000E+01  2.000E+04  5.095E-02
   1   14   22     2     9    4.4713E+04  2.9479E+03   4.1765E+04  0.000E+00  0.000E+00  0.000E+00  3.82312E+01  1.062E-01  2.000E+01  2.000E+04  1.474E-01
   1   14   22     3     1    1.5679E+05 -7.3765E+03   1.6416E+05  0.000E+00  0.000E+00  0.000E+00  3.77150E+01  1.594E-01  2.000E+01  2.000E+04 -3.688E-01
   1   15   23     3     2    1.6416E+05 -4.8353E+02   1.6465E+05  0.000E+00  0.000E+00  0.000E+00  3.68284E+01  1.618E-01  2.000E+01  2.000E+04 -2.418E-02
   1   15   24     3     3    1.6465E+05 -2.2389E+02   1.6487E+05  0.000E+00  0.000E+00  0.000E+00  3.59397E+01  1.620E-01  2.000E+01  2.000E+04 -1.119E-02
   1   15   25     3     4    1.6487E+05 -2.1412E+02   1.6509E+05  0.000E+00  0.000E+00  0.000E+00  3.50510E+01  1.621E-01  2.000E+01  2.000E+04 -1.071E-02
   1   15   26     3     5    1.6509E+05 -2.5811E+02   1.6534E+05  0.000E+00  0.000E+00  0.000E+00  3.41622E+01  1.622E-01  2.000E+01  2.000E+04 -1.291E-02
   1   16   27     3     6    1.6534E+05 -2.8550E+02   1.6563E+05  0.000E+00  0.000E+00  0.000E+00  3.32735E+01  1.624E-01  2.000E+01  2.000E+04 -1.427E-02
   1   17   28     3     7    1.6563E+05 -1.3584E+03   1.6699E+05  0.000E+00  0.000E+00  0.000E+00  3.23851E+01  1.629E-01  2.000E+01  2.000E+04 -6.792E-02
   1   18   29     3     8    1.6699E+05 -2.7564E+03   1.6974E+05  0.000E+00  0.000E+00  0.000E+00  3.14974E+01  1.641E-01  2.000E+01  2.000E+04 -1.378E-01
   1   18   30     3     9    1.6974E+05 -3.0431E+03   1.7279E+05  0.000E+00  0.000E+00  0.000E+00  3.06102E+01  1.658E-01  2.000E+01  2.000E+04 -1.522E-01



1
              HEAD IN LAYER   1 AT END OF TIME STEP   1 IN STRESS PERIOD    7
  ---------------------------------------------------------------------------

          1      2      3      4      5      6      7      8      9     10
         11     12     13     14     15     16     17     18     19     20
         21     22     23     24     25     26     27     28     29     30
 .........................................................................
   1  ****** ****** ****** ****** ****** ****** ****** ****** ****** ******
      ****** ****** ****** ****** ****** ****** ****** ****** ****** ******
      ****** ****** ****** ****** ****** ****** ****** ****** ****** ******
   2  ****** ****** ****** ****** ****** ****** ****** ****** ****** ******
      ****** ****** ****** ****** ****** ****** ****** ****** ****** ******
      ****** ****** ****** ****** ****** ****** ****** ****** ****** ******
   3  ****** ****** ****** ****** ****** ****** ****** ****** ****** ******
      ****** ****** ****** ****** ****** ****** ****** ****** ****** ******
      ****** ****** ****** ****** ****** ****** ****** ****** ****** ******
   4  ****** ****** ****** ****** ****** ****** ****** ****** ****** ******
      ****** ****** ****** ****** ****** ****** ****** ****** ****** ******
      ****** ****** ****** ****** ****** ****** ****** ****** ****** ******
   5  ****** ****** ****** ****** ****** ****** ****** ****** ****** ******
      ****** ****** ****** ****** ****** ****** ****** ****** ****** ******
      ****** ****** ****** ****** ****** ****** ****** ****** ****** ******
   6  ****** ****** ****** ****** ****** ****** ****** ****** ****** ******
      ****** ****** ****** ****** ****** ****** ****** ****** ****** ******
      ****** ****** ****** ****** ****** ****** ****** ****** ****** ******
   7  ****** ****** ****** ****** ****** ****** ****** ****** ****** ******
      ****** ****** ****** ****** ****** ****** ****** ****** ****** ******
      ****** ****** ****** ****** ****** ****** ****** ****** ****** ******
   8  ****** ****** ****** ****** ****** ****** ****** ****** ****** ******
      ****** ****** ****** ****** ****** ****** ****** ****** ****** ******
      ****** ****** ****** ****** ****** ****** ****** ****** ****** ******
   9  ****** ****** ****** ****** ****** ****** ****** ****** ****** ******
      ****** ****** ****** ****** ****** ****** ****** ****** ****** ******
      ****** ****** ****** ****** ****** ****** ****** ****** ****** ******
  10  ****** ****** ****** ****** ****** ****** ****** ****** ****** ******
      ****** ****** ****** ****** ****** ****** ****** ****** ****** ******
      ****** ****** ****** ****** ****** ****** ****** ****** ****** ******
  11  ****** ****** ****** ****** ****** ****** ****** ****** ****** ******
      ****** ****** ****** ****** ****** ****** ****** ****** ****** ******
      ****** ****** ****** ****** ****** ****** ****** ****** ****** ******
  12  ****** ****** ****** ****** ****** ****** ****** ****** ****** ******
      ****** ****** ****** ****** ****** ****** ****** ****** ****** ******
      ****** ****** ****** ****** ****** ****** ****** ****** ****** ******
  13  ****** ****** ****** ****** ****** ****** ****** ****** ****** ******
      ****** ****** ****** ****** ****** ****** ****** ****** ****** ******
      ****** ****** ****** ****** ****** ****** ****** ****** ****** ******
  14  ****** ****** ****** ****** ****** ****** ****** ****** ****** ******
      ****** ****** ****** ****** ****** ****** ****** ****** ****** ******
      ****** ****** ****** ****** ****** ****** ****** ****** ****** ******
  15  ****** ****** ****** ****** ****** ****** ****** ****** ****** ******
      ****** ****** ****** ****** ****** ****** ****** ****** ****** ******
      ****** ****** ****** ****** ****** ****** ****** ****** ****** ******
  16  ****** ****** ****** ****** ****** ****** ****** ****** ****** ******
      ****** ****** ****** ****** ****** ****** ****** ****** ****** ******
      ****** ****** ****** ****** ****** ****** ****** ****** ****** ******
  17  ****** ****** ****** ****** ****** ****** ****** ****** ****** ******
      ****** ****** ****** ****** ****** ****** ****** ****** ****** ******
      ****** ****** ****** ****** ****** ****** ****** ****** ****** ******
  18  ****** ****** ****** ****** ****** ****** ****** ****** ****** ******
      ****** ****** ****** ****** ****** ****** ****** ****** ****** ******
      ****** ****** ****** ****** ****** ****** ****** ****** ****** ******
  19  ****** ****** ****** ****** ****** ****** ****** ****** ****** ******
      ****** ****** ****** ****** ****** ****** ****** ****** ****** ******
      ****** ****** ****** ****** ****** ****** ****** ****** ****** ******
  20  ****** ****** ****** ****** ****** ****** ****** ****** ****** ******
      ****** ****** ****** ****** ****** ****** ****** ****** ****** ******
      ****** ****** ****** ****** ****** ****** ****** ****** ****** ******
  21  ****** ****** ****** ****** ****** ****** ****** ****** ****** ******
      ****** ****** ****** ****** ****** ****** ****** ****** ****** ******
      ****** ****** ****** ****** ****** ****** ****** ****** ****** ******
  22  ****** ****** ****** ****** ****** ****** ****** ****** ****** ******
      ****** ****** ****** ****** ****** ****** ****** ****** ****** ******
      ****** ****** ****** ****** ****** ****** ****** ****** ****** ******
  23  ****** ****** ****** ****** ****** ****** ****** ****** ****** ******
      ****** ****** ****** ****** ****** ****** ****** ****** ****** ******
      ****** ****** ****** ****** ****** ****** ****** ****** ****** ******
  24  ****** ****** ****** ****** ****** ****** ****** ****** ****** ******
      ****** ****** ****** ****** ****** ****** ****** ****** ****** ******
      ****** ****** ****** ****** ****** ****** ****** ****** ****** ******
  25  ****** ****** ****** ****** ****** ****** ****** ****** ****** ******
      ****** ****** ****** ****** ****** ****** ****** ****** ****** ******
      ****** ****** ****** ****** ****** ****** ****** ****** ****** ******

 HEAD WILL BE SAVED ON UNIT   51 AT END OF TIME STEP    1, STRESS PERIOD    7
1
  VOLUMETRIC BUDGET FOR ENTIRE MODEL AT END OF TIME STEP    1, STRESS PERIOD   7
  ------------------------------------------------------------------------------

     CUMULATIVE VOLUMES      L**3       RATES FOR THIS TIME STEP      L**3/T
     ------------------                 ------------------------

           IN:                                      IN:
           ---                                      ---
             STORAGE =    33055448.1105               STORAGE =       22494.4675
       CONSTANT HEAD =    16256906.8312         CONSTANT HEAD =       33404.6649
               WELLS =           0.0000                 WELLS =           0.0000
            RECHARGE =    15097200.0000              RECHARGE =           0.0000
      STREAM LEAKAGE =     8078782.3821        STREAM LEAKAGE =       16549.0374

            TOTAL IN =    72488337.3239              TOTAL IN =       72448.1697

          OUT:                                     OUT:
          ----                                     ----
             STORAGE =      786015.9510               STORAGE =           0.0000
       CONSTANT HEAD =           0.0000         CONSTANT HEAD =           0.0000
               WELLS =    21158818.9139                 WELLS =       33112.3927
            RECHARGE =           0.0000              RECHARGE =           0.0000
      STREAM LEAKAGE =    50543504.8883        STREAM LEAKAGE =       39335.7824

           TOTAL OUT =    72488339.7532             TOTAL OUT =       72448.1751

            IN - OUT =          -2.4293              IN - OUT =      -5.3664E-03

 PERCENT DISCREPANCY =          -0.00     PERCENT DISCREPANCY =          -0.00






         TIME SUMMARY AT END OF TIME STEP    1 IN STRESS PERIOD    7
                    SECONDS     MINUTES      HOURS       DAYS        YEARS
                    -----------------------------------------------------------
   TIME STEP LENGTH 7.86240E+06 1.31040E+05  2184.0      91.000     0.24914    
 STRESS PERIOD TIME 7.86240E+06 1.31040E+05  2184.0      91.000     0.24914    
         TOTAL TIME 5.52096E+07 9.20160E+05  15336.      639.00      1.7495    
1
1
                            STRESS PERIOD NO.    8, LENGTH =   91.00000    
                            -----------------------------------------------

                              NUMBER OF TIME STEPS =     1

                               MULTIPLIER FOR DELT =     1.500

                            INITIAL TIME STEP SIZE =   91.00000    

 WELL NO.  LAYER   ROW   COL   STRESS RATE         
 --------------------------------------------------
      1      1     14      6       0.000    
      2      1      3      9       0.000    
      3      1     20     10       0.000    
      4      1     14     20       0.000    
      5      1     11     23      -9982.    
      6      1     13     22      -7684.    
      7      1      6     18      -7790.    
      8      1      7     23      -7655.    

      8 WELLS

                 RECHARGE =  1.000000E-03

 REUSING STREAM SEGMENT DATA FROM LAST STRESS PERIOD
 
 SOLVING FOR HEAD 


     6 CALLS TO PCG ROUTINE FOR TIME STEP   1 IN STRESS PERIOD    8
    22 TOTAL ITERATIONS

 OUTPUT CONTROL FOR STRESS PERIOD    8   TIME STEP    1
    SAVE BUDGET
    SAVE HEAD FOR ALL LAYERS
    PRINT HEAD FOR ALL LAYERS
 UBDSV2 SAVING "STREAMFLOW OUT  " ON UNIT  50 AT TIME STEP  1, STRESS PERIOD   8



 STREAM LISTING     PERIOD      8   STEP        1

 LAYER ROW COL. STREAM  RCH.  FLOW INTO     FLOW TO   FLOW OUT OF   OVRLND.     DIRECT     STREAM       STREAM     STREAM     STREAM   STREAMBED  STREAMBED
                SEG.NO.  NO.  STRM. RCH.    AQUIFER    STRM. RCH.    RUNOFF     PRECIP       ET          HEAD       DEPTH      WIDTH   CONDCTNC.   GRADIENT

   1   13    1     1     1    1.0000E+05 -1.7795E+03   1.0178E+05  0.000E+00  0.000E+00  0.000E+00  4.84068E+01  1.454E-01  2.000E+01  2.000E+04 -8.897E-02
   1   13    2     1     2    1.0178E+05 -2.7409E+03   1.0452E+05  0.000E+00  0.000E+00  0.000E+00  4.79315E+01  1.474E-01  2.000E+01  2.000E+04 -1.370E-01
   1   14    3     1     3    1.0452E+05 -4.6912E+02   1.0499E+05  0.000E+00  0.000E+00  0.000E+00  4.74556E+01  1.487E-01  2.000E+01  2.000E+04 -2.346E-02
   1   15    4     1     4    1.0499E+05 -4.4472E+02   1.0543E+05  0.000E+00  0.000E+00  0.000E+00  4.69787E+01  1.491E-01  2.000E+01  2.000E+04 -2.224E-02
   1   16    5     1     5    1.0543E+05 -1.6734E+03   1.0711E+05  0.000E+00  0.000E+00  0.000E+00  4.65023E+01  1.500E-01  2.000E+01  2.000E+04 -8.367E-02
   1   16    6     1     6    1.0711E+05 -1.0653E+03   1.0817E+05  0.000E+00  0.000E+00  0.000E+00  4.60262E+01  1.512E-01  2.000E+01  2.000E+04 -5.326E-02
   1   16    7     1     7    1.0817E+05 -1.0500E+03   1.0922E+05  0.000E+00  0.000E+00  0.000E+00  4.55498E+01  1.521E-01  2.000E+01  2.000E+04 -5.250E-02
   1   16    8     1     8    1.0922E+05 -1.0499E+03   1.1027E+05  0.000E+00  0.000E+00  0.000E+00  4.50734E+01  1.530E-01  2.000E+01  2.000E+04 -5.250E-02
   1   16    9     1     9    1.1027E+05 -1.0473E+03   1.1132E+05  0.000E+00  0.000E+00  0.000E+00  4.45970E+01  1.538E-01  2.000E+01  2.000E+04 -5.236E-02
   1   16   10     1    10    1.1132E+05 -1.0425E+03   1.1236E+05  0.000E+00  0.000E+00  0.000E+00  4.41206E+01  1.547E-01  2.000E+01  2.000E+04 -5.213E-02
   1   16   11     1    11    1.1236E+05 -1.0565E+03   1.1342E+05  0.000E+00  0.000E+00  0.000E+00  4.36442E+01  1.556E-01  2.000E+01  2.000E+04 -5.283E-02
   1   16   12     1    12    1.1342E+05 -1.7837E+03   1.1520E+05  0.000E+00  0.000E+00  0.000E+00  4.31681E+01  1.567E-01  2.000E+01  2.000E+04 -8.919E-02
   1   15   13     1    13    1.1520E+05 -1.5786E+03   1.1678E+05  0.000E+00  0.000E+00  0.000E+00  4.26922E+01  1.581E-01  2.000E+01  2.000E+04 -7.893E-02
   1   14   14     1    14    1.1678E+05 -1.7084E+03   1.1849E+05  0.000E+00  0.000E+00  0.000E+00  4.22163E+01  1.595E-01  2.000E+01  2.000E+04 -8.542E-02
   1   13   15     1    15    1.1849E+05 -1.7915E+03   1.2028E+05  0.000E+00  0.000E+00  0.000E+00  4.17404E+01  1.609E-01  2.000E+01  2.000E+04 -8.957E-02
   1   12   16     1    16    1.2028E+05 -1.8371E+03   1.2212E+05  0.000E+00  0.000E+00  0.000E+00  4.12646E+01  1.623E-01  2.000E+01  2.000E+04 -9.185E-02
   1   12   17     1    17    1.2212E+05 -1.0624E+03   1.2318E+05  0.000E+00  0.000E+00  0.000E+00  4.07885E+01  1.635E-01  2.000E+01  2.000E+04 -5.312E-02
   1   12   18     1    18    1.2318E+05 -8.1518E+02   1.2400E+05  0.000E+00  0.000E+00  0.000E+00  4.03120E+01  1.643E-01  2.000E+01  2.000E+04 -4.076E-02
   1   12   19     1    19    1.2400E+05 -1.8153E+02   1.2418E+05  0.000E+00  0.000E+00  0.000E+00  3.98351E+01  1.646E-01  2.000E+01  2.000E+04 -9.077E-03
   1   13   20     1    20    1.2418E+05  5.6668E+02   1.2361E+05  0.000E+00  0.000E+00  0.000E+00  3.93577E+01  1.645E-01  2.000E+01  2.000E+04  2.833E-02
   1   14   21     1    21    1.2361E+05 -2.2180E+02   1.2383E+05  0.000E+00  0.000E+00  0.000E+00  3.88803E+01  1.644E-01  2.000E+01  2.000E+04 -1.109E-02
   1   14   22     1    22    1.2383E+05  6.2451E+03   1.1759E+05  0.000E+00  0.000E+00  0.000E+00  3.84006E+01  1.619E-01  2.000E+01  2.000E+04  3.123E-01
   1    9   30     2     1    5.0000E+04 -2.2091E+02   5.0221E+04  0.000E+00  0.000E+00  0.000E+00  4.02410E+01  1.160E-01  2.000E+01  2.000E+04 -1.105E-02
   1    9   29     2     2    5.0221E+04 -4.5666E+02   5.0678E+04  0.000E+00  0.000E+00  0.000E+00  3.99915E+01  1.165E-01  2.000E+01  2.000E+04 -2.283E-02
   1    9   28     2     3    5.0678E+04 -5.4102E+02   5.1219E+04  0.000E+00  0.000E+00  0.000E+00  3.97422E+01  1.172E-01  2.000E+01  2.000E+04 -2.705E-02
   1    9   27     2     4    5.1219E+04 -7.0236E+02   5.1921E+04  0.000E+00  0.000E+00  0.000E+00  3.94930E+01  1.180E-01  2.000E+01  2.000E+04 -3.512E-02
   1   10   26     2     5    5.1921E+04  2.7475E+02   5.1646E+04  0.000E+00  0.000E+00  0.000E+00  3.92433E+01  1.183E-01  2.000E+01  2.000E+04  1.374E-02
   1   11   25     2     6    5.1646E+04  1.5954E+03   5.0051E+04  0.000E+00  0.000E+00  0.000E+00  3.89920E+01  1.170E-01  2.000E+01  2.000E+04  7.977E-02
   1   12   24     2     7    5.0051E+04  3.0903E+03   4.6961E+04  0.000E+00  0.000E+00  0.000E+00  3.87388E+01  1.138E-01  2.000E+01  2.000E+04  1.545E-01
   1   13   23     2     8    4.6961E+04  9.4528E+02   4.6015E+04  0.000E+00  0.000E+00  0.000E+00  3.84859E+01  1.109E-01  2.000E+01  2.000E+04  4.726E-02
   1   14   22     2     9    4.6015E+04  2.8962E+03   4.3119E+04  0.000E+00  0.000E+00  0.000E+00  3.82331E+01  1.081E-01  2.000E+01  2.000E+04  1.448E-01
   1   14   22     3     1    1.6071E+05 -7.4203E+03   1.6813E+05  0.000E+00  0.000E+00  0.000E+00  3.77173E+01  1.618E-01  2.000E+01  2.000E+04 -3.710E-01
   1   15   23     3     2    1.6813E+05 -5.4842E+02   1.6868E+05  0.000E+00  0.000E+00  0.000E+00  3.68308E+01  1.641E-01  2.000E+01  2.000E+04 -2.742E-02
   1   15   24     3     3    1.6868E+05 -2.8479E+02   1.6896E+05  0.000E+00  0.000E+00  0.000E+00  3.59421E+01  1.643E-01  2.000E+01  2.000E+04 -1.424E-02
   1   15   25     3     4    1.6896E+05 -2.7670E+02   1.6924E+05  0.000E+00  0.000E+00  0.000E+00  3.50534E+01  1.645E-01  2.000E+01  2.000E+04 -1.383E-02
   1   15   26     3     5    1.6924E+05 -3.3298E+02   1.6957E+05  0.000E+00  0.000E+00  0.000E+00  3.41647E+01  1.647E-01  2.000E+01  2.000E+04 -1.665E-02
   1   16   27     3     6    1.6957E+05 -3.6774E+02   1.6994E+05  0.000E+00  0.000E+00  0.000E+00  3.32760E+01  1.649E-01  2.000E+01  2.000E+04 -1.839E-02
   1   17   28     3     7    1.6994E+05 -1.5636E+03   1.7150E+05  0.000E+00  0.000E+00  0.000E+00  3.23877E+01  1.655E-01  2.000E+01  2.000E+04 -7.818E-02
   1   18   29     3     8    1.7150E+05 -2.9250E+03   1.7443E+05  0.000E+00  0.000E+00  0.000E+00  3.15001E+01  1.668E-01  2.000E+01  2.000E+04 -1.463E-01
   1   18   30     3     9    1.7443E+05 -3.1917E+03   1.7762E+05  0.000E+00  0.000E+00  0.000E+00  3.06130E+01  1.685E-01  2.000E+01  2.000E+04 -1.596E-01



1
              HEAD IN LAYER   1 AT END OF TIME STEP   1 IN STRESS PERIOD    8
  ---------------------------------------------------------------------------

          1      2      3      4      5      6      7      8      9     10
         11     12     13     14     15     16     17     18     19     20
         21     22     23     24     25     26     27     28     29     30
 .........................................................................
   1  ****** ****** ****** ****** ****** ****** ****** ****** ****** ******
      ****** ****** ****** ****** ****** ****** ****** ****** ****** ******
      ****** ****** ****** ****** ****** ****** ****** ****** ****** ******
   2  ****** ****** ****** ****** ****** ****** ****** ****** ****** ******
      ****** ****** ****** ****** ****** ****** ****** ****** ****** ******
      ****** ****** ****** ****** ****** ****** ****** ****** ****** ******
   3  ****** ****** ****** ****** ****** ****** ****** ****** ****** ******
      ****** ****** ****** ****** ****** ****** ****** ****** ****** ******
      ****** ****** ****** ****** ****** ****** ****** ****** ****** ******
   4  ****** ****** ****** ****** ****** ****** ****** ****** ****** ******
      ****** ****** ****** ****** ****** ****** ****** ****** ****** ******
      ****** ****** ****** ****** ****** ****** ****** ****** ****** ******
   5  ****** ****** ****** ****** ****** ****** ****** ****** ****** ******
      ****** ****** ****** ****** ****** ****** ****** ****** ****** ******
      ****** ****** ****** ****** ****** ****** ****** ****** ****** ******
   6  ****** ****** ****** ****** ****** ****** ****** ****** ****** ******
      ****** ****** ****** ****** ****** ****** ****** ****** ****** ******
      ****** ****** ****** ****** ****** ****** ****** ****** ****** ******
   7  ****** ****** ****** ****** ****** ****** ****** ****** ****** ******
      ****** ****** ****** ****** ****** ****** ****** ****** ****** ******
      ****** ****** ****** ****** ****** ****** ****** ****** ****** ******
   8  ****** ****** ****** ****** ****** ****** ****** ****** ****** ******
      ****** ****** ****** ****** ****** ****** ****** ****** ****** ******
      ****** ****** ****** ****** ****** ****** ****** ****** ****** ******
   9  ****** ****** ****** ****** ****** ****** ****** ****** ****** ******
      ****** ****** ****** ****** ****** ****** ****** ****** ****** ******
      ****** ****** ****** ****** ****** ****** ****** ****** ****** ******
  10  ****** ****** ****** ****** ****** ****** ****** ****** ****** ******
      ****** ****** ****** ****** ****** ****** ****** ****** ****** ******
      ****** ****** ****** ****** ****** ****** ****** ****** ****** ******
  11  ****** ****** ****** ****** ****** ****** ****** ****** ****** ******
      ****** ****** ****** ****** ****** ****** ****** ****** ****** ******
      ****** ****** ****** ****** ****** ****** ****** ****** ****** ******
  12  ****** ****** ****** ****** ****** ****** ****** ****** ****** ******
      ****** ****** ****** ****** ****** ****** ****** ****** ****** ******
      ****** ****** ****** ****** ****** ****** ****** ****** ****** ******
  13  ****** ****** ****** ****** ****** ****** ****** ****** ****** ******
      ****** ****** ****** ****** ****** ****** ****** ****** ****** ******
      ****** ****** ****** ****** ****** ****** ****** ****** ****** ******
  14  ****** ****** ****** ****** ****** ****** ****** ****** ****** ******
      ****** ****** ****** ****** ****** ****** ****** ****** ****** ******
      ****** ****** ****** ****** ****** ****** ****** ****** ****** ******
  15  ****** ****** ****** ****** ****** ****** ****** ****** ****** ******
      ****** ****** ****** ****** ****** ****** ****** ****** ****** ******
      ****** ****** ****** ****** ****** ****** ****** ****** ****** ******
  16  ****** ****** ****** ****** ****** ****** ****** ****** ****** ******
      ****** ****** ****** ****** ****** ****** ****** ****** ****** ******
      ****** ****** ****** ****** ****** ****** ****** ****** ****** ******
  17  ****** ****** ****** ****** ****** ****** ****** ****** ****** ******
      ****** ****** ****** ****** ****** ****** ****** ****** ****** ******
      ****** ****** ****** ****** ****** ****** ****** ****** ****** ******
  18  ****** ****** ****** ****** ****** ****** ****** ****** ****** ******
      ****** ****** ****** ****** ****** ****** ****** ****** ****** ******
      ****** ****** ****** ****** ****** ****** ****** ****** ****** ******
  19  ****** ****** ****** ****** ****** ****** ****** ****** ****** ******
      ****** ****** ****** ****** ****** ****** ****** ****** ****** ******
      ****** ****** ****** ****** ****** ****** ****** ****** ****** ******
  20  ****** ****** ****** ****** ****** ****** ****** ****** ****** ******
      ****** ****** ****** ****** ****** ****** ****** ****** ****** ******
      ****** ****** ****** ****** ****** ****** ****** ****** ****** ******
  21  ****** ****** ****** ****** ****** ****** ****** ****** ****** ******
      ****** ****** ****** ****** ****** ****** ****** ****** ****** ******
      ****** ****** ****** ****** ****** ****** ****** ****** ****** ******
  22  ****** ****** ****** ****** ****** ****** ****** ****** ****** ******
      ****** ****** ****** ****** ****** ****** ****** ****** ****** ******
      ****** ****** ****** ****** ****** ****** ****** ****** ****** ******
  23  ****** ****** ****** ****** ****** ****** ****** ****** ****** ******
      ****** ****** ****** ****** ****** ****** ****** ****** ****** ******
      ****** ****** ****** ****** ****** ****** ****** ****** ****** ******
  24  ****** ****** ****** ****** ****** ****** ****** ****** ****** ******
      ****** ****** ****** ****** ****** ****** ****** ****** ****** ******
      ****** ****** ****** ****** ****** ****** ****** ****** ****** ******
  25  ****** ****** ****** ****** ****** ****** ****** ****** ****** ******
      ****** ****** ****** ****** ****** ****** ****** ****** ****** ******
      ****** ****** ****** ****** ****** ****** ****** ****** ****** ******

 HEAD WILL BE SAVED ON UNIT   51 AT END OF TIME STEP    1, STRESS PERIOD    8
1
  VOLUMETRIC BUDGET FOR ENTIRE MODEL AT END OF TIME STEP    1, STRESS PERIOD   8
  ------------------------------------------------------------------------------

     CUMULATIVE VOLUMES      L**3       RATES FOR THIS TIME STEP      L**3/T
     ------------------                 ------------------------

           IN:                                      IN:
           ---                                      ---
             STORAGE =    33200691.8780               STORAGE =        1596.0854
       CONSTANT HEAD =    19270813.5490         CONSTANT HEAD =       33119.8540
               WELLS =           0.0000                 WELLS =           0.0000
            RECHARGE =    17608800.0000              RECHARGE =       27600.0000
      STREAM LEAKAGE =     9499622.8452        STREAM LEAKAGE =       15613.6315

            TOTAL IN =    79579928.2722              TOTAL IN =       77929.5709

          OUT:                                     OUT:
          ----                                     ----
             STORAGE =      930315.2097               STORAGE =        1585.7061
       CONSTANT HEAD =           0.0000         CONSTANT HEAD =           0.0000
               WELLS =    24172046.6465                 WELLS =       33112.3927
            RECHARGE =           0.0000              RECHARGE =           0.0000
      STREAM LEAKAGE =    54477568.1148        STREAM LEAKAGE =       43231.4640

           TOTAL OUT =    79579929.9710             TOTAL OUT =       77929.5628

            IN - OUT =          -1.6988              IN - OUT =       8.0277E-03

 PERCENT DISCREPANCY =          -0.00     PERCENT DISCREPANCY =           0.00






         TIME SUMMARY AT END OF TIME STEP    1 IN STRESS PERIOD    8
                    SECONDS     MINUTES      HOURS       DAYS        YEARS
                    -----------------------------------------------------------
   TIME STEP LENGTH 7.86240E+06 1.31040E+05  2184.0      91.000     0.24914    
 STRESS PERIOD TIME 7.86240E+06 1.31040E+05  2184.0      91.000     0.24914    
         TOTAL TIME 6.30720E+07 1.05120E+06  17520.      730.00      1.9986    
1
1
                            STRESS PERIOD NO.    9, LENGTH =   92.00000    
                            -----------------------------------------------

                              NUMBER OF TIME STEPS =     1

                               MULTIPLIER FOR DELT =     1.500

                            INITIAL TIME STEP SIZE =   92.00000    

 WELL NO.  LAYER   ROW   COL   STRESS RATE         
 --------------------------------------------------
      1      1     14      6       0.000    
      2      1      3      9       0.000    
      3      1     20     10       0.000    
      4      1     14     20       0.000    
      5      1     11     23      -9982.    
      6      1     13     22      -7684.    
      7      1      6     18      -7790.    
      8      1      7     23      -7655.    

      8 WELLS

                 RECHARGE =  5.000000E-04

 REUSING STREAM SEGMENT DATA FROM LAST STRESS PERIOD
 
 SOLVING FOR HEAD 


     6 CALLS TO PCG ROUTINE FOR TIME STEP   1 IN STRESS PERIOD    9
    23 TOTAL ITERATIONS

 OUTPUT CONTROL FOR STRESS PERIOD    9   TIME STEP    1
    SAVE BUDGET
    SAVE HEAD FOR ALL LAYERS
    PRINT HEAD FOR ALL LAYERS
 UBDSV2 SAVING "STREAMFLOW OUT  " ON UNIT  50 AT TIME STEP  1, STRESS PERIOD   9



 STREAM LISTING     PERIOD      9   STEP        1

 LAYER ROW COL. STREAM  RCH.  FLOW INTO     FLOW TO   FLOW OUT OF   OVRLND.     DIRECT     STREAM       STREAM     STREAM     STREAM   STREAMBED  STREAMBED
                SEG.NO.  NO.  STRM. RCH.    AQUIFER    STRM. RCH.    RUNOFF     PRECIP       ET          HEAD       DEPTH      WIDTH   CONDCTNC.   GRADIENT

   1   13    1     1     1    1.0000E+05 -1.5625E+03   1.0156E+05  0.000E+00  0.000E+00  0.000E+00  4.84067E+01  1.453E-01  2.000E+01  2.000E+04 -7.812E-02
   1   13    2     1     2    1.0156E+05 -2.4950E+03   1.0406E+05  0.000E+00  0.000E+00  0.000E+00  4.79312E+01  1.471E-01  2.000E+01  2.000E+04 -1.247E-01
   1   14    3     1     3    1.0406E+05 -3.9794E+02   1.0446E+05  0.000E+00  0.000E+00  0.000E+00  4.74551E+01  1.483E-01  2.000E+01  2.000E+04 -1.990E-02
   1   15    4     1     4    1.0446E+05 -3.7265E+02   1.0483E+05  0.000E+00  0.000E+00  0.000E+00  4.69782E+01  1.486E-01  2.000E+01  2.000E+04 -1.863E-02
   1   16    5     1     5    1.0483E+05 -1.4816E+03   1.0631E+05  0.000E+00  0.000E+00  0.000E+00  4.65017E+01  1.494E-01  2.000E+01  2.000E+04 -7.408E-02
   1   16    6     1     6    1.0631E+05 -9.4545E+02   1.0726E+05  0.000E+00  0.000E+00  0.000E+00  4.60255E+01  1.505E-01  2.000E+01  2.000E+04 -4.727E-02
   1   16    7     1     7    1.0726E+05 -9.3385E+02   1.0819E+05  0.000E+00  0.000E+00  0.000E+00  4.55490E+01  1.513E-01  2.000E+01  2.000E+04 -4.669E-02
   1   16    8     1     8    1.0819E+05 -9.3534E+02   1.0912E+05  0.000E+00  0.000E+00  0.000E+00  4.50725E+01  1.520E-01  2.000E+01  2.000E+04 -4.677E-02
   1   16    9     1     9    1.0912E+05 -9.3436E+02   1.1006E+05  0.000E+00  0.000E+00  0.000E+00  4.45960E+01  1.528E-01  2.000E+01  2.000E+04 -4.672E-02
   1   16   10     1    10    1.1006E+05 -9.3179E+02   1.1099E+05  0.000E+00  0.000E+00  0.000E+00  4.41195E+01  1.536E-01  2.000E+01  2.000E+04 -4.659E-02
   1   16   11     1    11    1.1099E+05 -9.4699E+02   1.1194E+05  0.000E+00  0.000E+00  0.000E+00  4.36430E+01  1.544E-01  2.000E+01  2.000E+04 -4.735E-02
   1   16   12     1    12    1.1194E+05 -1.5962E+03   1.1353E+05  0.000E+00  0.000E+00  0.000E+00  4.31668E+01  1.554E-01  2.000E+01  2.000E+04 -7.981E-02
   1   15   13     1    13    1.1353E+05 -1.3686E+03   1.1490E+05  0.000E+00  0.000E+00  0.000E+00  4.26908E+01  1.567E-01  2.000E+01  2.000E+04 -6.843E-02
   1   14   14     1    14    1.1490E+05 -1.4842E+03   1.1639E+05  0.000E+00  0.000E+00  0.000E+00  4.22147E+01  1.578E-01  2.000E+01  2.000E+04 -7.421E-02
   1   13   15     1    15    1.1639E+05 -1.5606E+03   1.1795E+05  0.000E+00  0.000E+00  0.000E+00  4.17386E+01  1.591E-01  2.000E+01  2.000E+04 -7.803E-02
   1   12   16     1    16    1.1795E+05 -1.5964E+03   1.1954E+05  0.000E+00  0.000E+00  0.000E+00  4.12626E+01  1.604E-01  2.000E+01  2.000E+04 -7.982E-02
   1   12   17     1    17    1.1954E+05 -8.9789E+02   1.2044E+05  0.000E+00  0.000E+00  0.000E+00  4.07864E+01  1.614E-01  2.000E+01  2.000E+04 -4.489E-02
   1   12   18     1    18    1.2044E+05 -6.5842E+02   1.2110E+05  0.000E+00  0.000E+00  0.000E+00  4.03097E+01  1.620E-01  2.000E+01  2.000E+04 -3.292E-02
   1   12   19     1    19    1.2110E+05  7.4809E+00   1.2109E+05  0.000E+00  0.000E+00  0.000E+00  3.98327E+01  1.623E-01  2.000E+01  2.000E+04  3.740E-04
   1   13   20     1    20    1.2109E+05  7.4042E+02   1.2035E+05  0.000E+00  0.000E+00  0.000E+00  3.93551E+01  1.620E-01  2.000E+01  2.000E+04  3.702E-02
   1   14   21     1    21    1.2035E+05 -5.1503E+01   1.2040E+05  0.000E+00  0.000E+00  0.000E+00  3.88776E+01  1.617E-01  2.000E+01  2.000E+04 -2.575E-03
   1   14   22     1    22    1.2040E+05  6.2845E+03   1.1412E+05  0.000E+00  0.000E+00  0.000E+00  3.83978E+01  1.592E-01  2.000E+01  2.000E+04  3.142E-01
   1    9   30     2     1    5.0000E+04 -9.6647E+01   5.0097E+04  0.000E+00  0.000E+00  0.000E+00  4.02409E+01  1.159E-01  2.000E+01  2.000E+04 -4.832E-03
   1    9   29     2     2    5.0097E+04 -3.3212E+02   5.0429E+04  0.000E+00  0.000E+00  0.000E+00  3.99912E+01  1.162E-01  2.000E+01  2.000E+04 -1.661E-02
   1    9   28     2     3    5.0429E+04 -4.1443E+02   5.0843E+04  0.000E+00  0.000E+00  0.000E+00  3.97417E+01  1.167E-01  2.000E+01  2.000E+04 -2.072E-02
   1    9   27     2     4    5.0843E+04 -5.2361E+02   5.1367E+04  0.000E+00  0.000E+00  0.000E+00  3.94924E+01  1.174E-01  2.000E+01  2.000E+04 -2.618E-02
   1   10   26     2     5    5.1367E+04  4.5012E+02   5.0917E+04  0.000E+00  0.000E+00  0.000E+00  3.92424E+01  1.174E-01  2.000E+01  2.000E+04  2.251E-02
   1   11   25     2     6    5.0917E+04  1.7631E+03   4.9154E+04  0.000E+00  0.000E+00  0.000E+00  3.89909E+01  1.159E-01  2.000E+01  2.000E+04  8.815E-02
   1   12   24     2     7    4.9154E+04  3.2445E+03   4.5909E+04  0.000E+00  0.000E+00  0.000E+00  3.87374E+01  1.124E-01  2.000E+01  2.000E+04  1.622E-01
   1   13   23     2     8    4.5909E+04  9.9258E+02   4.4917E+04  0.000E+00  0.000E+00  0.000E+00  3.84844E+01  1.094E-01  2.000E+01  2.000E+04  4.963E-02
   1   14   22     2     9    4.4917E+04  2.9584E+03   4.1958E+04  0.000E+00  0.000E+00  0.000E+00  3.82315E+01  1.065E-01  2.000E+01  2.000E+04  1.479E-01
   1   14   22     3     1    1.5608E+05 -7.3803E+03   1.6346E+05  0.000E+00  0.000E+00  0.000E+00  3.77146E+01  1.590E-01  2.000E+01  2.000E+04 -3.690E-01
   1   15   23     3     2    1.6346E+05 -4.9632E+02   1.6395E+05  0.000E+00  0.000E+00  0.000E+00  3.68280E+01  1.613E-01  2.000E+01  2.000E+04 -2.482E-02
   1   15   24     3     3    1.6395E+05 -2.4205E+02   1.6420E+05  0.000E+00  0.000E+00  0.000E+00  3.59393E+01  1.616E-01  2.000E+01  2.000E+04 -1.210E-02
   1   15   25     3     4    1.6420E+05 -2.3368E+02   1.6443E+05  0.000E+00  0.000E+00  0.000E+00  3.50506E+01  1.617E-01  2.000E+01  2.000E+04 -1.168E-02
   1   15   26     3     5    1.6443E+05 -2.8556E+02   1.6471E+05  0.000E+00  0.000E+00  0.000E+00  3.41619E+01  1.619E-01  2.000E+01  2.000E+04 -1.428E-02
   1   16   27     3     6    1.6471E+05 -3.1204E+02   1.6503E+05  0.000E+00  0.000E+00  0.000E+00  3.32731E+01  1.620E-01  2.000E+01  2.000E+04 -1.560E-02
   1   17   28     3     7    1.6503E+05 -1.4111E+03   1.6644E+05  0.000E+00  0.000E+00  0.000E+00  3.23848E+01  1.625E-01  2.000E+01  2.000E+04 -7.056E-02
   1   18   29     3     8    1.6644E+05 -2.7513E+03   1.6919E+05  0.000E+00  0.000E+00  0.000E+00  3.14971E+01  1.638E-01  2.000E+01  2.000E+04 -1.376E-01
   1   18   30     3     9    1.6919E+05 -3.0608E+03   1.7225E+05  0.000E+00  0.000E+00  0.000E+00  3.06099E+01  1.655E-01  2.000E+01  2.000E+04 -1.530E-01



1
              HEAD IN LAYER   1 AT END OF TIME STEP   1 IN STRESS PERIOD    9
  ---------------------------------------------------------------------------

          1      2      3      4      5      6      7      8      9     10
         11     12     13     14     15     16     17     18     19     20
         21     22     23     24     25     26     27     28     29     30
 .........................................................................
   1  ****** ****** ****** ****** ****** ****** ****** ****** ****** ******
      ****** ****** ****** ****** ****** ****** ****** ****** ****** ******
      ****** ****** ****** ****** ****** ****** ****** ****** ****** ******
   2  ****** ****** ****** ****** ****** ****** ****** ****** ****** ******
      ****** ****** ****** ****** ****** ****** ****** ****** ****** ******
      ****** ****** ****** ****** ****** ****** ****** ****** ****** ******
   3  ****** ****** ****** ****** ****** ****** ****** ****** ****** ******
      ****** ****** ****** ****** ****** ****** ****** ****** ****** ******
      ****** ****** ****** ****** ****** ****** ****** ****** ****** ******
   4  ****** ****** ****** ****** ****** ****** ****** ****** ****** ******
      ****** ****** ****** ****** ****** ****** ****** ****** ****** ******
      ****** ****** ****** ****** ****** ****** ****** ****** ****** ******
   5  ****** ****** ****** ****** ****** ****** ****** ****** ****** ******
      ****** ****** ****** ****** ****** ****** ****** ****** ****** ******
      ****** ****** ****** ****** ****** ****** ****** ****** ****** ******
   6  ****** ****** ****** ****** ****** ****** ****** ****** ****** ******
      ****** ****** ****** ****** ****** ****** ****** ****** ****** ******
      ****** ****** ****** ****** ****** ****** ****** ****** ****** ******
   7  ****** ****** ****** ****** ****** ****** ****** ****** ****** ******
      ****** ****** ****** ****** ****** ****** ****** ****** ****** ******
      ****** ****** ****** ****** ****** ****** ****** ****** ****** ******
   8  ****** ****** ****** ****** ****** ****** ****** ****** ****** ******
      ****** ****** ****** ****** ****** ****** ****** ****** ****** ******
      ****** ****** ****** ****** ****** ****** ****** ****** ****** ******
   9  ****** ****** ****** ****** ****** ****** ****** ****** ****** ******
      ****** ****** ****** ****** ****** ****** ****** ****** ****** ******
      ****** ****** ****** ****** ****** ****** ****** ****** ****** ******
  10  ****** ****** ****** ****** ****** ****** ****** ****** ****** ******
      ****** ****** ****** ****** ****** ****** ****** ****** ****** ******
      ****** ****** ****** ****** ****** ****** ****** ****** ****** ******
  11  ****** ****** ****** ****** ****** ****** ****** ****** ****** ******
      ****** ****** ****** ****** ****** ****** ****** ****** ****** ******
      ****** ****** ****** ****** ****** ****** ****** ****** ****** ******
  12  ****** ****** ****** ****** ****** ****** ****** ****** ****** ******
      ****** ****** ****** ****** ****** ****** ****** ****** ****** ******
      ****** ****** ****** ****** ****** ****** ****** ****** ****** ******
  13  ****** ****** ****** ****** ****** ****** ****** ****** ****** ******
      ****** ****** ****** ****** ****** ****** ****** ****** ****** ******
      ****** ****** ****** ****** ****** ****** ****** ****** ****** ******
  14  ****** ****** ****** ****** ****** ****** ****** ****** ****** ******
      ****** ****** ****** ****** ****** ****** ****** ****** ****** ******
      ****** ****** ****** ****** ****** ****** ****** ****** ****** ******
  15  ****** ****** ****** ****** ****** ****** ****** ****** ****** ******
      ****** ****** ****** ****** ****** ****** ****** ****** ****** ******
      ****** ****** ****** ****** ****** ****** ****** ****** ****** ******
  16  ****** ****** ****** ****** ****** ****** ****** ****** ****** ******
      ****** ****** ****** ****** ****** ****** ****** ****** ****** ******
      ****** ****** ****** ****** ****** ****** ****** ****** ****** ******
  17  ****** ****** ****** ****** ****** ****** ****** ****** ****** ******
      ****** ****** ****** ****** ****** ****** ****** ****** ****** ******
      ****** ****** ****** ****** ****** ****** ****** ****** ****** ******
  18  ****** ****** ****** ****** ****** ****** ****** ****** ****** ******
      ****** ****** ****** ****** ****** ****** ****** ****** ****** ******
      ****** ****** ****** ****** ****** ****** ****** ****** ****** ******
  19  ****** ****** ****** ****** ****** ****** ****** ****** ****** ******
      ****** ****** ****** ****** ****** ****** ****** ****** ****** ******
      ****** ****** ****** ****** ****** ****** ****** ****** ****** ******
  20  ****** ****** ****** ****** ****** ****** ****** ****** ****** ******
      ****** ****** ****** ****** ****** ****** ****** ****** ****** ******
      ****** ****** ****** ****** ****** ****** ****** ****** ****** ******
  21  ****** ****** ****** ****** ****** ****** ****** ****** ****** ******
      ****** ****** ****** ****** ****** ****** ****** ****** ****** ******
      ****** ****** ****** ****** ****** ****** ****** ****** ****** ******
  22  ****** ****** ****** ****** ****** ****** ****** ****** ****** ******
      ****** ****** ****** ****** ****** ****** ****** ****** ****** ******
      ****** ****** ****** ****** ****** ****** ****** ****** ****** ******
  23  ****** ****** ****** ****** ****** ****** ****** ****** ****** ******
      ****** ****** ****** ****** ****** ****** ****** ****** ****** ******
      ****** ****** ****** ****** ****** ****** ****** ****** ****** ******
  24  ****** ****** ****** ****** ****** ****** ****** ****** ****** ******
      ****** ****** ****** ****** ****** ****** ****** ****** ****** ******
      ****** ****** ****** ****** ****** ****** ****** ****** ****** ******
  25  ****** ****** ****** ****** ****** ****** ****** ****** ****** ******
      ****** ****** ****** ****** ****** ****** ****** ****** ****** ******
      ****** ****** ****** ****** ****** ****** ****** ****** ****** ******

 HEAD WILL BE SAVED ON UNIT   51 AT END OF TIME STEP    1, STRESS PERIOD    9
1
  VOLUMETRIC BUDGET FOR ENTIRE MODEL AT END OF TIME STEP    1, STRESS PERIOD   9
  ------------------------------------------------------------------------------

     CUMULATIVE VOLUMES      L**3       RATES FOR THIS TIME STEP      L**3/T
     ------------------                 ------------------------

           IN:                                      IN:
           ---                                      ---
             STORAGE =    33869486.8456               STORAGE =        7269.5105
       CONSTANT HEAD =    22425782.9692         CONSTANT HEAD =       34293.1459
               WELLS =           0.0000                 WELLS =           0.0000
            RECHARGE =    18878400.0000              RECHARGE =       13800.0000
      STREAM LEAKAGE =    11012193.1048        STREAM LEAKAGE =       16440.9811

            TOTAL IN =    86185862.9197              TOTAL IN =       71803.6375

          OUT:                                     OUT:
          ----                                     ----
             STORAGE =      930315.2097               STORAGE =           0.0000
       CONSTANT HEAD =           0.0000         CONSTANT HEAD =           0.0000
               WELLS =    27218386.7718                 WELLS =       33112.3927
            RECHARGE =           0.0000              RECHARGE =           0.0000
      STREAM LEAKAGE =    58037162.7060        STREAM LEAKAGE =       38691.2456

           TOTAL OUT =    86185864.6875             TOTAL OUT =       71803.6382

            IN - OUT =          -1.7678              IN - OUT =      -7.5064E-04

 PERCENT DISCREPANCY =          -0.00     PERCENT DISCREPANCY =          -0.00






         TIME SUMMARY AT END OF TIME STEP    1 IN STRESS PERIOD    9
                    SECONDS     MINUTES      HOURS       DAYS        YEARS
                    -----------------------------------------------------------
   TIME STEP LENGTH 7.94880E+06 1.32480E+05  2208.0      92.000     0.25188    
 STRESS PERIOD TIME 7.94880E+06 1.32480E+05  2208.0      92.000     0.25188    
         TOTAL TIME 7.10208E+07 1.18368E+06  19728.      822.00      2.2505    
1
1
                            STRESS PERIOD NO.   10, LENGTH =   91.00000    
                            -----------------------------------------------

                              NUMBER OF TIME STEPS =     1

                               MULTIPLIER FOR DELT =     1.500

                            INITIAL TIME STEP SIZE =   91.00000    

 WELL NO.  LAYER   ROW   COL   STRESS RATE         
 --------------------------------------------------
      1      1     14      6       0.000    
      2      1      3      9       0.000    
      3      1     20     10       0.000    
      4      1     14     20       0.000    
      5      1     11     23      -9982.    
      6      1     13     22      -7684.    
      7      1      6     18      -7790.    
      8      1      7     23      -7655.    

      8 WELLS

                 RECHARGE =  2.000000E-03

 REUSING STREAM SEGMENT DATA FROM LAST STRESS PERIOD
 
 SOLVING FOR HEAD 


     7 CALLS TO PCG ROUTINE FOR TIME STEP   1 IN STRESS PERIOD   10
    26 TOTAL ITERATIONS

 OUTPUT CONTROL FOR STRESS PERIOD   10   TIME STEP    1
    SAVE BUDGET
    SAVE HEAD FOR ALL LAYERS
    PRINT HEAD FOR ALL LAYERS
 UBDSV2 SAVING "STREAMFLOW OUT  " ON UNIT  50 AT TIME STEP  1, STRESS PERIOD  10



 STREAM LISTING     PERIOD     10   STEP        1

 LAYER ROW COL. STREAM  RCH.  FLOW INTO     FLOW TO   FLOW OUT OF   OVRLND.     DIRECT     STREAM       STREAM     STREAM     STREAM   STREAMBED  STREAMBED
                SEG.NO.  NO.  STRM. RCH.    AQUIFER    STRM. RCH.    RUNOFF     PRECIP       ET          HEAD       DEPTH      WIDTH   CONDCTNC.   GRADIENT

   1   13    1     1     1    1.0000E+05 -2.0130E+03   1.0201E+05  0.000E+00  0.000E+00  0.000E+00  4.84069E+01  1.455E-01  2.000E+01  2.000E+04 -1.006E-01
   1   13    2     1     2    1.0201E+05 -2.9942E+03   1.0501E+05  0.000E+00  0.000E+00  0.000E+00  4.79318E+01  1.477E-01  2.000E+01  2.000E+04 -1.497E-01
   1   14    3     1     3    1.0501E+05 -5.8417E+02   1.0559E+05  0.000E+00  0.000E+00  0.000E+00  4.74560E+01  1.492E-01  2.000E+01  2.000E+04 -2.921E-02
   1   15    4     1     4    1.0559E+05 -5.7188E+02   1.0616E+05  0.000E+00  0.000E+00  0.000E+00  4.69792E+01  1.497E-01  2.000E+01  2.000E+04 -2.859E-02
   1   16    5     1     5    1.0616E+05 -2.1009E+03   1.0826E+05  0.000E+00  0.000E+00  0.000E+00  4.65031E+01  1.508E-01  2.000E+01  2.000E+04 -1.050E-01
   1   16    6     1     6    1.0826E+05 -1.3077E+03   1.0957E+05  0.000E+00  0.000E+00  0.000E+00  4.60273E+01  1.523E-01  2.000E+01  2.000E+04 -6.539E-02
   1   16    7     1     7    1.0957E+05 -1.2783E+03   1.1085E+05  0.000E+00  0.000E+00  0.000E+00  4.55511E+01  1.533E-01  2.000E+01  2.000E+04 -6.391E-02
   1   16    8     1     8    1.1085E+05 -1.2743E+03   1.1212E+05  0.000E+00  0.000E+00  0.000E+00  4.50749E+01  1.544E-01  2.000E+01  2.000E+04 -6.372E-02
   1   16    9     1     9    1.1212E+05 -1.2719E+03   1.1340E+05  0.000E+00  0.000E+00  0.000E+00  4.45986E+01  1.555E-01  2.000E+01  2.000E+04 -6.359E-02
   1   16   10     1    10    1.1340E+05 -1.2696E+03   1.1467E+05  0.000E+00  0.000E+00  0.000E+00  4.41224E+01  1.565E-01  2.000E+01  2.000E+04 -6.348E-02
   1   16   11     1    11    1.1467E+05 -1.2884E+03   1.1595E+05  0.000E+00  0.000E+00  0.000E+00  4.36462E+01  1.576E-01  2.000E+01  2.000E+04 -6.442E-02
   1   16   12     1    12    1.1595E+05 -2.1661E+03   1.1812E+05  0.000E+00  0.000E+00  0.000E+00  4.31703E+01  1.590E-01  2.000E+01  2.000E+04 -1.083E-01
   1   15   13     1    13    1.1812E+05 -1.9547E+03   1.2008E+05  0.000E+00  0.000E+00  0.000E+00  4.26947E+01  1.606E-01  2.000E+01  2.000E+04 -9.774E-02
   1   14   14     1    14    1.2008E+05 -2.0770E+03   1.2215E+05  0.000E+00  0.000E+00  0.000E+00  4.22191E+01  1.623E-01  2.000E+01  2.000E+04 -1.039E-01
   1   13   15     1    15    1.2215E+05 -2.1429E+03   1.2429E+05  0.000E+00  0.000E+00  0.000E+00  4.17435E+01  1.640E-01  2.000E+01  2.000E+04 -1.071E-01
   1   12   16     1    16    1.2429E+05 -2.1564E+03   1.2645E+05  0.000E+00  0.000E+00  0.000E+00  4.12679E+01  1.657E-01  2.000E+01  2.000E+04 -1.078E-01
   1   12   17     1    17    1.2645E+05 -1.3226E+03   1.2777E+05  0.000E+00  0.000E+00  0.000E+00  4.07920E+01  1.670E-01  2.000E+01  2.000E+04 -6.613E-02
   1   12   18     1    18    1.2777E+05 -1.0791E+03   1.2885E+05  0.000E+00  0.000E+00  0.000E+00  4.03157E+01  1.680E-01  2.000E+01  2.000E+04 -5.396E-02
   1   12   19     1    19    1.2885E+05 -5.1010E+02   1.2936E+05  0.000E+00  0.000E+00  0.000E+00  3.98391E+01  1.686E-01  2.000E+01  2.000E+04 -2.550E-02
   1   13   20     1    20    1.2936E+05  2.1913E+02   1.2914E+05  0.000E+00  0.000E+00  0.000E+00  3.93619E+01  1.687E-01  2.000E+01  2.000E+04  1.096E-02
   1   14   21     1    21    1.2914E+05 -5.7744E+02   1.2972E+05  0.000E+00  0.000E+00  0.000E+00  3.88848E+01  1.689E-01  2.000E+01  2.000E+04 -2.887E-02
   1   14   22     1    22    1.2972E+05  6.1534E+03   1.2357E+05  0.000E+00  0.000E+00  0.000E+00  3.84053E+01  1.667E-01  2.000E+01  2.000E+04  3.077E-01
   1    9   30     2     1    5.0000E+04 -5.1042E+02   5.0510E+04  0.000E+00  0.000E+00  0.000E+00  4.02412E+01  1.162E-01  2.000E+01  2.000E+04 -2.552E-02
   1    9   29     2     2    5.0510E+04 -7.4358E+02   5.1254E+04  0.000E+00  0.000E+00  0.000E+00  3.99921E+01  1.171E-01  2.000E+01  2.000E+04 -3.718E-02
   1    9   28     2     3    5.1254E+04 -8.2501E+02   5.2079E+04  0.000E+00  0.000E+00  0.000E+00  3.97432E+01  1.182E-01  2.000E+01  2.000E+04 -4.125E-02
   1    9   27     2     4    5.2079E+04 -1.0755E+03   5.3154E+04  0.000E+00  0.000E+00  0.000E+00  3.94945E+01  1.195E-01  2.000E+01  2.000E+04 -5.377E-02
   1   10   26     2     5    5.3154E+04 -1.0197E+02   5.3256E+04  0.000E+00  0.000E+00  0.000E+00  3.92453E+01  1.203E-01  2.000E+01  2.000E+04 -5.098E-03
   1   11   25     2     6    5.3256E+04  1.2354E+03   5.2021E+04  0.000E+00  0.000E+00  0.000E+00  3.89945E+01  1.195E-01  2.000E+01  2.000E+04  6.177E-02
   1   12   24     2     7    5.2021E+04  2.7671E+03   4.9254E+04  0.000E+00  0.000E+00  0.000E+00  3.87417E+01  1.167E-01  2.000E+01  2.000E+04  1.384E-01
   1   13   23     2     8    4.9254E+04  8.4405E+02   4.8410E+04  0.000E+00  0.000E+00  0.000E+00  3.84892E+01  1.142E-01  2.000E+01  2.000E+04  4.220E-02
   1   14   22     2     9    4.8410E+04  2.7805E+03   4.5629E+04  0.000E+00  0.000E+00  0.000E+00  3.82367E+01  1.117E-01  2.000E+01  2.000E+04  1.390E-01
   1   14   22     3     1    1.6920E+05 -7.5069E+03   1.7670E+05  0.000E+00  0.000E+00  0.000E+00  3.77223E+01  1.667E-01  2.000E+01  2.000E+04 -3.753E-01
   1   15   23     3     2    1.7670E+05 -6.5909E+02   1.7736E+05  0.000E+00  0.000E+00  0.000E+00  3.68358E+01  1.691E-01  2.000E+01  2.000E+04 -3.295E-02
   1   15   24     3     3    1.7736E+05 -3.7937E+02   1.7774E+05  0.000E+00  0.000E+00  0.000E+00  3.59472E+01  1.694E-01  2.000E+01  2.000E+04 -1.897E-02
   1   15   25     3     4    1.7774E+05 -3.7439E+02   1.7812E+05  0.000E+00  0.000E+00  0.000E+00  3.50585E+01  1.696E-01  2.000E+01  2.000E+04 -1.872E-02
   1   15   26     3     5    1.7812E+05 -4.4788E+02   1.7857E+05  0.000E+00  0.000E+00  0.000E+00  3.41698E+01  1.698E-01  2.000E+01  2.000E+04 -2.239E-02
   1   16   27     3     6    1.7857E+05 -4.9805E+02   1.7906E+05  0.000E+00  0.000E+00  0.000E+00  3.32812E+01  1.701E-01  2.000E+01  2.000E+04 -2.490E-02
   1   17   28     3     7    1.7906E+05 -1.9323E+03   1.8100E+05  0.000E+00  0.000E+00  0.000E+00  3.23930E+01  1.708E-01  2.000E+01  2.000E+04 -9.661E-02
   1   18   29     3     8    1.8100E+05 -3.3039E+03   1.8430E+05  0.000E+00  0.000E+00  0.000E+00  3.15056E+01  1.723E-01  2.000E+01  2.000E+04 -1.652E-01
   1   18   30     3     9    1.8430E+05 -3.4869E+03   1.8779E+05  0.000E+00  0.000E+00  0.000E+00  3.06187E+01  1.742E-01  2.000E+01  2.000E+04 -1.743E-01



1
              HEAD IN LAYER   1 AT END OF TIME STEP   1 IN STRESS PERIOD   10
  ---------------------------------------------------------------------------

          1      2      3      4      5      6      7      8      9     10
         11     12     13     14     15     16     17     18     19     20
         21     22     23     24     25     26     27     28     29     30
 .........................................................................
   1  ****** ****** ****** ****** ****** ****** ****** ****** ****** ******
      ****** ****** ****** ****** ****** ****** ****** ****** ****** ******
      ****** ****** ****** ****** ****** ****** ****** ****** ****** ******
   2  ****** ****** ****** ****** ****** ****** ****** ****** ****** ******
      ****** ****** ****** ****** ****** ****** ****** ****** ****** ******
      ****** ****** ****** ****** ****** ****** ****** ****** ****** ******
   3  ****** ****** ****** ****** ****** ****** ****** ****** ****** ******
      ****** ****** ****** ****** ****** ****** ****** ****** ****** ******
      ****** ****** ****** ****** ****** ****** ****** ****** ****** ******
   4  ****** ****** ****** ****** ****** ****** ****** ****** ****** ******
      ****** ****** ****** ****** ****** ****** ****** ****** ****** ******
      ****** ****** ****** ****** ****** ****** ****** ****** ****** ******
   5  ****** ****** ****** ****** ****** ****** ****** ****** ****** ******
      ****** ****** ****** ****** ****** ****** ****** ****** ****** ******
      ****** ****** ****** ****** ****** ****** ****** ****** ****** ******
   6  ****** ****** ****** ****** ****** ****** ****** ****** ****** ******
      ****** ****** ****** ****** ****** ****** ****** ****** ****** ******
      ****** ****** ****** ****** ****** ****** ****** ****** ****** ******
   7  ****** ****** ****** ****** ****** ****** ****** ****** ****** ******
      ****** ****** ****** ****** ****** ****** ****** ****** ****** ******
      ****** ****** ****** ****** ****** ****** ****** ****** ****** ******
   8  ****** ****** ****** ****** ****** ****** ****** ****** ****** ******
      ****** ****** ****** ****** ****** ****** ****** ****** ****** ******
      ****** ****** ****** ****** ****** ****** ****** ****** ****** ******
   9  ****** ****** ****** ****** ****** ****** ****** ****** ****** ******
      ****** ****** ****** ****** ****** ****** ****** ****** ****** ******
      ****** ****** ****** ****** ****** ****** ****** ****** ****** ******
  10  ****** ****** ****** ****** ****** ****** ****** ****** ****** ******
      ****** ****** ****** ****** ****** ****** ****** ****** ****** ******
      ****** ****** ****** ****** ****** ****** ****** ****** ****** ******
  11  ****** ****** ****** ****** ****** ****** ****** ****** ****** ******
      ****** ****** ****** ****** ****** ****** ****** ****** ****** ******
      ****** ****** ****** ****** ****** ****** ****** ****** ****** ******
  12  ****** ****** ****** ****** ****** ****** ****** ****** ****** ******
      ****** ****** ****** ****** ****** ****** ****** ****** ****** ******
      ****** ****** ****** ****** ****** ****** ****** ****** ****** ******
  13  ****** ****** ****** ****** ****** ****** ****** ****** ****** ******
      ****** ****** ****** ****** ****** ****** ****** ****** ****** ******
      ****** ****** ****** ****** ****** ****** ****** ****** ****** ******
  14  ****** ****** ****** ****** ****** ****** ****** ****** ****** ******
      ****** ****** ****** ****** ****** ****** ****** ****** ****** ******
      ****** ****** ****** ****** ****** ****** ****** ****** ****** ******
  15  ****** ****** ****** ****** ****** ****** ****** ****** ****** ******
      ****** ****** ****** ****** ****** ****** ****** ****** ****** ******
      ****** ****** ****** ****** ****** ****** ****** ****** ****** ******
  16  ****** ****** ****** ****** ****** ****** ****** ****** ****** ******
      ****** ****** ****** ****** ****** ****** ****** ****** ****** ******
      ****** ****** ****** ****** ****** ****** ****** ****** ****** ******
  17  ****** ****** ****** ****** ****** ****** ****** ****** ****** ******
      ****** ****** ****** ****** ****** ****** ****** ****** ****** ******
      ****** ****** ****** ****** ****** ****** ****** ****** ****** ******
  18  ****** ****** ****** ****** ****** ****** ****** ****** ****** ******
      ****** ****** ****** ****** ****** ****** ****** ****** ****** ******
      ****** ****** ****** ****** ****** ****** ****** ****** ****** ******
  19  ****** ****** ****** ****** ****** ****** ****** ****** ****** ******
      ****** ****** ****** ****** ****** ****** ****** ****** ****** ******
      ****** ****** ****** ****** ****** ****** ****** ****** ****** ******
  20  ****** ****** ****** ****** ****** ****** ****** ****** ****** ******
      ****** ****** ****** ****** ****** ****** ****** ****** ****** ******
      ****** ****** ****** ****** ****** ****** ****** ****** ****** ******
  21  ****** ****** ****** ****** ****** ****** ****** ****** ****** ******
      ****** ****** ****** ****** ****** ****** ****** ****** ****** ******
      ****** ****** ****** ****** ****** ****** ****** ****** ****** ******
  22  ****** ****** ****** ****** ****** ****** ****** ****** ****** ******
      ****** ****** ****** ****** ****** ****** ****** ****** ****** ******
      ****** ****** ****** ****** ****** ****** ****** ****** ****** ******
  23  ****** ****** ****** ****** ****** ****** ****** ****** ****** ******
      ****** ****** ****** ****** ****** ****** ****** ****** ****** ******
      ****** ****** ****** ****** ****** ****** ****** ****** ****** ******
  24  ****** ****** ****** ****** ****** ****** ****** ****** ****** ******
      ****** ****** ****** ****** ****** ****** ****** ****** ****** ******
      ****** ****** ****** ****** ****** ****** ****** ****** ****** ******
  25  ****** ****** ****** ****** ****** ****** ****** ****** ****** ******
      ****** ****** ****** ****** ****** ****** ****** ****** ****** ******
      ****** ****** ****** ****** ****** ****** ****** ****** ****** ******

 HEAD WILL BE SAVED ON UNIT   51 AT END OF TIME STEP    1, STRESS PERIOD   10
1
  VOLUMETRIC BUDGET FOR ENTIRE MODEL AT END OF TIME STEP    1, STRESS PERIOD  10
  ------------------------------------------------------------------------------

     CUMULATIVE VOLUMES      L**3       RATES FOR THIS TIME STEP      L**3/T
     ------------------                 ------------------------

           IN:                                      IN:
           ---                                      ---
             STORAGE =    33869486.8456               STORAGE =           0.0000
       CONSTANT HEAD =    25278136.8453         CONSTANT HEAD =       31344.5481
               WELLS =           0.0000                 WELLS =           0.0000
            RECHARGE =    23901600.0000              RECHARGE =       55200.0000
      STREAM LEAKAGE =    12286152.4872        STREAM LEAKAGE =       13999.5537

            TOTAL IN =    95335376.1782              TOTAL IN =      100544.1017

          OUT:                                     OUT:
          ----                                     ----
             STORAGE =     2354091.8982               STORAGE =       15645.8977
       CONSTANT HEAD =           0.0000         CONSTANT HEAD =           0.0000
               WELLS =    30231614.5045                 WELLS =       33112.3927
            RECHARGE =           0.0000              RECHARGE =           0.0000
      STREAM LEAKAGE =    62749671.2122        STREAM LEAKAGE =       51785.8078

           TOTAL OUT =    95335377.6148             TOTAL OUT =      100544.0981

            IN - OUT =          -1.4366              IN - OUT =       3.6395E-03

 PERCENT DISCREPANCY =          -0.00     PERCENT DISCREPANCY =           0.00






         TIME SUMMARY AT END OF TIME STEP    1 IN STRESS PERIOD   10
                    SECONDS     MINUTES      HOURS       DAYS        YEARS
                    -----------------------------------------------------------
   TIME STEP LENGTH 7.86240E+06 1.31040E+05  2184.0      91.000     0.24914    
 STRESS PERIOD TIME 7.86240E+06 1.31040E+05  2184.0      91.000     0.24914    
         TOTAL TIME 7.88832E+07 1.31472E+06  21912.      913.00      2.4997    
1
1
                            STRESS PERIOD NO.   11, LENGTH =   91.00000    
                            -----------------------------------------------

                              NUMBER OF TIME STEPS =     1

                               MULTIPLIER FOR DELT =     1.500

                            INITIAL TIME STEP SIZE =   91.00000    

 WELL NO.  LAYER   ROW   COL   STRESS RATE         
 --------------------------------------------------
      1      1     14      6       0.000    
      2      1      3      9       0.000    
      3      1     20     10       0.000    
      4      1     14     20       0.000    
      5      1     11     23      -9982.    
      6      1     13     22      -7684.    
      7      1      6     18      -7790.    
      8      1      7     23      -7655.    

      8 WELLS

                 RECHARGE =   0.00000    

 REUSING STREAM SEGMENT DATA FROM LAST STRESS PERIOD
 
 SOLVING FOR HEAD 


     7 CALLS TO PCG ROUTINE FOR TIME STEP   1 IN STRESS PERIOD   11
    26 TOTAL ITERATIONS

 OUTPUT CONTROL FOR STRESS PERIOD   11   TIME STEP    1
    SAVE BUDGET
    SAVE HEAD FOR ALL LAYERS
    PRINT HEAD FOR ALL LAYERS
 UBDSV2 SAVING "STREAMFLOW OUT  " ON UNIT  50 AT TIME STEP  1, STRESS PERIOD  11



 STREAM LISTING     PERIOD     11   STEP        1

 LAYER ROW COL. STREAM  RCH.  FLOW INTO     FLOW TO   FLOW OUT OF   OVRLND.     DIRECT     STREAM       STREAM     STREAM     STREAM   STREAMBED  STREAMBED
                SEG.NO.  NO.  STRM. RCH.    AQUIFER    STRM. RCH.    RUNOFF     PRECIP       ET          HEAD       DEPTH      WIDTH   CONDCTNC.   GRADIENT

   1   13    1     1     1    1.0000E+05 -1.4438E+03   1.0144E+05  0.000E+00  0.000E+00  0.000E+00  4.84066E+01  1.453E-01  2.000E+01  2.000E+04 -7.219E-02
   1   13    2     1     2    1.0144E+05 -2.3602E+03   1.0380E+05  0.000E+00  0.000E+00  0.000E+00  4.79310E+01  1.469E-01  2.000E+01  2.000E+04 -1.180E-01
   1   14    3     1     3    1.0380E+05 -3.5304E+02   1.0416E+05  0.000E+00  0.000E+00  0.000E+00  4.74549E+01  1.481E-01  2.000E+01  2.000E+04 -1.765E-02
   1   15    4     1     4    1.0416E+05 -3.2981E+02   1.0449E+05  0.000E+00  0.000E+00  0.000E+00  4.69779E+01  1.484E-01  2.000E+01  2.000E+04 -1.649E-02
   1   16    5     1     5    1.0449E+05 -1.4133E+03   1.0590E+05  0.000E+00  0.000E+00  0.000E+00  4.65014E+01  1.491E-01  2.000E+01  2.000E+04 -7.066E-02
   1   16    6     1     6    1.0590E+05 -8.9340E+02   1.0679E+05  0.000E+00  0.000E+00  0.000E+00  4.60251E+01  1.501E-01  2.000E+01  2.000E+04 -4.467E-02
   1   16    7     1     7    1.0679E+05 -8.8155E+02   1.0768E+05  0.000E+00  0.000E+00  0.000E+00  4.55486E+01  1.508E-01  2.000E+01  2.000E+04 -4.408E-02
   1   16    8     1     8    1.0768E+05 -8.8312E+02   1.0856E+05  0.000E+00  0.000E+00  0.000E+00  4.50720E+01  1.516E-01  2.000E+01  2.000E+04 -4.416E-02
   1   16    9     1     9    1.0856E+05 -8.8292E+02   1.0944E+05  0.000E+00  0.000E+00  0.000E+00  4.45955E+01  1.523E-01  2.000E+01  2.000E+04 -4.415E-02
   1   16   10     1    10    1.0944E+05 -8.8175E+02   1.1032E+05  0.000E+00  0.000E+00  0.000E+00  4.41190E+01  1.531E-01  2.000E+01  2.000E+04 -4.409E-02
   1   16   11     1    11    1.1032E+05 -8.9883E+02   1.1122E+05  0.000E+00  0.000E+00  0.000E+00  4.36424E+01  1.538E-01  2.000E+01  2.000E+04 -4.494E-02
   1   16   12     1    12    1.1122E+05 -1.5206E+03   1.1274E+05  0.000E+00  0.000E+00  0.000E+00  4.31662E+01  1.548E-01  2.000E+01  2.000E+04 -7.603E-02
   1   15   13     1    13    1.1274E+05 -1.2659E+03   1.1401E+05  0.000E+00  0.000E+00  0.000E+00  4.26901E+01  1.560E-01  2.000E+01  2.000E+04 -6.330E-02
   1   14   14     1    14    1.1401E+05 -1.3701E+03   1.1538E+05  0.000E+00  0.000E+00  0.000E+00  4.22139E+01  1.571E-01  2.000E+01  2.000E+04 -6.851E-02
   1   13   15     1    15    1.1538E+05 -1.4413E+03   1.1682E+05  0.000E+00  0.000E+00  0.000E+00  4.17378E+01  1.582E-01  2.000E+01  2.000E+04 -7.207E-02
   1   12   16     1    16    1.1682E+05 -1.4777E+03   1.1830E+05  0.000E+00  0.000E+00  0.000E+00  4.12617E+01  1.594E-01  2.000E+01  2.000E+04 -7.389E-02
   1   12   17     1    17    1.1830E+05 -8.1517E+02   1.1911E+05  0.000E+00  0.000E+00  0.000E+00  4.07853E+01  1.603E-01  2.000E+01  2.000E+04 -4.076E-02
   1   12   18     1    18    1.1911E+05 -5.7952E+02   1.1969E+05  0.000E+00  0.000E+00  0.000E+00  4.03086E+01  1.609E-01  2.000E+01  2.000E+04 -2.898E-02
   1   12   19     1    19    1.1969E+05  1.0325E+02   1.1959E+05  0.000E+00  0.000E+00  0.000E+00  3.98315E+01  1.611E-01  2.000E+01  2.000E+04  5.163E-03
   1   13   20     1    20    1.1959E+05  8.3154E+02   1.1876E+05  0.000E+00  0.000E+00  0.000E+00  3.93539E+01  1.607E-01  2.000E+01  2.000E+04  4.158E-02
   1   14   21     1    21    1.1876E+05  1.9164E+01   1.1874E+05  0.000E+00  0.000E+00  0.000E+00  3.88763E+01  1.604E-01  2.000E+01  2.000E+04  9.582E-04
   1   14   22     1    22    1.1874E+05  6.3046E+03   1.1243E+05  0.000E+00  0.000E+00  0.000E+00  3.83964E+01  1.578E-01  2.000E+01  2.000E+04  3.152E-01
   1    9   30     2     1    5.0000E+04 -2.2150E+01   5.0022E+04  0.000E+00  0.000E+00  0.000E+00  4.02409E+01  1.159E-01  2.000E+01  2.000E+04 -1.107E-03
   1    9   29     2     2    5.0022E+04 -2.5834E+02   5.0280E+04  0.000E+00  0.000E+00  0.000E+00  3.99911E+01  1.161E-01  2.000E+01  2.000E+04 -1.292E-02
   1    9   28     2     3    5.0280E+04 -3.4191E+02   5.0622E+04  0.000E+00  0.000E+00  0.000E+00  3.97415E+01  1.165E-01  2.000E+01  2.000E+04 -1.710E-02
   1    9   27     2     4    5.0622E+04 -4.3516E+02   5.1058E+04  0.000E+00  0.000E+00  0.000E+00  3.94920E+01  1.170E-01  2.000E+01  2.000E+04 -2.176E-02
   1   10   26     2     5    5.1058E+04  5.5263E+02   5.0505E+04  0.000E+00  0.000E+00  0.000E+00  3.92419E+01  1.169E-01  2.000E+01  2.000E+04  2.763E-02
   1   11   25     2     6    5.0505E+04  1.8661E+03   4.8639E+04  0.000E+00  0.000E+00  0.000E+00  3.89903E+01  1.153E-01  2.000E+01  2.000E+04  9.331E-02
   1   12   24     2     7    4.8639E+04  3.3407E+03   4.5298E+04  0.000E+00  0.000E+00  0.000E+00  3.87366E+01  1.116E-01  2.000E+01  2.000E+04  1.670E-01
   1   13   23     2     8    4.5298E+04  1.0299E+03   4.4268E+04  0.000E+00  0.000E+00  0.000E+00  3.84835E+01  1.085E-01  2.000E+01  2.000E+04  5.149E-02
   1   14   22     2     9    4.4268E+04  2.9864E+03   4.1282E+04  0.000E+00  0.000E+00  0.000E+00  3.82305E+01  1.055E-01  2.000E+01  2.000E+04  1.493E-01
   1   14   22     3     1    1.5372E+05 -7.3611E+03   1.6108E+05  0.000E+00  0.000E+00  0.000E+00  3.77131E+01  1.576E-01  2.000E+01  2.000E+04 -3.681E-01
   1   15   23     3     2    1.6108E+05 -4.6723E+02   1.6154E+05  0.000E+00  0.000E+00  0.000E+00  3.68266E+01  1.599E-01  2.000E+01  2.000E+04 -2.336E-02
   1   15   24     3     3    1.6154E+05 -2.1435E+02   1.6176E+05  0.000E+00  0.000E+00  0.000E+00  3.59379E+01  1.601E-01  2.000E+01  2.000E+04 -1.072E-02
   1   15   25     3     4    1.6176E+05 -2.0553E+02   1.6196E+05  0.000E+00  0.000E+00  0.000E+00  3.50491E+01  1.602E-01  2.000E+01  2.000E+04 -1.028E-02
   1   15   26     3     5    1.6196E+05 -2.5226E+02   1.6222E+05  0.000E+00  0.000E+00  0.000E+00  3.41604E+01  1.604E-01  2.000E+01  2.000E+04 -1.261E-02
   1   16   27     3     6    1.6222E+05 -2.7517E+02   1.6249E+05  0.000E+00  0.000E+00  0.000E+00  3.32716E+01  1.605E-01  2.000E+01  2.000E+04 -1.376E-02
   1   17   28     3     7    1.6249E+05 -1.3230E+03   1.6381E+05  0.000E+00  0.000E+00  0.000E+00  3.23832E+01  1.610E-01  2.000E+01  2.000E+04 -6.615E-02
   1   18   29     3     8    1.6381E+05 -2.6828E+03   1.6650E+05  0.000E+00  0.000E+00  0.000E+00  3.14955E+01  1.622E-01  2.000E+01  2.000E+04 -1.341E-01
   1   18   30     3     9    1.6650E+05 -2.9982E+03   1.6950E+05  0.000E+00  0.000E+00  0.000E+00  3.06083E+01  1.639E-01  2.000E+01  2.000E+04 -1.499E-01



1
              HEAD IN LAYER   1 AT END OF TIME STEP   1 IN STRESS PERIOD   11
  ---------------------------------------------------------------------------

          1      2      3      4      5      6      7      8      9     10
         11     12     13     14     15     16     17     18     19     20
         21     22     23     24     25     26     27     28     29     30
 .........................................................................
   1  ****** ****** ****** ****** ****** ****** ****** ****** ****** ******
      ****** ****** ****** ****** ****** ****** ****** ****** ****** ******
      ****** ****** ****** ****** ****** ****** ****** ****** ****** ******
   2  ****** ****** ****** ****** ****** ****** ****** ****** ****** ******
      ****** ****** ****** ****** ****** ****** ****** ****** ****** ******
      ****** ****** ****** ****** ****** ****** ****** ****** ****** ******
   3  ****** ****** ****** ****** ****** ****** ****** ****** ****** ******
      ****** ****** ****** ****** ****** ****** ****** ****** ****** ******
      ****** ****** ****** ****** ****** ****** ****** ****** ****** ******
   4  ****** ****** ****** ****** ****** ****** ****** ****** ****** ******
      ****** ****** ****** ****** ****** ****** ****** ****** ****** ******
      ****** ****** ****** ****** ****** ****** ****** ****** ****** ******
   5  ****** ****** ****** ****** ****** ****** ****** ****** ****** ******
      ****** ****** ****** ****** ****** ****** ****** ****** ****** ******
      ****** ****** ****** ****** ****** ****** ****** ****** ****** ******
   6  ****** ****** ****** ****** ****** ****** ****** ****** ****** ******
      ****** ****** ****** ****** ****** ****** ****** ****** ****** ******
      ****** ****** ****** ****** ****** ****** ****** ****** ****** ******
   7  ****** ****** ****** ****** ****** ****** ****** ****** ****** ******
      ****** ****** ****** ****** ****** ****** ****** ****** ****** ******
      ****** ****** ****** ****** ****** ****** ****** ****** ****** ******
   8  ****** ****** ****** ****** ****** ****** ****** ****** ****** ******
      ****** ****** ****** ****** ****** ****** ****** ****** ****** ******
      ****** ****** ****** ****** ****** ****** ****** ****** ****** ******
   9  ****** ****** ****** ****** ****** ****** ****** ****** ****** ******
      ****** ****** ****** ****** ****** ****** ****** ****** ****** ******
      ****** ****** ****** ****** ****** ****** ****** ****** ****** ******
  10  ****** ****** ****** ****** ****** ****** ****** ****** ****** ******
      ****** ****** ****** ****** ****** ****** ****** ****** ****** ******
      ****** ****** ****** ****** ****** ****** ****** ****** ****** ******
  11  ****** ****** ****** ****** ****** ****** ****** ****** ****** ******
      ****** ****** ****** ****** ****** ****** ****** ****** ****** ******
      ****** ****** ****** ****** ****** ****** ****** ****** ****** ******
  12  ****** ****** ****** ****** ****** ****** ****** ****** ****** ******
      ****** ****** ****** ****** ****** ****** ****** ****** ****** ******
      ****** ****** ****** ****** ****** ****** ****** ****** ****** ******
  13  ****** ****** ****** ****** ****** ****** ****** ****** ****** ******
      ****** ****** ****** ****** ****** ****** ****** ****** ****** ******
      ****** ****** ****** ****** ****** ****** ****** ****** ****** ******
  14  ****** ****** ****** ****** ****** ****** ****** ****** ****** ******
      ****** ****** ****** ****** ****** ****** ****** ****** ****** ******
      ****** ****** ****** ****** ****** ****** ****** ****** ****** ******
  15  ****** ****** ****** ****** ****** ****** ****** ****** ****** ******
      ****** ****** ****** ****** ****** ****** ****** ****** ****** ******
      ****** ****** ****** ****** ****** ****** ****** ****** ****** ******
  16  ****** ****** ****** ****** ****** ****** ****** ****** ****** ******
      ****** ****** ****** ****** ****** ****** ****** ****** ****** ******
      ****** ****** ****** ****** ****** ****** ****** ****** ****** ******
  17  ****** ****** ****** ****** ****** ****** ****** ****** ****** ******
      ****** ****** ****** ****** ****** ****** ****** ****** ****** ******
      ****** ****** ****** ****** ****** ****** ****** ****** ****** ******
  18  ****** ****** ****** ****** ****** ****** ****** ****** ****** ******
      ****** ****** ****** ****** ****** ****** ****** ****** ****** ******
      ****** ****** ****** ****** ****** ****** ****** ****** ****** ******
  19  ****** ****** ****** ****** ****** ****** ****** ****** ****** ******
      ****** ****** ****** ****** ****** ****** ****** ****** ****** ******
      ****** ****** ****** ****** ****** ****** ****** ****** ****** ******
  20  ****** ****** ****** ****** ****** ****** ****** ****** ****** ******
      ****** ****** ****** ****** ****** ****** ****** ****** ****** ******
      ****** ****** ****** ****** ****** ****** ****** ****** ****** ******
  21  ****** ****** ****** ****** ****** ****** ****** ****** ****** ******
      ****** ****** ****** ****** ****** ****** ****** ****** ****** ******
      ****** ****** ****** ****** ****** ****** ****** ****** ****** ******
  22  ****** ****** ****** ****** ****** ****** ****** ****** ****** ******
      ****** ****** ****** ****** ****** ****** ****** ****** ****** ******
      ****** ****** ****** ****** ****** ****** ****** ****** ****** ******
  23  ****** ****** ****** ****** ****** ****** ****** ****** ****** ******
      ****** ****** ****** ****** ****** ****** ****** ****** ****** ******
      ****** ****** ****** ****** ****** ****** ****** ****** ****** ******
  24  ****** ****** ****** ****** ****** ****** ****** ****** ****** ******
      ****** ****** ****** ****** ****** ****** ****** ****** ****** ******
      ****** ****** ****** ****** ****** ****** ****** ****** ****** ******
  25  ****** ****** ****** ****** ****** ****** ****** ****** ****** ******
      ****** ****** ****** ****** ****** ****** ****** ****** ****** ******
      ****** ****** ****** ****** ****** ****** ****** ****** ****** ******

 HEAD WILL BE SAVED ON UNIT   51 AT END OF TIME STEP    1, STRESS PERIOD   11
1
  VOLUMETRIC BUDGET FOR ENTIRE MODEL AT END OF TIME STEP    1, STRESS PERIOD  11
  ------------------------------------------------------------------------------

     CUMULATIVE VOLUMES      L**3       RATES FOR THIS TIME STEP      L**3/T
     ------------------                 ------------------------

           IN:                                      IN:
           ---                                      ---
             STORAGE =    35505109.3985               STORAGE =       17973.8742
       CONSTANT HEAD =    28429799.8224         CONSTANT HEAD =       34633.6591
               WELLS =           0.0000                 WELLS =           0.0000
            RECHARGE =    23901600.0000              RECHARGE =           0.0000
      STREAM LEAKAGE =    13836269.9540        STREAM LEAKAGE =       17034.2579

            TOTAL IN =   101672779.1749              TOTAL IN =       69641.7912

          OUT:                                     OUT:
          ----                                     ----
             STORAGE =     2354091.8982               STORAGE =           0.0000
       CONSTANT HEAD =           0.0000         CONSTANT HEAD =           0.0000
               WELLS =    33244842.2371                 WELLS =       33112.3927
            RECHARGE =           0.0000              RECHARGE =           0.0000
      STREAM LEAKAGE =    66073846.9082        STREAM LEAKAGE =       36529.4033

           TOTAL OUT =   101672781.0435             TOTAL OUT =       69641.7959

            IN - OUT =          -1.8687              IN - OUT =      -4.7477E-03

 PERCENT DISCREPANCY =          -0.00     PERCENT DISCREPANCY =          -0.00






         TIME SUMMARY AT END OF TIME STEP    1 IN STRESS PERIOD   11
                    SECONDS     MINUTES      HOURS       DAYS        YEARS
                    -----------------------------------------------------------
   TIME STEP LENGTH 7.86240E+06 1.31040E+05  2184.0      91.000     0.24914    
 STRESS PERIOD TIME 7.86240E+06 1.31040E+05  2184.0      91.000     0.24914    
         TOTAL TIME 8.67456E+07 1.44576E+06  24096.      1004.0      2.7488    
1
1
                            STRESS PERIOD NO.   12, LENGTH =   91.00000    
                            -----------------------------------------------

                              NUMBER OF TIME STEPS =     1

                               MULTIPLIER FOR DELT =     1.500

                            INITIAL TIME STEP SIZE =   91.00000    

 WELL NO.  LAYER   ROW   COL   STRESS RATE         
 --------------------------------------------------
      1      1     14      6       0.000    
      2      1      3      9       0.000    
      3      1     20     10       0.000    
      4      1     14     20       0.000    
      5      1     11     23      -9982.    
      6      1     13     22      -7684.    
      7      1      6     18      -7790.    
      8      1      7     23      -7655.    

      8 WELLS

                 RECHARGE =  1.000000E-03

 REUSING STREAM SEGMENT DATA FROM LAST STRESS PERIOD
 
 SOLVING FOR HEAD 


     7 CALLS TO PCG ROUTINE FOR TIME STEP   1 IN STRESS PERIOD   12
    24 TOTAL ITERATIONS

 OUTPUT CONTROL FOR STRESS PERIOD   12   TIME STEP    1
    SAVE BUDGET
    SAVE HEAD FOR ALL LAYERS
    PRINT HEAD FOR ALL LAYERS
 UBDSV2 SAVING "STREAMFLOW OUT  " ON UNIT  50 AT TIME STEP  1, STRESS PERIOD  12



 STREAM LISTING     PERIOD     12   STEP        1

 LAYER ROW COL. STREAM  RCH.  FLOW INTO     FLOW TO   FLOW OUT OF   OVRLND.     DIRECT     STREAM       STREAM     STREAM     STREAM   STREAMBED  STREAMBED
                SEG.NO.  NO.  STRM. RCH.    AQUIFER    STRM. RCH.    RUNOFF     PRECIP       ET          HEAD       DEPTH      WIDTH   CONDCTNC.   GRADIENT

   1   13    1     1     1    1.0000E+05 -1.5869E+03   1.0159E+05  0.000E+00  0.000E+00  0.000E+00  4.84067E+01  1.453E-01  2.000E+01  2.000E+04 -7.935E-02
   1   13    2     1     2    1.0159E+05 -2.5140E+03   1.0410E+05  0.000E+00  0.000E+00  0.000E+00  4.79312E+01  1.471E-01  2.000E+01  2.000E+04 -1.257E-01
   1   14    3     1     3    1.0410E+05 -4.3141E+02   1.0453E+05  0.000E+00  0.000E+00  0.000E+00  4.74552E+01  1.484E-01  2.000E+01  2.000E+04 -2.157E-02
   1   15    4     1     4    1.0453E+05 -4.1203E+02   1.0494E+05  0.000E+00  0.000E+00  0.000E+00  4.69783E+01  1.487E-01  2.000E+01  2.000E+04 -2.060E-02
   1   16    5     1     5    1.0494E+05 -1.6231E+03   1.0657E+05  0.000E+00  0.000E+00  0.000E+00  4.65019E+01  1.496E-01  2.000E+01  2.000E+04 -8.116E-02
   1   16    6     1     6    1.0657E+05 -1.0238E+03   1.0759E+05  0.000E+00  0.000E+00  0.000E+00  4.60257E+01  1.507E-01  2.000E+01  2.000E+04 -5.119E-02
   1   16    7     1     7    1.0759E+05 -1.0069E+03   1.0860E+05  0.000E+00  0.000E+00  0.000E+00  4.55493E+01  1.516E-01  2.000E+01  2.000E+04 -5.034E-02
   1   16    8     1     8    1.0860E+05 -1.0074E+03   1.0961E+05  0.000E+00  0.000E+00  0.000E+00  4.50729E+01  1.524E-01  2.000E+01  2.000E+04 -5.037E-02
   1   16    9     1     9    1.0961E+05 -1.0076E+03   1.1061E+05  0.000E+00  0.000E+00  0.000E+00  4.45964E+01  1.533E-01  2.000E+01  2.000E+04 -5.038E-02
   1   16   10     1    10    1.1061E+05 -1.0078E+03   1.1162E+05  0.000E+00  0.000E+00  0.000E+00  4.41200E+01  1.541E-01  2.000E+01  2.000E+04 -5.039E-02
   1   16   11     1    11    1.1162E+05 -1.0272E+03   1.1265E+05  0.000E+00  0.000E+00  0.000E+00  4.36436E+01  1.549E-01  2.000E+01  2.000E+04 -5.136E-02
   1   16   12     1    12    1.1265E+05 -1.7224E+03   1.1437E+05  0.000E+00  0.000E+00  0.000E+00  4.31674E+01  1.561E-01  2.000E+01  2.000E+04 -8.612E-02
   1   15   13     1    13    1.1437E+05 -1.4826E+03   1.1585E+05  0.000E+00  0.000E+00  0.000E+00  4.26915E+01  1.574E-01  2.000E+01  2.000E+04 -7.413E-02
   1   14   14     1    14    1.1585E+05 -1.5872E+03   1.1744E+05  0.000E+00  0.000E+00  0.000E+00  4.22155E+01  1.587E-01  2.000E+01  2.000E+04 -7.936E-02
   1   13   15     1    15    1.1744E+05 -1.6510E+03   1.1909E+05  0.000E+00  0.000E+00  0.000E+00  4.17395E+01  1.600E-01  2.000E+01  2.000E+04 -8.255E-02
   1   12   16     1    16    1.1909E+05 -1.6606E+03   1.2075E+05  0.000E+00  0.000E+00  0.000E+00  4.12636E+01  1.613E-01  2.000E+01  2.000E+04 -8.303E-02
   1   12   17     1    17    1.2075E+05 -9.6839E+02   1.2172E+05  0.000E+00  0.000E+00  0.000E+00  4.07874E+01  1.624E-01  2.000E+01  2.000E+04 -4.842E-02
   1   12   18     1    18    1.2172E+05 -7.3497E+02   1.2246E+05  0.000E+00  0.000E+00  0.000E+00  4.03108E+01  1.631E-01  2.000E+01  2.000E+04 -3.675E-02
   1   12   19     1    19    1.2246E+05 -8.8932E+01   1.2254E+05  0.000E+00  0.000E+00  0.000E+00  3.98338E+01  1.634E-01  2.000E+01  2.000E+04 -4.447E-03
   1   13   20     1    20    1.2254E+05  6.2112E+02   1.2192E+05  0.000E+00  0.000E+00  0.000E+00  3.93564E+01  1.632E-01  2.000E+01  2.000E+04  3.106E-02
   1   14   21     1    21    1.2192E+05 -1.7524E+02   1.2210E+05  0.000E+00  0.000E+00  0.000E+00  3.88789E+01  1.630E-01  2.000E+01  2.000E+04 -8.762E-03
   1   14   22     1    22    1.2210E+05  6.2498E+03   1.1585E+05  0.000E+00  0.000E+00  0.000E+00  3.83992E+01  1.605E-01  2.000E+01  2.000E+04  3.125E-01
   1    9   30     2     1    5.0000E+04 -1.9845E+02   5.0198E+04  0.000E+00  0.000E+00  0.000E+00  4.02410E+01  1.160E-01  2.000E+01  2.000E+04 -9.923E-03
   1    9   29     2     2    5.0198E+04 -4.3259E+02   5.0631E+04  0.000E+00  0.000E+00  0.000E+00  3.99914E+01  1.164E-01  2.000E+01  2.000E+04 -2.163E-02
   1    9   28     2     3    5.0631E+04 -5.1262E+02   5.1144E+04  0.000E+00  0.000E+00  0.000E+00  3.97421E+01  1.171E-01  2.000E+01  2.000E+04 -2.563E-02
   1    9   27     2     4    5.1144E+04 -6.4401E+02   5.1788E+04  0.000E+00  0.000E+00  0.000E+00  3.94929E+01  1.179E-01  2.000E+01  2.000E+04 -3.220E-02
   1   10   26     2     5    5.1788E+04  3.2305E+02   5.1465E+04  0.000E+00  0.000E+00  0.000E+00  3.92431E+01  1.181E-01  2.000E+01  2.000E+04  1.615E-02
   1   11   25     2     6    5.1465E+04  1.6404E+03   4.9824E+04  0.000E+00  0.000E+00  0.000E+00  3.89918E+01  1.168E-01  2.000E+01  2.000E+04  8.202E-02
   1   12   24     2     7    4.9824E+04  3.1347E+03   4.6689E+04  0.000E+00  0.000E+00  0.000E+00  3.87384E+01  1.134E-01  2.000E+01  2.000E+04  1.567E-01
   1   13   23     2     8    4.6689E+04  9.5232E+02   4.5737E+04  0.000E+00  0.000E+00  0.000E+00  3.84855E+01  1.105E-01  2.000E+01  2.000E+04  4.762E-02
   1   14   22     2     9    4.5737E+04  2.9205E+03   4.2817E+04  0.000E+00  0.000E+00  0.000E+00  3.82327E+01  1.077E-01  2.000E+01  2.000E+04  1.460E-01
   1   14   22     3     1    1.5867E+05 -7.4117E+03   1.6608E+05  0.000E+00  0.000E+00  0.000E+00  3.77161E+01  1.605E-01  2.000E+01  2.000E+04 -3.706E-01
   1   15   23     3     2    1.6608E+05 -5.3933E+02   1.6662E+05  0.000E+00  0.000E+00  0.000E+00  3.68296E+01  1.629E-01  2.000E+01  2.000E+04 -2.697E-02
   1   15   24     3     3    1.6662E+05 -2.7948E+02   1.6690E+05  0.000E+00  0.000E+00  0.000E+00  3.59409E+01  1.631E-01  2.000E+01  2.000E+04 -1.397E-02
   1   15   25     3     4    1.6690E+05 -2.7193E+02   1.6717E+05  0.000E+00  0.000E+00  0.000E+00  3.50522E+01  1.633E-01  2.000E+01  2.000E+04 -1.360E-02
   1   15   26     3     5    1.6717E+05 -3.2977E+02   1.6750E+05  0.000E+00  0.000E+00  0.000E+00  3.41635E+01  1.635E-01  2.000E+01  2.000E+04 -1.649E-02
   1   16   27     3     6    1.6750E+05 -3.6200E+02   1.6786E+05  0.000E+00  0.000E+00  0.000E+00  3.32748E+01  1.637E-01  2.000E+01  2.000E+04 -1.810E-02
   1   17   28     3     7    1.6786E+05 -1.5439E+03   1.6940E+05  0.000E+00  0.000E+00  0.000E+00  3.23865E+01  1.642E-01  2.000E+01  2.000E+04 -7.719E-02
   1   18   29     3     8    1.6940E+05 -2.8838E+03   1.7229E+05  0.000E+00  0.000E+00  0.000E+00  3.14989E+01  1.655E-01  2.000E+01  2.000E+04 -1.442E-01
   1   18   30     3     9    1.7229E+05 -3.1666E+03   1.7545E+05  0.000E+00  0.000E+00  0.000E+00  3.06117E+01  1.673E-01  2.000E+01  2.000E+04 -1.583E-01



1
              HEAD IN LAYER   1 AT END OF TIME STEP   1 IN STRESS PERIOD   12
  ---------------------------------------------------------------------------

          1      2      3      4      5      6      7      8      9     10
         11     12     13     14     15     16     17     18     19     20
         21     22     23     24     25     26     27     28     29     30
 .........................................................................
   1  ****** ****** ****** ****** ****** ****** ****** ****** ****** ******
      ****** ****** ****** ****** ****** ****** ****** ****** ****** ******
      ****** ****** ****** ****** ****** ****** ****** ****** ****** ******
   2  ****** ****** ****** ****** ****** ****** ****** ****** ****** ******
      ****** ****** ****** ****** ****** ****** ****** ****** ****** ******
      ****** ****** ****** ****** ****** ****** ****** ****** ****** ******
   3  ****** ****** ****** ****** ****** ****** ****** ****** ****** ******
      ****** ****** ****** ****** ****** ****** ****** ****** ****** ******
      ****** ****** ****** ****** ****** ****** ****** ****** ****** ******
   4  ****** ****** ****** ****** ****** ****** ****** ****** ****** ******
      ****** ****** ****** ****** ****** ****** ****** ****** ****** ******
      ****** ****** ****** ****** ****** ****** ****** ****** ****** ******
   5  ****** ****** ****** ****** ****** ****** ****** ****** ****** ******
      ****** ****** ****** ****** ****** ****** ****** ****** ****** ******
      ****** ****** ****** ****** ****** ****** ****** ****** ****** ******
   6  ****** ****** ****** ****** ****** ****** ****** ****** ****** ******
      ****** ****** ****** ****** ****** ****** ****** ****** ****** ******
      ****** ****** ****** ****** ****** ****** ****** ****** ****** ******
   7  ****** ****** ****** ****** ****** ****** ****** ****** ****** ******
      ****** ****** ****** ****** ****** ****** ****** ****** ****** ******
      ****** ****** ****** ****** ****** ****** ****** ****** ****** ******
   8  ****** ****** ****** ****** ****** ****** ****** ****** ****** ******
      ****** ****** ****** ****** ****** ****** ****** ****** ****** ******
      ****** ****** ****** ****** ****** ****** ****** ****** ****** ******
   9  ****** ****** ****** ****** ****** ****** ****** ****** ****** ******
      ****** ****** ****** ****** ****** ****** ****** ****** ****** ******
      ****** ****** ****** ****** ****** ****** ****** ****** ****** ******
  10  ****** ****** ****** ****** ****** ****** ****** ****** ****** ******
      ****** ****** ****** ****** ****** ****** ****** ****** ****** ******
      ****** ****** ****** ****** ****** ****** ****** ****** ****** ******
  11  ****** ****** ****** ****** ****** ****** ****** ****** ****** ******
      ****** ****** ****** ****** ****** ****** ****** ****** ****** ******
      ****** ****** ****** ****** ****** ****** ****** ****** ****** ******
  12  ****** ****** ****** ****** ****** ****** ****** ****** ****** ******
      ****** ****** ****** ****** ****** ****** ****** ****** ****** ******
      ****** ****** ****** ****** ****** ****** ****** ****** ****** ******
  13  ****** ****** ****** ****** ****** ****** ****** ****** ****** ******
      ****** ****** ****** ****** ****** ****** ****** ****** ****** ******
      ****** ****** ****** ****** ****** ****** ****** ****** ****** ******
  14  ****** ****** ****** ****** ****** ****** ****** ****** ****** ******
      ****** ****** ****** ****** ****** ****** ****** ****** ****** ******
      ****** ****** ****** ****** ****** ****** ****** ****** ****** ******
  15  ****** ****** ****** ****** ****** ****** ****** ****** ****** ******
      ****** ****** ****** ****** ****** ****** ****** ****** ****** ******
      ****** ****** ****** ****** ****** ****** ****** ****** ****** ******
  16  ****** ****** ****** ****** ****** ****** ****** ****** ****** ******
      ****** ****** ****** ****** ****** ****** ****** ****** ****** ******
      ****** ****** ****** ****** ****** ****** ****** ****** ****** ******
  17  ****** ****** ****** ****** ****** ****** ****** ****** ****** ******
      ****** ****** ****** ****** ****** ****** ****** ****** ****** ******
      ****** ****** ****** ****** ****** ****** ****** ****** ****** ******
  18  ****** ****** ****** ****** ****** ****** ****** ****** ****** ******
      ****** ****** ****** ****** ****** ****** ****** ****** ****** ******
      ****** ****** ****** ****** ****** ****** ****** ****** ****** ******
  19  ****** ****** ****** ****** ****** ****** ****** ****** ****** ******
      ****** ****** ****** ****** ****** ****** ****** ****** ****** ******
      ****** ****** ****** ****** ****** ****** ****** ****** ****** ******
  20  ****** ****** ****** ****** ****** ****** ****** ****** ****** ******
      ****** ****** ****** ****** ****** ****** ****** ****** ****** ******
      ****** ****** ****** ****** ****** ****** ****** ****** ****** ******
  21  ****** ****** ****** ****** ****** ****** ****** ****** ****** ******
      ****** ****** ****** ****** ****** ****** ****** ****** ****** ******
      ****** ****** ****** ****** ****** ****** ****** ****** ****** ******
  22  ****** ****** ****** ****** ****** ****** ****** ****** ****** ******
      ****** ****** ****** ****** ****** ****** ****** ****** ****** ******
      ****** ****** ****** ****** ****** ****** ****** ****** ****** ******
  23  ****** ****** ****** ****** ****** ****** ****** ****** ****** ******
      ****** ****** ****** ****** ****** ****** ****** ****** ****** ******
      ****** ****** ****** ****** ****** ****** ****** ****** ****** ******
  24  ****** ****** ****** ****** ****** ****** ****** ****** ****** ******
      ****** ****** ****** ****** ****** ****** ****** ****** ****** ******
      ****** ****** ****** ****** ****** ****** ****** ****** ****** ******
  25  ****** ****** ****** ****** ****** ****** ****** ****** ****** ******
      ****** ****** ****** ****** ****** ****** ****** ****** ****** ******
      ****** ****** ****** ****** ****** ****** ****** ****** ****** ******

 HEAD WILL BE SAVED ON UNIT   51 AT END OF TIME STEP    1, STRESS PERIOD   12
1
  VOLUMETRIC BUDGET FOR ENTIRE MODEL AT END OF TIME STEP    1, STRESS PERIOD  12
  ------------------------------------------------------------------------------

     CUMULATIVE VOLUMES      L**3       RATES FOR THIS TIME STEP      L**3/T
     ------------------                 ------------------------

           IN:                                      IN:
           ---                                      ---
             STORAGE =    35506461.2170               STORAGE =          14.8551
       CONSTANT HEAD =    31518351.8739         CONSTANT HEAD =       33940.1324
               WELLS =           0.0000                 WELLS =           0.0000
            RECHARGE =    26413200.0000              RECHARGE =       27600.0000
      STREAM LEAKAGE =    15277897.5734        STREAM LEAKAGE =       15842.0618

            TOTAL IN =   108715910.6643              TOTAL IN =       77397.0493

          OUT:                                     OUT:
          ----                                     ----
             STORAGE =     2626079.4900               STORAGE =        2988.8746
       CONSTANT HEAD =           0.0000         CONSTANT HEAD =           0.0000
               WELLS =    36258069.9698                 WELLS =       33112.3927
            RECHARGE =           0.0000              RECHARGE =           0.0000
      STREAM LEAKAGE =    69831762.9922        STREAM LEAKAGE =       41295.7811

           TOTAL OUT =   108715912.4520             TOTAL OUT =       77397.0484

            IN - OUT =          -1.7877              IN - OUT =       8.9012E-04

 PERCENT DISCREPANCY =          -0.00     PERCENT DISCREPANCY =           0.00






         TIME SUMMARY AT END OF TIME STEP    1 IN STRESS PERIOD   12
                    SECONDS     MINUTES      HOURS       DAYS        YEARS
                    -----------------------------------------------------------
   TIME STEP LENGTH 7.86240E+06 1.31040E+05  2184.0      91.000     0.24914    
 STRESS PERIOD TIME 7.86240E+06 1.31040E+05  2184.0      91.000     0.24914    
         TOTAL TIME 9.46080E+07 1.57680E+06  26280.      1095.0      2.9979    
1

 Run end date and time (yyyy/mm/dd hh:mm:ss): 2018/10/14 23:23:47
 Elapsed run time:  0.055 Seconds

