                                  MODFLOW-2005     
      U.S. GEOLOGICAL SURVEY MODULAR FINITE-DIFFERENCE GROUND-WATER FLOW MODEL
                            VERSION 1.11.00 8/8/2013

 LIST FILE: supply2.lst
                         UNIT   10

 OPENING ..\data\supply.dis
 FILE TYPE:DIS   UNIT   11   STATUS:OLD    
 FORMAT:FORMATTED              ACCESS:SEQUENTIAL          

 OPENING ..\data\supply.ba6
 FILE TYPE:BAS6   UNIT   12   STATUS:OLD    
 FORMAT:FORMATTED              ACCESS:SEQUENTIAL          

 OPENING ..\data\supply_het.bc6
 FILE TYPE:BCF6   UNIT   13   STATUS:OLD    
 FORMAT:FORMATTED              ACCESS:SEQUENTIAL          

 OPENING ..\data\supply.rch
 FILE TYPE:RCH   UNIT   15   STATUS:OLD    
 FORMAT:FORMATTED              ACCESS:SEQUENTIAL          

 OPENING ..\data\supply2.sfr
 FILE TYPE:SFR   UNIT   16   STATUS:OLD    
 FORMAT:FORMATTED              ACCESS:SEQUENTIAL          

 OPENING ..\data\supply.oc
 FILE TYPE:OC   UNIT   17   STATUS:OLD    
 FORMAT:FORMATTED              ACCESS:SEQUENTIAL          

 OPENING ..\data\supply.pcg
 FILE TYPE:PCG   UNIT   18   STATUS:OLD    
 FORMAT:FORMATTED              ACCESS:SEQUENTIAL          

 OPENING supply2.wel
 FILE TYPE:WEL   UNIT   19   STATUS:OLD    
 FORMAT:FORMATTED              ACCESS:SEQUENTIAL          

 OPENING supply2sf.cbc
 FILE TYPE:DATA(BINARY)   UNIT   50   STATUS:UNKNOWN
 FORMAT:BINARY                 ACCESS:SEQUENTIAL          

 OPENING supply2hd.bhd
 FILE TYPE:DATA(BINARY)   UNIT   51   STATUS:UNKNOWN
 FORMAT:BINARY                 ACCESS:SEQUENTIAL          

 BAS -- BASIC PACKAGE, VERSION 7, 5/2/2005 INPUT READ FROM UNIT   12
 
 MODFLOW was compiled using uniform precision
 Precision of REAL and DOUBLE PRECISION variables:          15

 DISCRETIZATION INPUT DATA READ FROM UNIT   11
    1 LAYERS        25 ROWS        30 COLUMNS
   12 STRESS PERIOD(S) IN SIMULATION
 MODEL TIME UNIT IS DAYS
 MODEL LENGTH UNIT IS UNDEFINED
  Confining bed flag for each layer:
   0

                     DELR =   200.000    

                     DELC =   200.000    

 TOP ELEVATION OF LAYER 1 =  100.0000    

   MODEL LAYER BOTTOM EL. =   0.00000     FOR LAYER   1


 STRESS PERIOD     LENGTH       TIME STEPS     MULTIPLIER FOR DELT    SS FLAG
 ----------------------------------------------------------------------------
        1         92.00000          1                    1.500         TR
        2         91.00000          1                    1.500         TR
        3         91.00000          1                    1.500         TR
        4         91.00000          1                    1.500         TR
        5         92.00000          1                    1.500         TR
        6         91.00000          1                    1.500         TR
        7         91.00000          1                    1.500         TR
        8         91.00000          1                    1.500         TR
        9         92.00000          1                    1.500         TR
       10         91.00000          1                    1.500         TR
       11         91.00000          1                    1.500         TR
       12         91.00000          1                    1.500         TR

 TRANSIENT SIMULATION



 
 #MODOFC transient water supply sample problem                                   
 #                                                                               
 THE FREE FORMAT OPTION HAS BEEN SELECTED



                     BOUNDARY ARRAY FOR LAYER   1
 READING ON UNIT   12 WITH FORMAT: (20I4)              

 AQUIFER HEAD WILL BE SET TO   0.0000     AT ALL NO-FLOW NODES (IBOUND=0).



                       INITIAL HEAD FOR LAYER   1
 READING ON UNIT   12 WITH FORMAT: (10F13.0)           

 OUTPUT CONTROL IS SPECIFIED ONLY AT TIME STEPS FOR WHICH OUTPUT IS DESIRED
 COMPACT CELL-BY-CELL BUDGET FILES WILL BE WRITTEN
 HEAD PRINT FORMAT CODE IS  18    DRAWDOWN PRINT FORMAT CODE IS   0
 HEADS WILL BE SAVED ON UNIT   51    DRAWDOWNS WILL BE SAVED ON UNIT    0

 BCF -- BLOCK-CENTERED FLOW PACKAGE, VERSION 7, 5/2/2005
         INPUT READ FROM UNIT 13
 TRANSIENT SIMULATION
 HEAD AT CELLS THAT CONVERT TO DRY=   0.0000    
 WETTING CAPABILITY IS NOT ACTIVE
      LAYER  LAYER-TYPE CODE     INTERBLOCK T
      --------------------------------------------
         1            0          0 -- HARMONIC    

 COLUMN TO ROW ANISOTROPY =  1.000000    

     PRIMARY STORAGE COEF =  5.000000E-02 FOR LAYER   1



               TRANSMIS. ALONG ROWS FOR LAYER   1
 READING ON UNIT   13 WITH FORMAT: (FREE)              

 WEL -- WELL PACKAGE, VERSION 7, 5/2/2005 INPUT READ FROM UNIT   19
 # Well package input file written by MMProc
 No named parameters
 MAXIMUM OF      8 ACTIVE WELLS AT ONE TIME


     0 Well parameters

 RCH -- RECHARGE PACKAGE, VERSION 7, 5/2/2005 INPUT READ FROM UNIT   15
 No named parameters
 OPTION 1 -- RECHARGE TO TOP LAYER


     0 Recharge parameters

 SFR7 -- STREAMFLOW ROUTING PACKAGE, VERSION 1.0.7, 2013-01-15
         INPUT READ FROM UNIT  16
 #  Supply2 test problem for GWM-VI
 #  The eighth entry in the first data line is ISTCB2 -
 #    Setting this to a negative number indicates that
 #    streamflows out of the reach will be saved to a
 #    binary file.  The absolute value of ISTCB2 is the
 #    unit to which unformatted flows will be written.
 #
 No named parameters
 Segment information will not be 
 read by reach
 No named parameters
 No specifed inflow files


 NUMBER OF STREAM REACHES IS   40

 NUMBER OF STREAM SEGMENTS IS    3

 NUMBER OF STREAM PARAMETERS IS    0

 NUMBER OF STREAM SEGMENTS DEFINED USING PARAMETERS IS              0

 MAXIMUM ERROR FOR STREAM LEAKAGE RATES IS  1.00E-04

 CONSTANT FOR MANNINGS EQUATION IS  1.2839E+05





   STREAM NETWORK DESCRIPTION: 

   LAYER    ROW    COL   SEGMENT   REACH     LENGTH
                          NUMBER   NUMBER    IN CELL        
   --------------------------------------------------
      1     13      1       1        1    2.0000E+02
      1     13      2       1        2    2.0000E+02
      1     14      3       1        3    2.0000E+02
      1     15      4       1        4    2.0000E+02
      1     16      5       1        5    2.0000E+02
      1     16      6       1        6    2.0000E+02
      1     16      7       1        7    2.0000E+02
      1     16      8       1        8    2.0000E+02
      1     16      9       1        9    2.0000E+02
      1     16     10       1       10    2.0000E+02
      1     16     11       1       11    2.0000E+02
      1     16     12       1       12    2.0000E+02
      1     15     13       1       13    2.0000E+02
      1     14     14       1       14    2.0000E+02
      1     13     15       1       15    2.0000E+02
      1     12     16       1       16    2.0000E+02
      1     12     17       1       17    2.0000E+02
      1     12     18       1       18    2.0000E+02
      1     12     19       1       19    2.0000E+02
      1     13     20       1       20    2.0000E+02
      1     14     21       1       21    2.0000E+02
      1     14     22       1       22    2.0000E+02
      1      9     30       2        1    2.0000E+02
      1      9     29       2        2    2.0000E+02
      1      9     28       2        3    2.0000E+02
      1      9     27       2        4    2.0000E+02
      1     10     26       2        5    2.0000E+02
      1     11     25       2        6    2.0000E+02
      1     12     24       2        7    2.0000E+02
      1     13     23       2        8    2.0000E+02
      1     14     22       2        9    2.0000E+02
      1     14     22       3        1    2.0000E+02
      1     15     23       3        2    2.0000E+02
      1     15     24       3        3    2.0000E+02
      1     15     25       3        4    2.0000E+02
      1     15     26       3        5    2.0000E+02
      1     16     27       3        6    2.0000E+02
      1     17     28       3        7    2.0000E+02
      1     18     29       3        8    2.0000E+02
      1     18     30       3        9    2.0000E+02




 PCG -- CONJUGATE-GRADIENT SOLUTION PACKAGE, VERSION 7, 5/2/2005
 MAXIMUM OF    500 CALLS OF SOLUTION ROUTINE
 MAXIMUM OF      5 INTERNAL ITERATIONS PER CALL TO SOLUTION ROUTINE
 MATRIX PRECONDITIONING TYPE :    1



                                    SOLUTION BY THE CONJUGATE-GRADIENT METHOD
                                   -------------------------------------------
                    MAXIMUM NUMBER OF CALLS TO PCG ROUTINE =      500
                        MAXIMUM ITERATIONS PER CALL TO PCG =        5
                               MATRIX PRECONDITIONING TYPE =        1
        RELAXATION FACTOR (ONLY USED WITH PRECOND. TYPE 1) =    0.10000E+01
 PARAMETER OF POLYNOMIAL PRECOND. = 2 (2) OR IS CALCULATED :        0
                         HEAD CHANGE CRITERION FOR CLOSURE =    0.10000E-05
                     RESIDUAL CHANGE CRITERION FOR CLOSURE =    0.10000E+01
            PCG HEAD AND RESIDUAL CHANGE PRINTOUT INTERVAL =        1
     PRINTING FROM SOLVER IS LIMITED(1) OR SUPPRESSED (>1) =        1
                            STEADY-STATE DAMPING PARAMETER =    0.10000E+01
                               TRANSIENT DAMPING PARAMETER =    0.10000E+01
1
                            STRESS PERIOD NO.    1, LENGTH =   92.00000    
                            -----------------------------------------------

                              NUMBER OF TIME STEPS =     1

                               MULTIPLIER FOR DELT =     1.500

                            INITIAL TIME STEP SIZE =   92.00000    

 WELL NO.  LAYER   ROW   COL   STRESS RATE         
 --------------------------------------------------
      1      1     14      6       0.000    
      2      1      3      9       0.000    
      3      1     20     10       0.000    
      4      1     14     20       0.000    
      5      1     19     29     -0.1179E+05
      6      1     10     29     -0.1333E+05
      7      1     20     21      -8354.    
      8      1      8     12      -8823.    

      8 WELLS

                 RECHARGE =  5.000000E-04



 CLASSIFICATION & COUNT OF STREAM SEGMENTS BASED ON SOURCE OF INFLOW:

                HEADWATER     DIVERSION     RECEIVES TRIBUTARY FLOW
                ---------     ---------     -----------------------
                     2              0               1



                    INPUT DATA FOR EACH STREAM SEGMENT
 ---------------------------------------------------------------------------------------------

 SEGMENT    SEG.     INFLOW   OVERLAND   STREAM    STREAM   ICALC  OUTFLOW  DIVERSION PRIORITY
    NO.    LENGTH     RATE     RUNOFF      ET       PPT.    METH.  TO SEG.  FROM SEG.    NO.

      1  4.400E+03 1.000E+05 0.000E+00 0.000E+00 0.000E+00    1        3        0        0
      2  1.800E+03 5.000E+04 0.000E+00 0.000E+00 0.000E+00    1        3        0        0
      3  1.800E+03 0.000E+00 0.000E+00 0.000E+00 0.000E+00    1        0        0        0


         STREAMBED PROPERTIES AND STREAM DIMENSIONS

 SEGMENT     BED HYD. COND.      BED THICKNESS     ELEV.-TOP OF BED     WIDTH OF STREAM     DEPTH OF STREAM    STREAM ROUGHNESS
    No.     UPPER     LOWER     UPPER     LOWER     UPPER     LOWER     UPPER     LOWER     UPPER     LOWER   CHANNEL      BANK

     1  5.000E+00 5.000E+00 1.000E+00 1.000E+00 4.850E+01 3.800E+01 2.000E+01 2.000E+01                     5.000E-02
     2  5.000E+00 5.000E+00 1.000E+00 1.000E+00 4.025E+01 3.800E+01 2.000E+01 2.000E+01                     5.000E-02
     3  5.000E+00 5.000E+00 1.000E+00 1.000E+00 3.800E+01 3.000E+01 2.000E+01 2.000E+01                     5.000E-02



 
 SOLVING FOR HEAD 


     9 CALLS TO PCG ROUTINE FOR TIME STEP   1 IN STRESS PERIOD    1
    36 TOTAL ITERATIONS

 OUTPUT CONTROL FOR STRESS PERIOD    1   TIME STEP    1
    SAVE BUDGET
    SAVE HEAD FOR ALL LAYERS
    PRINT HEAD FOR ALL LAYERS
 UBDSV2 SAVING "STREAMFLOW OUT  " ON UNIT  50 AT TIME STEP  1, STRESS PERIOD   1



 STREAM LISTING     PERIOD      1   STEP        1

 LAYER ROW COL. STREAM  RCH.  FLOW INTO     FLOW TO   FLOW OUT OF   OVRLND.     DIRECT     STREAM       STREAM     STREAM     STREAM   STREAMBED  STREAMBED
                SEG.NO.  NO.  STRM. RCH.    AQUIFER    STRM. RCH.    RUNOFF     PRECIP       ET          HEAD       DEPTH      WIDTH   CONDCTNC.   GRADIENT

   1   13    1     1     1    1.0000E+05 -6.0902E+03   1.0609E+05  0.000E+00  0.000E+00  0.000E+00  4.84086E+01  1.473E-01  2.000E+01  2.000E+04 -3.045E-01
   1   13    2     1     2    1.0609E+05 -7.5583E+03   1.1365E+05  0.000E+00  0.000E+00  0.000E+00  4.79371E+01  1.531E-01  2.000E+01  2.000E+04 -3.779E-01
   1   14    3     1     3    1.1365E+05 -2.1969E+03   1.1585E+05  0.000E+00  0.000E+00  0.000E+00  4.74639E+01  1.571E-01  2.000E+01  2.000E+04 -1.098E-01
   1   15    4     1     4    1.1585E+05 -2.2686E+03   1.1811E+05  0.000E+00  0.000E+00  0.000E+00  4.69885E+01  1.589E-01  2.000E+01  2.000E+04 -1.134E-01
   1   16    5     1     5    1.1811E+05 -7.1769E+03   1.2529E+05  0.000E+00  0.000E+00  0.000E+00  4.65150E+01  1.627E-01  2.000E+01  2.000E+04 -3.588E-01
   1   16    6     1     6    1.2529E+05 -4.2959E+03   1.2959E+05  0.000E+00  0.000E+00  0.000E+00  4.60423E+01  1.673E-01  2.000E+01  2.000E+04 -2.148E-01
   1   16    7     1     7    1.2959E+05 -4.1279E+03   1.3371E+05  0.000E+00  0.000E+00  0.000E+00  4.55683E+01  1.706E-01  2.000E+01  2.000E+04 -2.064E-01
   1   16    8     1     8    1.3371E+05 -4.0824E+03   1.3780E+05  0.000E+00  0.000E+00  0.000E+00  4.50942E+01  1.738E-01  2.000E+01  2.000E+04 -2.041E-01
   1   16    9     1     9    1.3780E+05 -4.0648E+03   1.4186E+05  0.000E+00  0.000E+00  0.000E+00  4.46201E+01  1.769E-01  2.000E+01  2.000E+04 -2.032E-01
   1   16   10     1    10    1.4186E+05 -4.0512E+03   1.4591E+05  0.000E+00  0.000E+00  0.000E+00  4.41459E+01  1.799E-01  2.000E+01  2.000E+04 -2.026E-01
   1   16   11     1    11    1.4591E+05 -4.0669E+03   1.4998E+05  0.000E+00  0.000E+00  0.000E+00  4.36716E+01  1.830E-01  2.000E+01  2.000E+04 -2.033E-01
   1   16   12     1    12    1.4998E+05 -6.8211E+03   1.5680E+05  0.000E+00  0.000E+00  0.000E+00  4.31983E+01  1.870E-01  2.000E+01  2.000E+04 -3.411E-01
   1   15   13     1    13    1.5680E+05 -7.0339E+03   1.6383E+05  0.000E+00  0.000E+00  0.000E+00  4.27261E+01  1.920E-01  2.000E+01  2.000E+04 -3.517E-01
   1   14   14     1    14    1.6383E+05 -7.4242E+03   1.7126E+05  0.000E+00  0.000E+00  0.000E+00  4.22540E+01  1.972E-01  2.000E+01  2.000E+04 -3.712E-01
   1   13   15     1    15    1.7126E+05 -7.6975E+03   1.7896E+05  0.000E+00  0.000E+00  0.000E+00  4.17820E+01  2.024E-01  2.000E+01  2.000E+04 -3.849E-01
   1   12   16     1    16    1.7896E+05 -8.3295E+03   1.8729E+05  0.000E+00  0.000E+00  0.000E+00  4.13102E+01  2.080E-01  2.000E+01  2.000E+04 -4.165E-01
   1   12   17     1    17    1.8729E+05 -6.0560E+03   1.9334E+05  0.000E+00  0.000E+00  0.000E+00  4.08378E+01  2.128E-01  2.000E+01  2.000E+04 -3.028E-01
   1   12   18     1    18    1.9334E+05 -5.9611E+03   1.9930E+05  0.000E+00  0.000E+00  0.000E+00  4.03646E+01  2.168E-01  2.000E+01  2.000E+04 -2.981E-01
   1   12   19     1    19    1.9930E+05 -7.5873E+03   2.0689E+05  0.000E+00  0.000E+00  0.000E+00  3.98917E+01  2.213E-01  2.000E+01  2.000E+04 -3.794E-01
   1   13   20     1    20    2.0689E+05 -6.6264E+03   2.1352E+05  0.000E+00  0.000E+00  0.000E+00  3.94191E+01  2.259E-01  2.000E+01  2.000E+04 -3.313E-01
   1   14   21     1    21    2.1352E+05 -5.9533E+03   2.1947E+05  0.000E+00  0.000E+00  0.000E+00  3.89458E+01  2.299E-01  2.000E+01  2.000E+04 -2.977E-01
   1   14   22     1    22    2.1947E+05  3.8526E+03   2.1562E+05  0.000E+00  0.000E+00  0.000E+00  3.84692E+01  2.306E-01  2.000E+01  2.000E+04  1.926E-01
   1    9   30     2     1    5.0000E+04 -2.4850E+03   5.2485E+04  0.000E+00  0.000E+00  0.000E+00  4.02426E+01  1.176E-01  2.000E+01  2.000E+04 -1.243E-01
   1    9   29     2     2    5.2485E+04 -4.6077E+02   5.2946E+04  0.000E+00  0.000E+00  0.000E+00  3.99946E+01  1.196E-01  2.000E+01  2.000E+04 -2.304E-02
   1    9   28     2     3    5.2946E+04 -3.6362E+03   5.6582E+04  0.000E+00  0.000E+00  0.000E+00  3.97474E+01  1.224E-01  2.000E+01  2.000E+04 -1.818E-01
   1    9   27     2     4    5.6582E+04 -7.6043E+03   6.4186E+04  0.000E+00  0.000E+00  0.000E+00  3.95048E+01  1.298E-01  2.000E+01  2.000E+04 -3.802E-01
   1   10   26     2     5    6.4186E+04 -6.4029E+03   7.0589E+04  0.000E+00  0.000E+00  0.000E+00  3.92636E+01  1.386E-01  2.000E+01  2.000E+04 -3.201E-01
   1   11   25     2     6    7.0589E+04 -6.3441E+03   7.6933E+04  0.000E+00  0.000E+00  0.000E+00  3.90213E+01  1.463E-01  2.000E+01  2.000E+04 -3.172E-01
   1   12   24     2     7    7.6933E+04 -6.1482E+03   8.3082E+04  0.000E+00  0.000E+00  0.000E+00  3.87786E+01  1.536E-01  2.000E+01  2.000E+04 -3.074E-01
   1   13   23     2     8    8.3082E+04 -1.6478E+03   8.4729E+04  0.000E+00  0.000E+00  0.000E+00  3.85331E+01  1.581E-01  2.000E+01  2.000E+04 -8.239E-02
   1   14   22     2     9    8.4729E+04  1.4627E+02   8.4583E+04  0.000E+00  0.000E+00  0.000E+00  3.82839E+01  1.589E-01  2.000E+01  2.000E+04  7.313E-03
   1   14   22     3     1    3.0020E+05 -9.7332E+03   3.0993E+05  0.000E+00  0.000E+00  0.000E+00  3.77899E+01  2.344E-01  2.000E+01  2.000E+04 -4.867E-01
   1   15   23     3     2    3.0993E+05 -1.8794E+03   3.1181E+05  0.000E+00  0.000E+00  0.000E+00  3.69037E+01  2.371E-01  2.000E+01  2.000E+04 -9.397E-02
   1   15   24     3     3    3.1181E+05 -1.4998E+03   3.1331E+05  0.000E+00  0.000E+00  0.000E+00  3.60156E+01  2.378E-01  2.000E+01  2.000E+04 -7.499E-02
   1   15   25     3     4    3.1331E+05 -1.5531E+03   3.1487E+05  0.000E+00  0.000E+00  0.000E+00  3.51274E+01  2.385E-01  2.000E+01  2.000E+04 -7.765E-02
   1   15   26     3     5    3.1487E+05 -1.8242E+03   3.1669E+05  0.000E+00  0.000E+00  0.000E+00  3.42393E+01  2.393E-01  2.000E+01  2.000E+04 -9.121E-02
   1   16   27     3     6    3.1669E+05 -2.0532E+03   3.1874E+05  0.000E+00  0.000E+00  0.000E+00  3.33513E+01  2.402E-01  2.000E+01  2.000E+04 -1.027E-01
   1   17   28     3     7    3.1874E+05 -5.2513E+03   3.2399E+05  0.000E+00  0.000E+00  0.000E+00  3.24640E+01  2.418E-01  2.000E+01  2.000E+04 -2.626E-01
   1   18   29     3     8    3.2399E+05 -2.3832E+03   3.2638E+05  0.000E+00  0.000E+00  0.000E+00  3.15769E+01  2.435E-01  2.000E+01  2.000E+04 -1.192E-01
   1   18   30     3     9    3.2638E+05 -4.5229E+03   3.3090E+05  0.000E+00  0.000E+00  0.000E+00  3.06895E+01  2.451E-01  2.000E+01  2.000E+04 -2.261E-01



1
              HEAD IN LAYER   1 AT END OF TIME STEP   1 IN STRESS PERIOD    1
  ---------------------------------------------------------------------------

          1      2      3      4      5      6      7      8      9     10
         11     12     13     14     15     16     17     18     19     20
         21     22     23     24     25     26     27     28     29     30
 .........................................................................
   1  ****** ****** ****** ****** ****** ****** ****** ****** ****** ******
      ****** ****** ****** ****** ****** ****** ****** ****** ****** ******
      ****** ****** ****** ****** ****** ****** ****** ****** ****** ******
   2  ****** ****** ****** ****** ****** ****** ****** ****** ****** ******
      ****** ****** ****** ****** ****** ****** ****** ****** ****** ******
      ****** ****** ****** ****** ****** ****** ****** ****** ****** ******
   3  ****** ****** ****** ****** ****** ****** ****** ****** ****** ******
      ****** ****** ****** ****** ****** ****** ****** ****** ****** ******
      ****** ****** ****** ****** ****** ****** ****** ****** ****** ******
   4  ****** ****** ****** ****** ****** ****** ****** ****** ****** ******
      ****** ****** ****** ****** ****** ****** ****** ****** ****** ******
      ****** ****** ****** ****** ****** ****** ****** ****** ****** ******
   5  ****** ****** ****** ****** ****** ****** ****** ****** ****** ******
      ****** ****** ****** ****** ****** ****** ****** ****** ****** ******
      ****** ****** ****** ****** ****** ****** ****** ****** ****** ******
   6  ****** ****** ****** ****** ****** ****** ****** ****** ****** ******
      ****** ****** ****** ****** ****** ****** ****** ****** ****** ******
      ****** ****** ****** ****** ****** ****** ****** ****** ****** ******
   7  ****** ****** ****** ****** ****** ****** ****** ****** ****** ******
      ****** ****** ****** ****** ****** ****** ****** ****** ****** ******
      ****** ****** ****** ****** ****** ****** ****** ****** ****** ******
   8  ****** ****** ****** ****** ****** ****** ****** ****** ****** ******
      ****** ****** ****** ****** ****** ****** ****** ****** ****** ******
      ****** ****** ****** ****** ****** ****** ****** ****** ****** ******
   9  ****** ****** ****** ****** ****** ****** ****** ****** ****** ******
      ****** ****** ****** ****** ****** ****** ****** ****** ****** ******
      ****** ****** ****** ****** ****** ****** ****** ****** ****** ******
  10  ****** ****** ****** ****** ****** ****** ****** ****** ****** ******
      ****** ****** ****** ****** ****** ****** ****** ****** ****** ******
      ****** ****** ****** ****** ****** ****** ****** ****** ****** ******
  11  ****** ****** ****** ****** ****** ****** ****** ****** ****** ******
      ****** ****** ****** ****** ****** ****** ****** ****** ****** ******
      ****** ****** ****** ****** ****** ****** ****** ****** ****** ******
  12  ****** ****** ****** ****** ****** ****** ****** ****** ****** ******
      ****** ****** ****** ****** ****** ****** ****** ****** ****** ******
      ****** ****** ****** ****** ****** ****** ****** ****** ****** ******
  13  ****** ****** ****** ****** ****** ****** ****** ****** ****** ******
      ****** ****** ****** ****** ****** ****** ****** ****** ****** ******
      ****** ****** ****** ****** ****** ****** ****** ****** ****** ******
  14  ****** ****** ****** ****** ****** ****** ****** ****** ****** ******
      ****** ****** ****** ****** ****** ****** ****** ****** ****** ******
      ****** ****** ****** ****** ****** ****** ****** ****** ****** ******
  15  ****** ****** ****** ****** ****** ****** ****** ****** ****** ******
      ****** ****** ****** ****** ****** ****** ****** ****** ****** ******
      ****** ****** ****** ****** ****** ****** ****** ****** ****** ******
  16  ****** ****** ****** ****** ****** ****** ****** ****** ****** ******
      ****** ****** ****** ****** ****** ****** ****** ****** ****** ******
      ****** ****** ****** ****** ****** ****** ****** ****** ****** ******
  17  ****** ****** ****** ****** ****** ****** ****** ****** ****** ******
      ****** ****** ****** ****** ****** ****** ****** ****** ****** ******
      ****** ****** ****** ****** ****** ****** ****** ****** ****** ******
  18  ****** ****** ****** ****** ****** ****** ****** ****** ****** ******
      ****** ****** ****** ****** ****** ****** ****** ****** ****** ******
      ****** ****** ****** ****** ****** ****** ****** ****** ****** ******
  19  ****** ****** ****** ****** ****** ****** ****** ****** ****** ******
      ****** ****** ****** ****** ****** ****** ****** ****** ****** ******
      ****** ****** ****** ****** ****** ****** ****** ****** ****** ******
  20  ****** ****** ****** ****** ****** ****** ****** ****** ****** ******
      ****** ****** ****** ****** ****** ****** ****** ****** ****** ******
      ****** ****** ****** ****** ****** ****** ****** ****** ****** ******
  21  ****** ****** ****** ****** ****** ****** ****** ****** ****** ******
      ****** ****** ****** ****** ****** ****** ****** ****** ****** ******
      ****** ****** ****** ****** ****** ****** ****** ****** ****** ******
  22  ****** ****** ****** ****** ****** ****** ****** ****** ****** ******
      ****** ****** ****** ****** ****** ****** ****** ****** ****** ******
      ****** ****** ****** ****** ****** ****** ****** ****** ****** ******
  23  ****** ****** ****** ****** ****** ****** ****** ****** ****** ******
      ****** ****** ****** ****** ****** ****** ****** ****** ****** ******
      ****** ****** ****** ****** ****** ****** ****** ****** ****** ******
  24  ****** ****** ****** ****** ****** ****** ****** ****** ****** ******
      ****** ****** ****** ****** ****** ****** ****** ****** ****** ******
      ****** ****** ****** ****** ****** ****** ****** ****** ****** ******
  25  ****** ****** ****** ****** ****** ****** ****** ****** ****** ******
      ****** ****** ****** ****** ****** ****** ****** ****** ****** ******
      ****** ****** ****** ****** ****** ****** ****** ****** ****** ******

 HEAD WILL BE SAVED ON UNIT   51 AT END OF TIME STEP    1, STRESS PERIOD    1
1
  VOLUMETRIC BUDGET FOR ENTIRE MODEL AT END OF TIME STEP    1, STRESS PERIOD   1
  ------------------------------------------------------------------------------

     CUMULATIVE VOLUMES      L**3       RATES FOR THIS TIME STEP      L**3/T
     ------------------                 ------------------------

           IN:                                      IN:
           ---                                      ---
             STORAGE =    18077329.9682               STORAGE =      196492.7170
       CONSTANT HEAD =     1187090.4850         CONSTANT HEAD =       12903.1574
               WELLS =           0.0000                 WELLS =           0.0000
            RECHARGE =     1269600.0000              RECHARGE =       13800.0000
      STREAM LEAKAGE =      367895.4771        STREAM LEAKAGE =        3998.8639

            TOTAL IN =    20901915.9303              TOTAL IN =      227194.7384

          OUT:                                     OUT:
          ----                                     ----
             STORAGE =           0.0000               STORAGE =           0.0000
       CONSTANT HEAD =           0.0000         CONSTANT HEAD =           0.0000
               WELLS =     3891149.6920                 WELLS =       42295.1053
            RECHARGE =           0.0000              RECHARGE =           0.0000
      STREAM LEAKAGE =    17010766.5266        STREAM LEAKAGE =      184899.6362

           TOTAL OUT =    20901916.2185             TOTAL OUT =      227194.7415

            IN - OUT =          -0.2882              IN - OUT =      -3.1328E-03

 PERCENT DISCREPANCY =          -0.00     PERCENT DISCREPANCY =          -0.00






         TIME SUMMARY AT END OF TIME STEP    1 IN STRESS PERIOD    1
                    SECONDS     MINUTES      HOURS       DAYS        YEARS
                    -----------------------------------------------------------
   TIME STEP LENGTH 7.94880E+06 1.32480E+05  2208.0      92.000     0.25188    
 STRESS PERIOD TIME 7.94880E+06 1.32480E+05  2208.0      92.000     0.25188    
         TOTAL TIME 7.94880E+06 1.32480E+05  2208.0      92.000     0.25188    
1
1
                            STRESS PERIOD NO.    2, LENGTH =   91.00000    
                            -----------------------------------------------

                              NUMBER OF TIME STEPS =     1

                               MULTIPLIER FOR DELT =     1.500

                            INITIAL TIME STEP SIZE =   91.00000    

 WELL NO.  LAYER   ROW   COL   STRESS RATE         
 --------------------------------------------------
      1      1     14      6       0.000    
      2      1      3      9       0.000    
      3      1     20     10       0.000    
      4      1     14     20       0.000    
      5      1     19     29     -0.1179E+05
      6      1     10     29     -0.1333E+05
      7      1     20     21      -8354.    
      8      1      8     12      -8823.    

      8 WELLS

                 RECHARGE =  2.000000E-03

 REUSING STREAM SEGMENT DATA FROM LAST STRESS PERIOD
 
 SOLVING FOR HEAD 


     7 CALLS TO PCG ROUTINE FOR TIME STEP   1 IN STRESS PERIOD    2
    27 TOTAL ITERATIONS

 OUTPUT CONTROL FOR STRESS PERIOD    2   TIME STEP    1
    SAVE BUDGET
    SAVE HEAD FOR ALL LAYERS
    PRINT HEAD FOR ALL LAYERS
 UBDSV2 SAVING "STREAMFLOW OUT  " ON UNIT  50 AT TIME STEP  1, STRESS PERIOD   2



 STREAM LISTING     PERIOD      2   STEP        1

 LAYER ROW COL. STREAM  RCH.  FLOW INTO     FLOW TO   FLOW OUT OF   OVRLND.     DIRECT     STREAM       STREAM     STREAM     STREAM   STREAMBED  STREAMBED
                SEG.NO.  NO.  STRM. RCH.    AQUIFER    STRM. RCH.    RUNOFF     PRECIP       ET          HEAD       DEPTH      WIDTH   CONDCTNC.   GRADIENT

   1   13    1     1     1    1.0000E+05 -3.9270E+03   1.0393E+05  0.000E+00  0.000E+00  0.000E+00  4.84077E+01  1.463E-01  2.000E+01  2.000E+04 -1.964E-01
   1   13    2     1     2    1.0393E+05 -5.1841E+03   1.0911E+05  0.000E+00  0.000E+00  0.000E+00  4.79343E+01  1.502E-01  2.000E+01  2.000E+04 -2.592E-01
   1   14    3     1     3    1.0911E+05 -1.1100E+03   1.1022E+05  0.000E+00  0.000E+00  0.000E+00  4.74597E+01  1.529E-01  2.000E+01  2.000E+04 -5.550E-02
   1   15    4     1     4    1.1022E+05 -1.1390E+03   1.1136E+05  0.000E+00  0.000E+00  0.000E+00  4.69834E+01  1.538E-01  2.000E+01  2.000E+04 -5.695E-02
   1   16    5     1     5    1.1136E+05 -4.2333E+03   1.1559E+05  0.000E+00  0.000E+00  0.000E+00  4.65083E+01  1.561E-01  2.000E+01  2.000E+04 -2.117E-01
   1   16    6     1     6    1.1559E+05 -2.4890E+03   1.1808E+05  0.000E+00  0.000E+00  0.000E+00  4.60338E+01  1.588E-01  2.000E+01  2.000E+04 -1.244E-01
   1   16    7     1     7    1.1808E+05 -2.3884E+03   1.2047E+05  0.000E+00  0.000E+00  0.000E+00  4.55585E+01  1.608E-01  2.000E+01  2.000E+04 -1.194E-01
   1   16    8     1     8    1.2047E+05 -2.3498E+03   1.2282E+05  0.000E+00  0.000E+00  0.000E+00  4.50832E+01  1.627E-01  2.000E+01  2.000E+04 -1.175E-01
   1   16    9     1     9    1.2282E+05 -2.3154E+03   1.2514E+05  0.000E+00  0.000E+00  0.000E+00  4.46077E+01  1.646E-01  2.000E+01  2.000E+04 -1.158E-01
   1   16   10     1    10    1.2514E+05 -2.2709E+03   1.2741E+05  0.000E+00  0.000E+00  0.000E+00  4.41323E+01  1.664E-01  2.000E+01  2.000E+04 -1.135E-01
   1   16   11     1    11    1.2741E+05 -2.2423E+03   1.2965E+05  0.000E+00  0.000E+00  0.000E+00  4.36568E+01  1.682E-01  2.000E+01  2.000E+04 -1.121E-01
   1   16   12     1    12    1.2965E+05 -3.8037E+03   1.3345E+05  0.000E+00  0.000E+00  0.000E+00  4.31819E+01  1.705E-01  2.000E+01  2.000E+04 -1.902E-01
   1   15   13     1    13    1.3345E+05 -3.6319E+03   1.3708E+05  0.000E+00  0.000E+00  0.000E+00  4.27075E+01  1.734E-01  2.000E+01  2.000E+04 -1.816E-01
   1   14   14     1    14    1.3708E+05 -3.8694E+03   1.4095E+05  0.000E+00  0.000E+00  0.000E+00  4.22331E+01  1.763E-01  2.000E+01  2.000E+04 -1.935E-01
   1   13   15     1    15    1.4095E+05 -4.1331E+03   1.4509E+05  0.000E+00  0.000E+00  0.000E+00  4.17588E+01  1.793E-01  2.000E+01  2.000E+04 -2.067E-01
   1   12   16     1    16    1.4509E+05 -4.9631E+03   1.5005E+05  0.000E+00  0.000E+00  0.000E+00  4.12850E+01  1.827E-01  2.000E+01  2.000E+04 -2.482E-01
   1   12   17     1    17    1.5005E+05 -3.4474E+03   1.5350E+05  0.000E+00  0.000E+00  0.000E+00  4.08108E+01  1.858E-01  2.000E+01  2.000E+04 -1.724E-01
   1   12   18     1    18    1.5350E+05 -3.3737E+03   1.5687E+05  0.000E+00  0.000E+00  0.000E+00  4.03360E+01  1.883E-01  2.000E+01  2.000E+04 -1.687E-01
   1   12   19     1    19    1.5687E+05 -4.4099E+03   1.6128E+05  0.000E+00  0.000E+00  0.000E+00  3.98616E+01  1.911E-01  2.000E+01  2.000E+04 -2.205E-01
   1   13   20     1    20    1.6128E+05 -3.4116E+03   1.6469E+05  0.000E+00  0.000E+00  0.000E+00  3.93871E+01  1.939E-01  2.000E+01  2.000E+04 -1.706E-01
   1   14   21     1    21    1.6469E+05 -2.9876E+03   1.6768E+05  0.000E+00  0.000E+00  0.000E+00  3.89121E+01  1.962E-01  2.000E+01  2.000E+04 -1.494E-01
   1   14   22     1    22    1.6768E+05  4.6763E+03   1.6300E+05  0.000E+00  0.000E+00  0.000E+00  3.84342E+01  1.956E-01  2.000E+01  2.000E+04  2.338E-01
   1    9   30     2     1    5.0000E+04  4.2812E+02   4.9572E+04  0.000E+00  0.000E+00  0.000E+00  4.02406E+01  1.156E-01  2.000E+01  2.000E+04  2.141E-02
   1    9   29     2     2    4.9572E+04  2.4472E+03   4.7125E+04  0.000E+00  0.000E+00  0.000E+00  3.99886E+01  1.136E-01  2.000E+01  2.000E+04  1.224E-01
   1    9   28     2     3    4.7125E+04 -8.1005E+02   4.7935E+04  0.000E+00  0.000E+00  0.000E+00  3.97374E+01  1.124E-01  2.000E+01  2.000E+04 -4.050E-02
   1    9   27     2     4    4.7935E+04 -4.0773E+03   5.2012E+04  0.000E+00  0.000E+00  0.000E+00  3.94908E+01  1.158E-01  2.000E+01  2.000E+04 -2.039E-01
   1   10   26     2     5    5.2012E+04 -2.6811E+03   5.4693E+04  0.000E+00  0.000E+00  0.000E+00  3.92455E+01  1.205E-01  2.000E+01  2.000E+04 -1.341E-01
   1   11   25     2     6    5.4693E+04 -2.8184E+03   5.7512E+04  0.000E+00  0.000E+00  0.000E+00  3.89992E+01  1.242E-01  2.000E+01  2.000E+04 -1.409E-01
   1   12   24     2     7    5.7512E+04 -3.0342E+03   6.0546E+04  0.000E+00  0.000E+00  0.000E+00  3.87530E+01  1.280E-01  2.000E+01  2.000E+04 -1.517E-01
   1   13   23     2     8    6.0546E+04 -6.0491E+02   6.1151E+04  0.000E+00  0.000E+00  0.000E+00  3.85054E+01  1.304E-01  2.000E+01  2.000E+04 -3.025E-02
   1   14   22     2     9    6.1151E+04  1.0925E+03   6.0058E+04  0.000E+00  0.000E+00  0.000E+00  3.82550E+01  1.300E-01  2.000E+01  2.000E+04  5.462E-02
   1   14   22     3     1    2.2306E+05 -8.9656E+03   2.3203E+05  0.000E+00  0.000E+00  0.000E+00  3.77521E+01  1.966E-01  2.000E+01  2.000E+04 -4.483E-01
   1   15   23     3     2    2.3203E+05 -8.7492E+02   2.3290E+05  0.000E+00  0.000E+00  0.000E+00  3.68658E+01  1.991E-01  2.000E+01  2.000E+04 -4.375E-02
   1   15   24     3     3    2.3290E+05 -6.0585E+02   2.3351E+05  0.000E+00  0.000E+00  0.000E+00  3.59773E+01  1.995E-01  2.000E+01  2.000E+04 -3.029E-02
   1   15   25     3     4    2.3351E+05 -6.1861E+02   2.3413E+05  0.000E+00  0.000E+00  0.000E+00  3.50887E+01  1.998E-01  2.000E+01  2.000E+04 -3.093E-02
   1   15   26     3     5    2.3413E+05 -6.7690E+02   2.3480E+05  0.000E+00  0.000E+00  0.000E+00  3.42001E+01  2.001E-01  2.000E+01  2.000E+04 -3.385E-02
   1   16   27     3     6    2.3480E+05 -7.2579E+02   2.3553E+05  0.000E+00  0.000E+00  0.000E+00  3.33116E+01  2.005E-01  2.000E+01  2.000E+04 -3.629E-02
   1   17   28     3     7    2.3553E+05 -1.5551E+03   2.3709E+05  0.000E+00  0.000E+00  0.000E+00  3.24233E+01  2.011E-01  2.000E+01  2.000E+04 -7.776E-02
   1   18   29     3     8    2.3709E+05  1.2493E+03   2.3584E+05  0.000E+00  0.000E+00  0.000E+00  3.15345E+01  2.012E-01  2.000E+01  2.000E+04  6.247E-02
   1   18   30     3     9    2.3584E+05 -1.5575E+03   2.3739E+05  0.000E+00  0.000E+00  0.000E+00  3.06457E+01  2.012E-01  2.000E+01  2.000E+04 -7.787E-02



1
              HEAD IN LAYER   1 AT END OF TIME STEP   1 IN STRESS PERIOD    2
  ---------------------------------------------------------------------------

          1      2      3      4      5      6      7      8      9     10
         11     12     13     14     15     16     17     18     19     20
         21     22     23     24     25     26     27     28     29     30
 .........................................................................
   1  ****** ****** ****** ****** ****** ****** ****** ****** ****** ******
      ****** ****** ****** ****** ****** ****** ****** ****** ****** ******
      ****** ****** ****** ****** ****** ****** ****** ****** ****** ******
   2  ****** ****** ****** ****** ****** ****** ****** ****** ****** ******
      ****** ****** ****** ****** ****** ****** ****** ****** ****** ******
      ****** ****** ****** ****** ****** ****** ****** ****** ****** ******
   3  ****** ****** ****** ****** ****** ****** ****** ****** ****** ******
      ****** ****** ****** ****** ****** ****** ****** ****** ****** ******
      ****** ****** ****** ****** ****** ****** ****** ****** ****** ******
   4  ****** ****** ****** ****** ****** ****** ****** ****** ****** ******
      ****** ****** ****** ****** ****** ****** ****** ****** ****** ******
      ****** ****** ****** ****** ****** ****** ****** ****** ****** ******
   5  ****** ****** ****** ****** ****** ****** ****** ****** ****** ******
      ****** ****** ****** ****** ****** ****** ****** ****** ****** ******
      ****** ****** ****** ****** ****** ****** ****** ****** ****** ******
   6  ****** ****** ****** ****** ****** ****** ****** ****** ****** ******
      ****** ****** ****** ****** ****** ****** ****** ****** ****** ******
      ****** ****** ****** ****** ****** ****** ****** ****** ****** ******
   7  ****** ****** ****** ****** ****** ****** ****** ****** ****** ******
      ****** ****** ****** ****** ****** ****** ****** ****** ****** ******
      ****** ****** ****** ****** ****** ****** ****** ****** ****** ******
   8  ****** ****** ****** ****** ****** ****** ****** ****** ****** ******
      ****** ****** ****** ****** ****** ****** ****** ****** ****** ******
      ****** ****** ****** ****** ****** ****** ****** ****** ****** ******
   9  ****** ****** ****** ****** ****** ****** ****** ****** ****** ******
      ****** ****** ****** ****** ****** ****** ****** ****** ****** ******
      ****** ****** ****** ****** ****** ****** ****** ****** ****** ******
  10  ****** ****** ****** ****** ****** ****** ****** ****** ****** ******
      ****** ****** ****** ****** ****** ****** ****** ****** ****** ******
      ****** ****** ****** ****** ****** ****** ****** ****** ****** ******
  11  ****** ****** ****** ****** ****** ****** ****** ****** ****** ******
      ****** ****** ****** ****** ****** ****** ****** ****** ****** ******
      ****** ****** ****** ****** ****** ****** ****** ****** ****** ******
  12  ****** ****** ****** ****** ****** ****** ****** ****** ****** ******
      ****** ****** ****** ****** ****** ****** ****** ****** ****** ******
      ****** ****** ****** ****** ****** ****** ****** ****** ****** ******
  13  ****** ****** ****** ****** ****** ****** ****** ****** ****** ******
      ****** ****** ****** ****** ****** ****** ****** ****** ****** ******
      ****** ****** ****** ****** ****** ****** ****** ****** ****** ******
  14  ****** ****** ****** ****** ****** ****** ****** ****** ****** ******
      ****** ****** ****** ****** ****** ****** ****** ****** ****** ******
      ****** ****** ****** ****** ****** ****** ****** ****** ****** ******
  15  ****** ****** ****** ****** ****** ****** ****** ****** ****** ******
      ****** ****** ****** ****** ****** ****** ****** ****** ****** ******
      ****** ****** ****** ****** ****** ****** ****** ****** ****** ******
  16  ****** ****** ****** ****** ****** ****** ****** ****** ****** ******
      ****** ****** ****** ****** ****** ****** ****** ****** ****** ******
      ****** ****** ****** ****** ****** ****** ****** ****** ****** ******
  17  ****** ****** ****** ****** ****** ****** ****** ****** ****** ******
      ****** ****** ****** ****** ****** ****** ****** ****** ****** ******
      ****** ****** ****** ****** ****** ****** ****** ****** ****** ******
  18  ****** ****** ****** ****** ****** ****** ****** ****** ****** ******
      ****** ****** ****** ****** ****** ****** ****** ****** ****** ******
      ****** ****** ****** ****** ****** ****** ****** ****** ****** ******
  19  ****** ****** ****** ****** ****** ****** ****** ****** ****** ******
      ****** ****** ****** ****** ****** ****** ****** ****** ****** ******
      ****** ****** ****** ****** ****** ****** ****** ****** ****** ******
  20  ****** ****** ****** ****** ****** ****** ****** ****** ****** ******
      ****** ****** ****** ****** ****** ****** ****** ****** ****** ******
      ****** ****** ****** ****** ****** ****** ****** ****** ****** ******
  21  ****** ****** ****** ****** ****** ****** ****** ****** ****** ******
      ****** ****** ****** ****** ****** ****** ****** ****** ****** ******
      ****** ****** ****** ****** ****** ****** ****** ****** ****** ******
  22  ****** ****** ****** ****** ****** ****** ****** ****** ****** ******
      ****** ****** ****** ****** ****** ****** ****** ****** ****** ******
      ****** ****** ****** ****** ****** ****** ****** ****** ****** ******
  23  ****** ****** ****** ****** ****** ****** ****** ****** ****** ******
      ****** ****** ****** ****** ****** ****** ****** ****** ****** ******
      ****** ****** ****** ****** ****** ****** ****** ****** ****** ******
  24  ****** ****** ****** ****** ****** ****** ****** ****** ****** ******
      ****** ****** ****** ****** ****** ****** ****** ****** ****** ******
      ****** ****** ****** ****** ****** ****** ****** ****** ****** ******
  25  ****** ****** ****** ****** ****** ****** ****** ****** ****** ******
      ****** ****** ****** ****** ****** ****** ****** ****** ****** ******
      ****** ****** ****** ****** ****** ****** ****** ****** ****** ******

 HEAD WILL BE SAVED ON UNIT   51 AT END OF TIME STEP    1, STRESS PERIOD    2
1
  VOLUMETRIC BUDGET FOR ENTIRE MODEL AT END OF TIME STEP    1, STRESS PERIOD   2
  ------------------------------------------------------------------------------

     CUMULATIVE VOLUMES      L**3       RATES FOR THIS TIME STEP      L**3/T
     ------------------                 ------------------------

           IN:                                      IN:
           ---                                      ---
             STORAGE =    23236285.6067               STORAGE =       56691.8202
       CONSTANT HEAD =     2806608.8358         CONSTANT HEAD =       17796.9050
               WELLS =           0.0000                 WELLS =           0.0000
            RECHARGE =     6292800.0000              RECHARGE =       55200.0000
      STREAM LEAKAGE =     1268193.8987        STREAM LEAKAGE =        9893.3892

            TOTAL IN =    33603888.3413              TOTAL IN =      139582.1144

          OUT:                                     OUT:
          ----                                     ----
             STORAGE =           0.0000               STORAGE =           0.0000
       CONSTANT HEAD =           0.0000         CONSTANT HEAD =           0.0000
               WELLS =     7740004.2786                 WELLS =       42295.1053
            RECHARGE =           0.0000              RECHARGE =           0.0000
      STREAM LEAKAGE =    25863885.3044        STREAM LEAKAGE =       97287.0195

           TOTAL OUT =    33603889.5830             TOTAL OUT =      139582.1249

            IN - OUT =          -1.2418              IN - OUT =      -1.0479E-02

 PERCENT DISCREPANCY =          -0.00     PERCENT DISCREPANCY =          -0.00






         TIME SUMMARY AT END OF TIME STEP    1 IN STRESS PERIOD    2
                    SECONDS     MINUTES      HOURS       DAYS        YEARS
                    -----------------------------------------------------------
   TIME STEP LENGTH 7.86240E+06 1.31040E+05  2184.0      91.000     0.24914    
 STRESS PERIOD TIME 7.86240E+06 1.31040E+05  2184.0      91.000     0.24914    
         TOTAL TIME 1.58112E+07 2.63520E+05  4392.0      183.00     0.50103    
1
1
                            STRESS PERIOD NO.    3, LENGTH =   91.00000    
                            -----------------------------------------------

                              NUMBER OF TIME STEPS =     1

                               MULTIPLIER FOR DELT =     1.500

                            INITIAL TIME STEP SIZE =   91.00000    

 WELL NO.  LAYER   ROW   COL   STRESS RATE         
 --------------------------------------------------
      1      1     14      6       0.000    
      2      1      3      9       0.000    
      3      1     20     10       0.000    
      4      1     14     20       0.000    
      5      1     19     29     -0.1179E+05
      6      1     10     29     -0.1333E+05
      7      1     20     21      -8354.    
      8      1      8     12      -8823.    

      8 WELLS

                 RECHARGE =   0.00000    

 REUSING STREAM SEGMENT DATA FROM LAST STRESS PERIOD
 
 SOLVING FOR HEAD 


     7 CALLS TO PCG ROUTINE FOR TIME STEP   1 IN STRESS PERIOD    3
    27 TOTAL ITERATIONS

 OUTPUT CONTROL FOR STRESS PERIOD    3   TIME STEP    1
    SAVE BUDGET
    SAVE HEAD FOR ALL LAYERS
    PRINT HEAD FOR ALL LAYERS
 UBDSV2 SAVING "STREAMFLOW OUT  " ON UNIT  50 AT TIME STEP  1, STRESS PERIOD   3



 STREAM LISTING     PERIOD      3   STEP        1

 LAYER ROW COL. STREAM  RCH.  FLOW INTO     FLOW TO   FLOW OUT OF   OVRLND.     DIRECT     STREAM       STREAM     STREAM     STREAM   STREAMBED  STREAMBED
                SEG.NO.  NO.  STRM. RCH.    AQUIFER    STRM. RCH.    RUNOFF     PRECIP       ET          HEAD       DEPTH      WIDTH   CONDCTNC.   GRADIENT

   1   13    1     1     1    1.0000E+05 -2.6326E+03   1.0263E+05  0.000E+00  0.000E+00  0.000E+00  4.84072E+01  1.458E-01  2.000E+01  2.000E+04 -1.316E-01
   1   13    2     1     2    1.0263E+05 -3.7319E+03   1.0636E+05  0.000E+00  0.000E+00  0.000E+00  4.79326E+01  1.485E-01  2.000E+01  2.000E+04 -1.866E-01
   1   14    3     1     3    1.0636E+05 -6.4434E+02   1.0701E+05  0.000E+00  0.000E+00  0.000E+00  4.74572E+01  1.504E-01  2.000E+01  2.000E+04 -3.222E-02
   1   15    4     1     4    1.0701E+05 -6.3003E+02   1.0764E+05  0.000E+00  0.000E+00  0.000E+00  4.69805E+01  1.509E-01  2.000E+01  2.000E+04 -3.150E-02
   1   16    5     1     5    1.0764E+05 -2.4275E+03   1.1007E+05  0.000E+00  0.000E+00  0.000E+00  4.65045E+01  1.522E-01  2.000E+01  2.000E+04 -1.214E-01
   1   16    6     1     6    1.1007E+05 -1.4762E+03   1.1154E+05  0.000E+00  0.000E+00  0.000E+00  4.60288E+01  1.538E-01  2.000E+01  2.000E+04 -7.381E-02
   1   16    7     1     7    1.1154E+05 -1.4312E+03   1.1297E+05  0.000E+00  0.000E+00  0.000E+00  4.55528E+01  1.550E-01  2.000E+01  2.000E+04 -7.156E-02
   1   16    8     1     8    1.1297E+05 -1.4072E+03   1.1438E+05  0.000E+00  0.000E+00  0.000E+00  4.50767E+01  1.562E-01  2.000E+01  2.000E+04 -7.036E-02
   1   16    9     1     9    1.1438E+05 -1.3730E+03   1.1575E+05  0.000E+00  0.000E+00  0.000E+00  4.46005E+01  1.574E-01  2.000E+01  2.000E+04 -6.865E-02
   1   16   10     1    10    1.1575E+05 -1.3236E+03   1.1708E+05  0.000E+00  0.000E+00  0.000E+00  4.41244E+01  1.585E-01  2.000E+01  2.000E+04 -6.618E-02
   1   16   11     1    11    1.1708E+05 -1.2813E+03   1.1836E+05  0.000E+00  0.000E+00  0.000E+00  4.36482E+01  1.595E-01  2.000E+01  2.000E+04 -6.406E-02
   1   16   12     1    12    1.1836E+05 -2.1080E+03   1.2047E+05  0.000E+00  0.000E+00  0.000E+00  4.31723E+01  1.609E-01  2.000E+01  2.000E+04 -1.054E-01
   1   15   13     1    13    1.2047E+05 -1.8833E+03   1.2235E+05  0.000E+00  0.000E+00  0.000E+00  4.26966E+01  1.625E-01  2.000E+01  2.000E+04 -9.416E-02
   1   14   14     1    14    1.2235E+05 -2.0617E+03   1.2441E+05  0.000E+00  0.000E+00  0.000E+00  4.22209E+01  1.641E-01  2.000E+01  2.000E+04 -1.031E-01
   1   13   15     1    15    1.2441E+05 -2.3177E+03   1.2673E+05  0.000E+00  0.000E+00  0.000E+00  4.17454E+01  1.658E-01  2.000E+01  2.000E+04 -1.159E-01
   1   12   16     1    16    1.2673E+05 -3.0903E+03   1.2982E+05  0.000E+00  0.000E+00  0.000E+00  4.12702E+01  1.680E-01  2.000E+01  2.000E+04 -1.545E-01
   1   12   17     1    17    1.2982E+05 -2.1081E+03   1.3193E+05  0.000E+00  0.000E+00  0.000E+00  4.07950E+01  1.700E-01  2.000E+01  2.000E+04 -1.054E-01
   1   12   18     1    18    1.3193E+05 -2.0632E+03   1.3399E+05  0.000E+00  0.000E+00  0.000E+00  4.03193E+01  1.716E-01  2.000E+01  2.000E+04 -1.032E-01
   1   12   19     1    19    1.3399E+05 -2.7860E+03   1.3678E+05  0.000E+00  0.000E+00  0.000E+00  3.98439E+01  1.735E-01  2.000E+01  2.000E+04 -1.393E-01
   1   13   20     1    20    1.3678E+05 -1.8976E+03   1.3867E+05  0.000E+00  0.000E+00  0.000E+00  3.93685E+01  1.753E-01  2.000E+01  2.000E+04 -9.488E-02
   1   14   21     1    21    1.3867E+05 -1.3910E+03   1.4007E+05  0.000E+00  0.000E+00  0.000E+00  3.88924E+01  1.765E-01  2.000E+01  2.000E+04 -6.955E-02
   1   14   22     1    22    1.4007E+05  5.0622E+03   1.3500E+05  0.000E+00  0.000E+00  0.000E+00  3.84138E+01  1.751E-01  2.000E+01  2.000E+04  2.531E-01
   1    9   30     2     1    5.0000E+04  1.6500E+03   4.8350E+04  0.000E+00  0.000E+00  0.000E+00  4.02397E+01  1.147E-01  2.000E+01  2.000E+04  8.250E-02
   1    9   29     2     2    4.8350E+04  3.6655E+03   4.4684E+04  0.000E+00  0.000E+00  0.000E+00  3.99860E+01  1.110E-01  2.000E+01  2.000E+04  1.833E-01
   1    9   28     2     3    4.4684E+04  4.1657E+02   4.4268E+04  0.000E+00  0.000E+00  0.000E+00  3.97330E+01  1.080E-01  2.000E+01  2.000E+04  2.083E-02
   1    9   27     2     4    4.4268E+04 -2.3271E+03   4.6595E+04  0.000E+00  0.000E+00  0.000E+00  3.94844E+01  1.094E-01  2.000E+01  2.000E+04 -1.164E-01
   1   10   26     2     5    4.6595E+04 -1.0333E+03   4.7628E+04  0.000E+00  0.000E+00  0.000E+00  3.92368E+01  1.118E-01  2.000E+01  2.000E+04 -5.166E-02
   1   11   25     2     6    4.7628E+04 -1.2838E+03   4.8912E+04  0.000E+00  0.000E+00  0.000E+00  3.89884E+01  1.134E-01  2.000E+01  2.000E+04 -6.419E-02
   1   12   24     2     7    4.8912E+04 -1.6686E+03   5.0581E+04  0.000E+00  0.000E+00  0.000E+00  3.87405E+01  1.155E-01  2.000E+01  2.000E+04 -8.343E-02
   1   13   23     2     8    5.0581E+04 -2.6764E+02   5.0848E+04  0.000E+00  0.000E+00  0.000E+00  3.84919E+01  1.169E-01  2.000E+01  2.000E+04 -1.338E-02
   1   14   22     2     9    5.0848E+04  1.6054E+03   4.9243E+04  0.000E+00  0.000E+00  0.000E+00  3.82409E+01  1.159E-01  2.000E+01  2.000E+04  8.027E-02
   1   14   22     3     1    1.8425E+05 -8.5899E+03   1.9284E+05  0.000E+00  0.000E+00  0.000E+00  3.77312E+01  1.756E-01  2.000E+01  2.000E+04 -4.295E-01
   1   15   23     3     2    1.9284E+05 -4.5002E+02   1.9329E+05  0.000E+00  0.000E+00  0.000E+00  3.68448E+01  1.781E-01  2.000E+01  2.000E+04 -2.250E-02
   1   15   24     3     3    1.9329E+05 -2.6573E+02   1.9355E+05  0.000E+00  0.000E+00  0.000E+00  3.59561E+01  1.783E-01  2.000E+01  2.000E+04 -1.329E-02
   1   15   25     3     4    1.9355E+05 -2.6323E+02   1.9382E+05  0.000E+00  0.000E+00  0.000E+00  3.50674E+01  1.785E-01  2.000E+01  2.000E+04 -1.316E-02
   1   15   26     3     5    1.9382E+05 -2.5583E+02   1.9407E+05  0.000E+00  0.000E+00  0.000E+00  3.41786E+01  1.786E-01  2.000E+01  2.000E+04 -1.279E-02
   1   16   27     3     6    1.9407E+05 -2.3229E+02   1.9430E+05  0.000E+00  0.000E+00  0.000E+00  3.32899E+01  1.787E-01  2.000E+01  2.000E+04 -1.161E-02
   1   17   28     3     7    1.9430E+05 -9.5798E+00   1.9431E+05  0.000E+00  0.000E+00  0.000E+00  3.24010E+01  1.788E-01  2.000E+01  2.000E+04 -4.790E-04
   1   18   29     3     8    1.9431E+05  3.0108E+03   1.9130E+05  0.000E+00  0.000E+00  0.000E+00  3.15113E+01  1.780E-01  2.000E+01  2.000E+04  1.505E-01
   1   18   30     3     9    1.9130E+05 -2.5889E+02   1.9156E+05  0.000E+00  0.000E+00  0.000E+00  3.06217E+01  1.772E-01  2.000E+01  2.000E+04 -1.294E-02



1
              HEAD IN LAYER   1 AT END OF TIME STEP   1 IN STRESS PERIOD    3
  ---------------------------------------------------------------------------

          1      2      3      4      5      6      7      8      9     10
         11     12     13     14     15     16     17     18     19     20
         21     22     23     24     25     26     27     28     29     30
 .........................................................................
   1  ****** ****** ****** ****** ****** ****** ****** ****** ****** ******
      ****** ****** ****** ****** ****** ****** ****** ****** ****** ******
      ****** ****** ****** ****** ****** ****** ****** ****** ****** ******
   2  ****** ****** ****** ****** ****** ****** ****** ****** ****** ******
      ****** ****** ****** ****** ****** ****** ****** ****** ****** ******
      ****** ****** ****** ****** ****** ****** ****** ****** ****** ******
   3  ****** ****** ****** ****** ****** ****** ****** ****** ****** ******
      ****** ****** ****** ****** ****** ****** ****** ****** ****** ******
      ****** ****** ****** ****** ****** ****** ****** ****** ****** ******
   4  ****** ****** ****** ****** ****** ****** ****** ****** ****** ******
      ****** ****** ****** ****** ****** ****** ****** ****** ****** ******
      ****** ****** ****** ****** ****** ****** ****** ****** ****** ******
   5  ****** ****** ****** ****** ****** ****** ****** ****** ****** ******
      ****** ****** ****** ****** ****** ****** ****** ****** ****** ******
      ****** ****** ****** ****** ****** ****** ****** ****** ****** ******
   6  ****** ****** ****** ****** ****** ****** ****** ****** ****** ******
      ****** ****** ****** ****** ****** ****** ****** ****** ****** ******
      ****** ****** ****** ****** ****** ****** ****** ****** ****** ******
   7  ****** ****** ****** ****** ****** ****** ****** ****** ****** ******
      ****** ****** ****** ****** ****** ****** ****** ****** ****** ******
      ****** ****** ****** ****** ****** ****** ****** ****** ****** ******
   8  ****** ****** ****** ****** ****** ****** ****** ****** ****** ******
      ****** ****** ****** ****** ****** ****** ****** ****** ****** ******
      ****** ****** ****** ****** ****** ****** ****** ****** ****** ******
   9  ****** ****** ****** ****** ****** ****** ****** ****** ****** ******
      ****** ****** ****** ****** ****** ****** ****** ****** ****** ******
      ****** ****** ****** ****** ****** ****** ****** ****** ****** ******
  10  ****** ****** ****** ****** ****** ****** ****** ****** ****** ******
      ****** ****** ****** ****** ****** ****** ****** ****** ****** ******
      ****** ****** ****** ****** ****** ****** ****** ****** ****** ******
  11  ****** ****** ****** ****** ****** ****** ****** ****** ****** ******
      ****** ****** ****** ****** ****** ****** ****** ****** ****** ******
      ****** ****** ****** ****** ****** ****** ****** ****** ****** ******
  12  ****** ****** ****** ****** ****** ****** ****** ****** ****** ******
      ****** ****** ****** ****** ****** ****** ****** ****** ****** ******
      ****** ****** ****** ****** ****** ****** ****** ****** ****** ******
  13  ****** ****** ****** ****** ****** ****** ****** ****** ****** ******
      ****** ****** ****** ****** ****** ****** ****** ****** ****** ******
      ****** ****** ****** ****** ****** ****** ****** ****** ****** ******
  14  ****** ****** ****** ****** ****** ****** ****** ****** ****** ******
      ****** ****** ****** ****** ****** ****** ****** ****** ****** ******
      ****** ****** ****** ****** ****** ****** ****** ****** ****** ******
  15  ****** ****** ****** ****** ****** ****** ****** ****** ****** ******
      ****** ****** ****** ****** ****** ****** ****** ****** ****** ******
      ****** ****** ****** ****** ****** ****** ****** ****** ****** ******
  16  ****** ****** ****** ****** ****** ****** ****** ****** ****** ******
      ****** ****** ****** ****** ****** ****** ****** ****** ****** ******
      ****** ****** ****** ****** ****** ****** ****** ****** ****** ******
  17  ****** ****** ****** ****** ****** ****** ****** ****** ****** ******
      ****** ****** ****** ****** ****** ****** ****** ****** ****** ******
      ****** ****** ****** ****** ****** ****** ****** ****** ****** ******
  18  ****** ****** ****** ****** ****** ****** ****** ****** ****** ******
      ****** ****** ****** ****** ****** ****** ****** ****** ****** ******
      ****** ****** ****** ****** ****** ****** ****** ****** ****** ******
  19  ****** ****** ****** ****** ****** ****** ****** ****** ****** ******
      ****** ****** ****** ****** ****** ****** ****** ****** ****** ******
      ****** ****** ****** ****** ****** ****** ****** ****** ****** ******
  20  ****** ****** ****** ****** ****** ****** ****** ****** ****** ******
      ****** ****** ****** ****** ****** ****** ****** ****** ****** ******
      ****** ****** ****** ****** ****** ****** ****** ****** ****** ******
  21  ****** ****** ****** ****** ****** ****** ****** ****** ****** ******
      ****** ****** ****** ****** ****** ****** ****** ****** ****** ******
      ****** ****** ****** ****** ****** ****** ****** ****** ****** ******
  22  ****** ****** ****** ****** ****** ****** ****** ****** ****** ******
      ****** ****** ****** ****** ****** ****** ****** ****** ****** ******
      ****** ****** ****** ****** ****** ****** ****** ****** ****** ******
  23  ****** ****** ****** ****** ****** ****** ****** ****** ****** ******
      ****** ****** ****** ****** ****** ****** ****** ****** ****** ******
      ****** ****** ****** ****** ****** ****** ****** ****** ****** ******
  24  ****** ****** ****** ****** ****** ****** ****** ****** ****** ******
      ****** ****** ****** ****** ****** ****** ****** ****** ****** ******
      ****** ****** ****** ****** ****** ****** ****** ****** ****** ******
  25  ****** ****** ****** ****** ****** ****** ****** ****** ****** ******
      ****** ****** ****** ****** ****** ****** ****** ****** ****** ******
      ****** ****** ****** ****** ****** ****** ****** ****** ****** ******

 HEAD WILL BE SAVED ON UNIT   51 AT END OF TIME STEP    1, STRESS PERIOD    3
1
  VOLUMETRIC BUDGET FOR ENTIRE MODEL AT END OF TIME STEP    1, STRESS PERIOD   3
  ------------------------------------------------------------------------------

     CUMULATIVE VOLUMES      L**3       RATES FOR THIS TIME STEP      L**3/T
     ------------------                 ------------------------

           IN:                                      IN:
           ---                                      ---
             STORAGE =    28442293.4699               STORAGE =       57208.8776
       CONSTANT HEAD =     5231510.1050         CONSTANT HEAD =       26647.2667
               WELLS =           0.0000                 WELLS =           0.0000
            RECHARGE =     6292800.0000              RECHARGE =           0.0000
      STREAM LEAKAGE =     2670552.3317        STREAM LEAKAGE =       15410.5322

            TOTAL IN =    42637155.9066              TOTAL IN =       99266.6765

          OUT:                                     OUT:
          ----                                     ----
             STORAGE =           0.0000               STORAGE =           0.0000
       CONSTANT HEAD =           0.0000         CONSTANT HEAD =           0.0000
               WELLS =    11588858.8652                 WELLS =       42295.1053
            RECHARGE =           0.0000              RECHARGE =           0.0000
      STREAM LEAKAGE =    31048298.9657        STREAM LEAKAGE =       56971.5787

           TOTAL OUT =    42637157.8309             TOTAL OUT =       99266.6840

            IN - OUT =          -1.9243              IN - OUT =      -7.5006E-03

 PERCENT DISCREPANCY =          -0.00     PERCENT DISCREPANCY =          -0.00






         TIME SUMMARY AT END OF TIME STEP    1 IN STRESS PERIOD    3
                    SECONDS     MINUTES      HOURS       DAYS        YEARS
                    -----------------------------------------------------------
   TIME STEP LENGTH 7.86240E+06 1.31040E+05  2184.0      91.000     0.24914    
 STRESS PERIOD TIME 7.86240E+06 1.31040E+05  2184.0      91.000     0.24914    
         TOTAL TIME 2.36736E+07 3.94560E+05  6576.0      274.00     0.75017    
1
1
                            STRESS PERIOD NO.    4, LENGTH =   91.00000    
                            -----------------------------------------------

                              NUMBER OF TIME STEPS =     1

                               MULTIPLIER FOR DELT =     1.500

                            INITIAL TIME STEP SIZE =   91.00000    

 WELL NO.  LAYER   ROW   COL   STRESS RATE         
 --------------------------------------------------
      1      1     14      6       0.000    
      2      1      3      9       0.000    
      3      1     20     10       0.000    
      4      1     14     20       0.000    
      5      1     19     29     -0.1179E+05
      6      1     10     29     -0.1333E+05
      7      1     20     21      -8354.    
      8      1      8     12      -8823.    

      8 WELLS

                 RECHARGE =  1.000000E-03

 REUSING STREAM SEGMENT DATA FROM LAST STRESS PERIOD
 
 SOLVING FOR HEAD 


     6 CALLS TO PCG ROUTINE FOR TIME STEP   1 IN STRESS PERIOD    4
    23 TOTAL ITERATIONS

 OUTPUT CONTROL FOR STRESS PERIOD    4   TIME STEP    1
    SAVE BUDGET
    SAVE HEAD FOR ALL LAYERS
    PRINT HEAD FOR ALL LAYERS
 UBDSV2 SAVING "STREAMFLOW OUT  " ON UNIT  50 AT TIME STEP  1, STRESS PERIOD   4



 STREAM LISTING     PERIOD      4   STEP        1

 LAYER ROW COL. STREAM  RCH.  FLOW INTO     FLOW TO   FLOW OUT OF   OVRLND.     DIRECT     STREAM       STREAM     STREAM     STREAM   STREAMBED  STREAMBED
                SEG.NO.  NO.  STRM. RCH.    AQUIFER    STRM. RCH.    RUNOFF     PRECIP       ET          HEAD       DEPTH      WIDTH   CONDCTNC.   GRADIENT

   1   13    1     1     1    1.0000E+05 -2.3616E+03   1.0236E+05  0.000E+00  0.000E+00  0.000E+00  4.84070E+01  1.457E-01  2.000E+01  2.000E+04 -1.181E-01
   1   13    2     1     2    1.0236E+05 -3.4184E+03   1.0578E+05  0.000E+00  0.000E+00  0.000E+00  4.79322E+01  1.482E-01  2.000E+01  2.000E+04 -1.709E-01
   1   14    3     1     3    1.0578E+05 -6.1133E+02   1.0639E+05  0.000E+00  0.000E+00  0.000E+00  4.74567E+01  1.499E-01  2.000E+01  2.000E+04 -3.057E-02
   1   15    4     1     4    1.0639E+05 -5.8807E+02   1.0698E+05  0.000E+00  0.000E+00  0.000E+00  4.69799E+01  1.504E-01  2.000E+01  2.000E+04 -2.940E-02
   1   16    5     1     5    1.0698E+05 -2.1181E+03   1.0910E+05  0.000E+00  0.000E+00  0.000E+00  4.65038E+01  1.515E-01  2.000E+01  2.000E+04 -1.059E-01
   1   16    6     1     6    1.0910E+05 -1.3208E+03   1.1042E+05  0.000E+00  0.000E+00  0.000E+00  4.60280E+01  1.530E-01  2.000E+01  2.000E+04 -6.604E-02
   1   16    7     1     7    1.1042E+05 -1.2856E+03   1.1170E+05  0.000E+00  0.000E+00  0.000E+00  4.55518E+01  1.540E-01  2.000E+01  2.000E+04 -6.428E-02
   1   16    8     1     8    1.1170E+05 -1.2642E+03   1.1297E+05  0.000E+00  0.000E+00  0.000E+00  4.50756E+01  1.551E-01  2.000E+01  2.000E+04 -6.321E-02
   1   16    9     1     9    1.1297E+05 -1.2309E+03   1.1420E+05  0.000E+00  0.000E+00  0.000E+00  4.45993E+01  1.561E-01  2.000E+01  2.000E+04 -6.155E-02
   1   16   10     1    10    1.1420E+05 -1.1827E+03   1.1538E+05  0.000E+00  0.000E+00  0.000E+00  4.41230E+01  1.571E-01  2.000E+01  2.000E+04 -5.914E-02
   1   16   11     1    11    1.1538E+05 -1.1373E+03   1.1652E+05  0.000E+00  0.000E+00  0.000E+00  4.36467E+01  1.581E-01  2.000E+01  2.000E+04 -5.686E-02
   1   16   12     1    12    1.1652E+05 -1.8001E+03   1.1832E+05  0.000E+00  0.000E+00  0.000E+00  4.31706E+01  1.593E-01  2.000E+01  2.000E+04 -9.000E-02
   1   15   13     1    13    1.1832E+05 -1.5885E+03   1.1991E+05  0.000E+00  0.000E+00  0.000E+00  4.26947E+01  1.607E-01  2.000E+01  2.000E+04 -7.942E-02
   1   14   14     1    14    1.1991E+05 -1.7399E+03   1.2165E+05  0.000E+00  0.000E+00  0.000E+00  4.22188E+01  1.620E-01  2.000E+01  2.000E+04 -8.700E-02
   1   13   15     1    15    1.2165E+05 -1.9704E+03   1.2362E+05  0.000E+00  0.000E+00  0.000E+00  4.17430E+01  1.635E-01  2.000E+01  2.000E+04 -9.852E-02
   1   12   16     1    16    1.2362E+05 -2.6491E+03   1.2627E+05  0.000E+00  0.000E+00  0.000E+00  4.12676E+01  1.653E-01  2.000E+01  2.000E+04 -1.325E-01
   1   12   17     1    17    1.2627E+05 -1.8448E+03   1.2811E+05  0.000E+00  0.000E+00  0.000E+00  4.07921E+01  1.671E-01  2.000E+01  2.000E+04 -9.224E-02
   1   12   18     1    18    1.2811E+05 -1.8211E+03   1.2993E+05  0.000E+00  0.000E+00  0.000E+00  4.03163E+01  1.685E-01  2.000E+01  2.000E+04 -9.106E-02
   1   12   19     1    19    1.2993E+05 -2.4952E+03   1.3243E+05  0.000E+00  0.000E+00  0.000E+00  3.98407E+01  1.702E-01  2.000E+01  2.000E+04 -1.248E-01
   1   13   20     1    20    1.3243E+05 -1.6944E+03   1.3412E+05  0.000E+00  0.000E+00  0.000E+00  3.93650E+01  1.719E-01  2.000E+01  2.000E+04 -8.472E-02
   1   14   21     1    21    1.3412E+05 -1.1010E+03   1.3522E+05  0.000E+00  0.000E+00  0.000E+00  3.88888E+01  1.729E-01  2.000E+01  2.000E+04 -5.505E-02
   1   14   22     1    22    1.3522E+05  5.1086E+03   1.3012E+05  0.000E+00  0.000E+00  0.000E+00  3.84100E+01  1.714E-01  2.000E+01  2.000E+04  2.554E-01
   1    9   30     2     1    5.0000E+04  1.7408E+03   4.8259E+04  0.000E+00  0.000E+00  0.000E+00  4.02397E+01  1.147E-01  2.000E+01  2.000E+04  8.704E-02
   1    9   29     2     2    4.8259E+04  3.7631E+03   4.4496E+04  0.000E+00  0.000E+00  0.000E+00  3.99858E+01  1.108E-01  2.000E+01  2.000E+04  1.882E-01
   1    9   28     2     3    4.4496E+04  5.3412E+02   4.3962E+04  0.000E+00  0.000E+00  0.000E+00  3.97326E+01  1.076E-01  2.000E+01  2.000E+04  2.671E-02
   1    9   27     2     4    4.3962E+04 -2.0589E+03   4.6021E+04  0.000E+00  0.000E+00  0.000E+00  3.94838E+01  1.088E-01  2.000E+01  2.000E+04 -1.029E-01
   1   10   26     2     5    4.6021E+04 -8.7184E+02   4.6893E+04  0.000E+00  0.000E+00  0.000E+00  3.92359E+01  1.109E-01  2.000E+01  2.000E+04 -4.359E-02
   1   11   25     2     6    4.6893E+04 -1.1615E+03   4.8054E+04  0.000E+00  0.000E+00  0.000E+00  3.89873E+01  1.123E-01  2.000E+01  2.000E+04 -5.807E-02
   1   12   24     2     7    4.8054E+04 -1.5641E+03   4.9618E+04  0.000E+00  0.000E+00  0.000E+00  3.87392E+01  1.142E-01  2.000E+01  2.000E+04 -7.820E-02
   1   13   23     2     8    4.9618E+04 -2.9204E+02   4.9910E+04  0.000E+00  0.000E+00  0.000E+00  3.84905E+01  1.155E-01  2.000E+01  2.000E+04 -1.460E-02
   1   14   22     2     9    4.9910E+04  1.6992E+03   4.8211E+04  0.000E+00  0.000E+00  0.000E+00  3.82396E+01  1.146E-01  2.000E+01  2.000E+04  8.496E-02
   1   14   22     3     1    1.7833E+05 -8.5356E+03   1.8686E+05  0.000E+00  0.000E+00  0.000E+00  3.77278E+01  1.723E-01  2.000E+01  2.000E+04 -4.268E-01
   1   15   23     3     2    1.8686E+05 -4.0993E+02   1.8727E+05  0.000E+00  0.000E+00  0.000E+00  3.68414E+01  1.748E-01  2.000E+01  2.000E+04 -2.050E-02
   1   15   24     3     3    1.8727E+05 -2.5515E+02   1.8753E+05  0.000E+00  0.000E+00  0.000E+00  3.59527E+01  1.750E-01  2.000E+01  2.000E+04 -1.276E-02
   1   15   25     3     4    1.8753E+05 -2.5320E+02   1.8778E+05  0.000E+00  0.000E+00  0.000E+00  3.50640E+01  1.751E-01  2.000E+01  2.000E+04 -1.266E-02
   1   15   26     3     5    1.8778E+05 -2.5699E+02   1.8804E+05  0.000E+00  0.000E+00  0.000E+00  3.41753E+01  1.753E-01  2.000E+01  2.000E+04 -1.285E-02
   1   16   27     3     6    1.8804E+05 -2.1933E+02   1.8826E+05  0.000E+00  0.000E+00  0.000E+00  3.32865E+01  1.754E-01  2.000E+01  2.000E+04 -1.097E-02
   1   17   28     3     7    1.8826E+05  1.0921E+02   1.8815E+05  0.000E+00  0.000E+00  0.000E+00  3.23976E+01  1.754E-01  2.000E+01  2.000E+04  5.461E-03
   1   18   29     3     8    1.8815E+05  3.3370E+03   1.8481E+05  0.000E+00  0.000E+00  0.000E+00  3.15078E+01  1.745E-01  2.000E+01  2.000E+04  1.669E-01
   1   18   30     3     9    1.8481E+05 -8.1556E+01   1.8489E+05  0.000E+00  0.000E+00  0.000E+00  3.06180E+01  1.735E-01  2.000E+01  2.000E+04 -4.078E-03



1
              HEAD IN LAYER   1 AT END OF TIME STEP   1 IN STRESS PERIOD    4
  ---------------------------------------------------------------------------

          1      2      3      4      5      6      7      8      9     10
         11     12     13     14     15     16     17     18     19     20
         21     22     23     24     25     26     27     28     29     30
 .........................................................................
   1  ****** ****** ****** ****** ****** ****** ****** ****** ****** ******
      ****** ****** ****** ****** ****** ****** ****** ****** ****** ******
      ****** ****** ****** ****** ****** ****** ****** ****** ****** ******
   2  ****** ****** ****** ****** ****** ****** ****** ****** ****** ******
      ****** ****** ****** ****** ****** ****** ****** ****** ****** ******
      ****** ****** ****** ****** ****** ****** ****** ****** ****** ******
   3  ****** ****** ****** ****** ****** ****** ****** ****** ****** ******
      ****** ****** ****** ****** ****** ****** ****** ****** ****** ******
      ****** ****** ****** ****** ****** ****** ****** ****** ****** ******
   4  ****** ****** ****** ****** ****** ****** ****** ****** ****** ******
      ****** ****** ****** ****** ****** ****** ****** ****** ****** ******
      ****** ****** ****** ****** ****** ****** ****** ****** ****** ******
   5  ****** ****** ****** ****** ****** ****** ****** ****** ****** ******
      ****** ****** ****** ****** ****** ****** ****** ****** ****** ******
      ****** ****** ****** ****** ****** ****** ****** ****** ****** ******
   6  ****** ****** ****** ****** ****** ****** ****** ****** ****** ******
      ****** ****** ****** ****** ****** ****** ****** ****** ****** ******
      ****** ****** ****** ****** ****** ****** ****** ****** ****** ******
   7  ****** ****** ****** ****** ****** ****** ****** ****** ****** ******
      ****** ****** ****** ****** ****** ****** ****** ****** ****** ******
      ****** ****** ****** ****** ****** ****** ****** ****** ****** ******
   8  ****** ****** ****** ****** ****** ****** ****** ****** ****** ******
      ****** ****** ****** ****** ****** ****** ****** ****** ****** ******
      ****** ****** ****** ****** ****** ****** ****** ****** ****** ******
   9  ****** ****** ****** ****** ****** ****** ****** ****** ****** ******
      ****** ****** ****** ****** ****** ****** ****** ****** ****** ******
      ****** ****** ****** ****** ****** ****** ****** ****** ****** ******
  10  ****** ****** ****** ****** ****** ****** ****** ****** ****** ******
      ****** ****** ****** ****** ****** ****** ****** ****** ****** ******
      ****** ****** ****** ****** ****** ****** ****** ****** ****** ******
  11  ****** ****** ****** ****** ****** ****** ****** ****** ****** ******
      ****** ****** ****** ****** ****** ****** ****** ****** ****** ******
      ****** ****** ****** ****** ****** ****** ****** ****** ****** ******
  12  ****** ****** ****** ****** ****** ****** ****** ****** ****** ******
      ****** ****** ****** ****** ****** ****** ****** ****** ****** ******
      ****** ****** ****** ****** ****** ****** ****** ****** ****** ******
  13  ****** ****** ****** ****** ****** ****** ****** ****** ****** ******
      ****** ****** ****** ****** ****** ****** ****** ****** ****** ******
      ****** ****** ****** ****** ****** ****** ****** ****** ****** ******
  14  ****** ****** ****** ****** ****** ****** ****** ****** ****** ******
      ****** ****** ****** ****** ****** ****** ****** ****** ****** ******
      ****** ****** ****** ****** ****** ****** ****** ****** ****** ******
  15  ****** ****** ****** ****** ****** ****** ****** ****** ****** ******
      ****** ****** ****** ****** ****** ****** ****** ****** ****** ******
      ****** ****** ****** ****** ****** ****** ****** ****** ****** ******
  16  ****** ****** ****** ****** ****** ****** ****** ****** ****** ******
      ****** ****** ****** ****** ****** ****** ****** ****** ****** ******
      ****** ****** ****** ****** ****** ****** ****** ****** ****** ******
  17  ****** ****** ****** ****** ****** ****** ****** ****** ****** ******
      ****** ****** ****** ****** ****** ****** ****** ****** ****** ******
      ****** ****** ****** ****** ****** ****** ****** ****** ****** ******
  18  ****** ****** ****** ****** ****** ****** ****** ****** ****** ******
      ****** ****** ****** ****** ****** ****** ****** ****** ****** ******
      ****** ****** ****** ****** ****** ****** ****** ****** ****** ******
  19  ****** ****** ****** ****** ****** ****** ****** ****** ****** ******
      ****** ****** ****** ****** ****** ****** ****** ****** ****** ******
      ****** ****** ****** ****** ****** ****** ****** ****** ****** ******
  20  ****** ****** ****** ****** ****** ****** ****** ****** ****** ******
      ****** ****** ****** ****** ****** ****** ****** ****** ****** ******
      ****** ****** ****** ****** ****** ****** ****** ****** ****** ******
  21  ****** ****** ****** ****** ****** ****** ****** ****** ****** ******
      ****** ****** ****** ****** ****** ****** ****** ****** ****** ******
      ****** ****** ****** ****** ****** ****** ****** ****** ****** ******
  22  ****** ****** ****** ****** ****** ****** ****** ****** ****** ******
      ****** ****** ****** ****** ****** ****** ****** ****** ****** ******
      ****** ****** ****** ****** ****** ****** ****** ****** ****** ******
  23  ****** ****** ****** ****** ****** ****** ****** ****** ****** ******
      ****** ****** ****** ****** ****** ****** ****** ****** ****** ******
      ****** ****** ****** ****** ****** ****** ****** ****** ****** ******
  24  ****** ****** ****** ****** ****** ****** ****** ****** ****** ******
      ****** ****** ****** ****** ****** ****** ****** ****** ****** ******
      ****** ****** ****** ****** ****** ****** ****** ****** ****** ******
  25  ****** ****** ****** ****** ****** ****** ****** ****** ****** ******
      ****** ****** ****** ****** ****** ****** ****** ****** ****** ******
      ****** ****** ****** ****** ****** ****** ****** ****** ****** ******

 HEAD WILL BE SAVED ON UNIT   51 AT END OF TIME STEP    1, STRESS PERIOD    4
1
  VOLUMETRIC BUDGET FOR ENTIRE MODEL AT END OF TIME STEP    1, STRESS PERIOD   4
  ------------------------------------------------------------------------------

     CUMULATIVE VOLUMES      L**3       RATES FOR THIS TIME STEP      L**3/T
     ------------------                 ------------------------

           IN:                                      IN:
           ---                                      ---
             STORAGE =    30273846.4220               STORAGE =       20126.9555
       CONSTANT HEAD =     7913084.8474         CONSTANT HEAD =       29467.8543
               WELLS =           0.0000                 WELLS =           0.0000
            RECHARGE =     8804400.0000              RECHARGE =       27600.0000
      STREAM LEAKAGE =     4153135.3229        STREAM LEAKAGE =       16292.1208

            TOTAL IN =    51144466.5922              TOTAL IN =       93486.9306

          OUT:                                     OUT:
          ----                                     ----
             STORAGE =         737.8036               STORAGE =           8.1077
       CONSTANT HEAD =           0.0000         CONSTANT HEAD =           0.0000
               WELLS =    15437713.4518                 WELLS =       42295.1053
            RECHARGE =           0.0000              RECHARGE =           0.0000
      STREAM LEAKAGE =    35706017.3386        STREAM LEAKAGE =       51183.7184

           TOTAL OUT =    51144468.5941             TOTAL OUT =       93486.9315

            IN - OUT =          -2.0018              IN - OUT =      -8.5169E-04

 PERCENT DISCREPANCY =          -0.00     PERCENT DISCREPANCY =          -0.00






         TIME SUMMARY AT END OF TIME STEP    1 IN STRESS PERIOD    4
                    SECONDS     MINUTES      HOURS       DAYS        YEARS
                    -----------------------------------------------------------
   TIME STEP LENGTH 7.86240E+06 1.31040E+05  2184.0      91.000     0.24914    
 STRESS PERIOD TIME 7.86240E+06 1.31040E+05  2184.0      91.000     0.24914    
         TOTAL TIME 3.15360E+07 5.25600E+05  8760.0      365.00     0.99932    
1
1
                            STRESS PERIOD NO.    5, LENGTH =   92.00000    
                            -----------------------------------------------

                              NUMBER OF TIME STEPS =     1

                               MULTIPLIER FOR DELT =     1.500

                            INITIAL TIME STEP SIZE =   92.00000    

 WELL NO.  LAYER   ROW   COL   STRESS RATE         
 --------------------------------------------------
      1      1     14      6       0.000    
      2      1      3      9       0.000    
      3      1     20     10       0.000    
      4      1     14     20       0.000    
      5      1     19     29     -0.1179E+05
      6      1     10     29     -0.1333E+05
      7      1     20     21      -8354.    
      8      1      8     12      -8823.    

      8 WELLS

                 RECHARGE =  5.000000E-04

 REUSING STREAM SEGMENT DATA FROM LAST STRESS PERIOD
 
 SOLVING FOR HEAD 


     7 CALLS TO PCG ROUTINE FOR TIME STEP   1 IN STRESS PERIOD    5
    26 TOTAL ITERATIONS

 OUTPUT CONTROL FOR STRESS PERIOD    5   TIME STEP    1
    SAVE BUDGET
    SAVE HEAD FOR ALL LAYERS
    PRINT HEAD FOR ALL LAYERS
 UBDSV2 SAVING "STREAMFLOW OUT  " ON UNIT  50 AT TIME STEP  1, STRESS PERIOD   5



 STREAM LISTING     PERIOD      5   STEP        1

 LAYER ROW COL. STREAM  RCH.  FLOW INTO     FLOW TO   FLOW OUT OF   OVRLND.     DIRECT     STREAM       STREAM     STREAM     STREAM   STREAMBED  STREAMBED
                SEG.NO.  NO.  STRM. RCH.    AQUIFER    STRM. RCH.    RUNOFF     PRECIP       ET          HEAD       DEPTH      WIDTH   CONDCTNC.   GRADIENT

   1   13    1     1     1    1.0000E+05 -1.9190E+03   1.0192E+05  0.000E+00  0.000E+00  0.000E+00  4.84068E+01  1.455E-01  2.000E+01  2.000E+04 -9.595E-02
   1   13    2     1     2    1.0192E+05 -2.9179E+03   1.0484E+05  0.000E+00  0.000E+00  0.000E+00  4.79317E+01  1.476E-01  2.000E+01  2.000E+04 -1.459E-01
   1   14    3     1     3    1.0484E+05 -4.8513E+02   1.0532E+05  0.000E+00  0.000E+00  0.000E+00  4.74558E+01  1.490E-01  2.000E+01  2.000E+04 -2.426E-02
   1   15    4     1     4    1.0532E+05 -4.5607E+02   1.0578E+05  0.000E+00  0.000E+00  0.000E+00  4.69790E+01  1.494E-01  2.000E+01  2.000E+04 -2.280E-02
   1   16    5     1     5    1.0578E+05 -1.6816E+03   1.0746E+05  0.000E+00  0.000E+00  0.000E+00  4.65026E+01  1.503E-01  2.000E+01  2.000E+04 -8.408E-02
   1   16    6     1     6    1.0746E+05 -1.0634E+03   1.0852E+05  0.000E+00  0.000E+00  0.000E+00  4.60265E+01  1.515E-01  2.000E+01  2.000E+04 -5.317E-02
   1   16    7     1     7    1.0852E+05 -1.0377E+03   1.0956E+05  0.000E+00  0.000E+00  0.000E+00  4.55501E+01  1.524E-01  2.000E+01  2.000E+04 -5.189E-02
   1   16    8     1     8    1.0956E+05 -1.0190E+03   1.1058E+05  0.000E+00  0.000E+00  0.000E+00  4.50737E+01  1.532E-01  2.000E+01  2.000E+04 -5.095E-02
   1   16    9     1     9    1.1058E+05 -9.8788E+02   1.1157E+05  0.000E+00  0.000E+00  0.000E+00  4.45972E+01  1.541E-01  2.000E+01  2.000E+04 -4.939E-02
   1   16   10     1    10    1.1157E+05 -9.4226E+02   1.1251E+05  0.000E+00  0.000E+00  0.000E+00  4.41208E+01  1.549E-01  2.000E+01  2.000E+04 -4.711E-02
   1   16   11     1    11    1.1251E+05 -8.9499E+02   1.1341E+05  0.000E+00  0.000E+00  0.000E+00  4.36443E+01  1.556E-01  2.000E+01  2.000E+04 -4.475E-02
   1   16   12     1    12    1.1341E+05 -1.3608E+03   1.1477E+05  0.000E+00  0.000E+00  0.000E+00  4.31679E+01  1.566E-01  2.000E+01  2.000E+04 -6.804E-02
   1   15   13     1    13    1.1477E+05 -1.1236E+03   1.1589E+05  0.000E+00  0.000E+00  0.000E+00  4.26917E+01  1.576E-01  2.000E+01  2.000E+04 -5.618E-02
   1   14   14     1    14    1.1589E+05 -1.2445E+03   1.1713E+05  0.000E+00  0.000E+00  0.000E+00  4.22154E+01  1.585E-01  2.000E+01  2.000E+04 -6.223E-02
   1   13   15     1    15    1.1713E+05 -1.4570E+03   1.1859E+05  0.000E+00  0.000E+00  0.000E+00  4.17392E+01  1.596E-01  2.000E+01  2.000E+04 -7.285E-02
   1   12   16     1    16    1.1859E+05 -2.0897E+03   1.2068E+05  0.000E+00  0.000E+00  0.000E+00  4.12634E+01  1.611E-01  2.000E+01  2.000E+04 -1.045E-01
   1   12   17     1    17    1.2068E+05 -1.4718E+03   1.2215E+05  0.000E+00  0.000E+00  0.000E+00  4.07875E+01  1.625E-01  2.000E+01  2.000E+04 -7.359E-02
   1   12   18     1    18    1.2215E+05 -1.4678E+03   1.2362E+05  0.000E+00  0.000E+00  0.000E+00  4.03114E+01  1.637E-01  2.000E+01  2.000E+04 -7.339E-02
   1   12   19     1    19    1.2362E+05 -2.0715E+03   1.2569E+05  0.000E+00  0.000E+00  0.000E+00  3.98356E+01  1.651E-01  2.000E+01  2.000E+04 -1.036E-01
   1   13   20     1    20    1.2569E+05 -1.3201E+03   1.2701E+05  0.000E+00  0.000E+00  0.000E+00  3.93596E+01  1.664E-01  2.000E+01  2.000E+04 -6.600E-02
   1   14   21     1    21    1.2701E+05 -6.8949E+02   1.2770E+05  0.000E+00  0.000E+00  0.000E+00  3.88831E+01  1.672E-01  2.000E+01  2.000E+04 -3.447E-02
   1   14   22     1    22    1.2770E+05  5.1953E+03   1.2251E+05  0.000E+00  0.000E+00  0.000E+00  3.84041E+01  1.655E-01  2.000E+01  2.000E+04  2.598E-01
   1    9   30     2     1    5.0000E+04  1.9724E+03   4.8028E+04  0.000E+00  0.000E+00  0.000E+00  4.02395E+01  1.145E-01  2.000E+01  2.000E+04  9.862E-02
   1    9   29     2     2    4.8028E+04  3.9983E+03   4.4029E+04  0.000E+00  0.000E+00  0.000E+00  3.99853E+01  1.103E-01  2.000E+01  2.000E+04  1.999E-01
   1    9   28     2     3    4.4029E+04  7.8126E+02   4.3248E+04  0.000E+00  0.000E+00  0.000E+00  3.97318E+01  1.068E-01  2.000E+01  2.000E+04  3.906E-02
   1    9   27     2     4    4.3248E+04 -1.6685E+03   4.4917E+04  0.000E+00  0.000E+00  0.000E+00  3.94824E+01  1.074E-01  2.000E+01  2.000E+04 -8.343E-02
   1   10   26     2     5    4.4917E+04 -5.2944E+02   4.5446E+04  0.000E+00  0.000E+00  0.000E+00  3.92340E+01  1.090E-01  2.000E+01  2.000E+04 -2.647E-02
   1   11   25     2     6    4.5446E+04 -8.4632E+02   4.6292E+04  0.000E+00  0.000E+00  0.000E+00  3.89850E+01  1.100E-01  2.000E+01  2.000E+04 -4.232E-02
   1   12   24     2     7    4.6292E+04 -1.2755E+03   4.7568E+04  0.000E+00  0.000E+00  0.000E+00  3.87365E+01  1.115E-01  2.000E+01  2.000E+04 -6.378E-02
   1   13   23     2     8    4.7568E+04 -2.2280E+02   4.7791E+04  0.000E+00  0.000E+00  0.000E+00  3.84876E+01  1.126E-01  2.000E+01  2.000E+04 -1.114E-02
   1   14   22     2     9    4.7791E+04  1.8425E+03   4.5948E+04  0.000E+00  0.000E+00  0.000E+00  3.82365E+01  1.115E-01  2.000E+01  2.000E+04  9.213E-02
   1   14   22     3     1    1.6845E+05 -8.4438E+03   1.7690E+05  0.000E+00  0.000E+00  0.000E+00  3.77221E+01  1.666E-01  2.000E+01  2.000E+04 -4.222E-01
   1   15   23     3     2    1.7690E+05 -3.0204E+02   1.7720E+05  0.000E+00  0.000E+00  0.000E+00  3.68358E+01  1.691E-01  2.000E+01  2.000E+04 -1.510E-02
   1   15   24     3     3    1.7720E+05 -1.7718E+02   1.7738E+05  0.000E+00  0.000E+00  0.000E+00  3.59470E+01  1.692E-01  2.000E+01  2.000E+04 -8.859E-03
   1   15   25     3     4    1.7738E+05 -1.7627E+02   1.7755E+05  0.000E+00  0.000E+00  0.000E+00  3.50582E+01  1.693E-01  2.000E+01  2.000E+04 -8.814E-03
   1   15   26     3     5    1.7755E+05 -1.8067E+02   1.7773E+05  0.000E+00  0.000E+00  0.000E+00  3.41694E+01  1.694E-01  2.000E+01  2.000E+04 -9.034E-03
   1   16   27     3     6    1.7773E+05 -1.2145E+02   1.7786E+05  0.000E+00  0.000E+00  0.000E+00  3.32806E+01  1.695E-01  2.000E+01  2.000E+04 -6.072E-03
   1   17   28     3     7    1.7786E+05  4.0514E+02   1.7745E+05  0.000E+00  0.000E+00  0.000E+00  3.23917E+01  1.695E-01  2.000E+01  2.000E+04  2.026E-02
   1   18   29     3     8    1.7745E+05  3.7689E+03   1.7368E+05  0.000E+00  0.000E+00  0.000E+00  3.15016E+01  1.683E-01  2.000E+01  2.000E+04  1.884E-01
   1   18   30     3     9    1.7368E+05  2.1193E+02   1.7347E+05  0.000E+00  0.000E+00  0.000E+00  3.06116E+01  1.671E-01  2.000E+01  2.000E+04  1.060E-02



1
              HEAD IN LAYER   1 AT END OF TIME STEP   1 IN STRESS PERIOD    5
  ---------------------------------------------------------------------------

          1      2      3      4      5      6      7      8      9     10
         11     12     13     14     15     16     17     18     19     20
         21     22     23     24     25     26     27     28     29     30
 .........................................................................
   1  ****** ****** ****** ****** ****** ****** ****** ****** ****** ******
      ****** ****** ****** ****** ****** ****** ****** ****** ****** ******
      ****** ****** ****** ****** ****** ****** ****** ****** ****** ******
   2  ****** ****** ****** ****** ****** ****** ****** ****** ****** ******
      ****** ****** ****** ****** ****** ****** ****** ****** ****** ******
      ****** ****** ****** ****** ****** ****** ****** ****** ****** ******
   3  ****** ****** ****** ****** ****** ****** ****** ****** ****** ******
      ****** ****** ****** ****** ****** ****** ****** ****** ****** ******
      ****** ****** ****** ****** ****** ****** ****** ****** ****** ******
   4  ****** ****** ****** ****** ****** ****** ****** ****** ****** ******
      ****** ****** ****** ****** ****** ****** ****** ****** ****** ******
      ****** ****** ****** ****** ****** ****** ****** ****** ****** ******
   5  ****** ****** ****** ****** ****** ****** ****** ****** ****** ******
      ****** ****** ****** ****** ****** ****** ****** ****** ****** ******
      ****** ****** ****** ****** ****** ****** ****** ****** ****** ******
   6  ****** ****** ****** ****** ****** ****** ****** ****** ****** ******
      ****** ****** ****** ****** ****** ****** ****** ****** ****** ******
      ****** ****** ****** ****** ****** ****** ****** ****** ****** ******
   7  ****** ****** ****** ****** ****** ****** ****** ****** ****** ******
      ****** ****** ****** ****** ****** ****** ****** ****** ****** ******
      ****** ****** ****** ****** ****** ****** ****** ****** ****** ******
   8  ****** ****** ****** ****** ****** ****** ****** ****** ****** ******
      ****** ****** ****** ****** ****** ****** ****** ****** ****** ******
      ****** ****** ****** ****** ****** ****** ****** ****** ****** ******
   9  ****** ****** ****** ****** ****** ****** ****** ****** ****** ******
      ****** ****** ****** ****** ****** ****** ****** ****** ****** ******
      ****** ****** ****** ****** ****** ****** ****** ****** ****** ******
  10  ****** ****** ****** ****** ****** ****** ****** ****** ****** ******
      ****** ****** ****** ****** ****** ****** ****** ****** ****** ******
      ****** ****** ****** ****** ****** ****** ****** ****** ****** ******
  11  ****** ****** ****** ****** ****** ****** ****** ****** ****** ******
      ****** ****** ****** ****** ****** ****** ****** ****** ****** ******
      ****** ****** ****** ****** ****** ****** ****** ****** ****** ******
  12  ****** ****** ****** ****** ****** ****** ****** ****** ****** ******
      ****** ****** ****** ****** ****** ****** ****** ****** ****** ******
      ****** ****** ****** ****** ****** ****** ****** ****** ****** ******
  13  ****** ****** ****** ****** ****** ****** ****** ****** ****** ******
      ****** ****** ****** ****** ****** ****** ****** ****** ****** ******
      ****** ****** ****** ****** ****** ****** ****** ****** ****** ******
  14  ****** ****** ****** ****** ****** ****** ****** ****** ****** ******
      ****** ****** ****** ****** ****** ****** ****** ****** ****** ******
      ****** ****** ****** ****** ****** ****** ****** ****** ****** ******
  15  ****** ****** ****** ****** ****** ****** ****** ****** ****** ******
      ****** ****** ****** ****** ****** ****** ****** ****** ****** ******
      ****** ****** ****** ****** ****** ****** ****** ****** ****** ******
  16  ****** ****** ****** ****** ****** ****** ****** ****** ****** ******
      ****** ****** ****** ****** ****** ****** ****** ****** ****** ******
      ****** ****** ****** ****** ****** ****** ****** ****** ****** ******
  17  ****** ****** ****** ****** ****** ****** ****** ****** ****** ******
      ****** ****** ****** ****** ****** ****** ****** ****** ****** ******
      ****** ****** ****** ****** ****** ****** ****** ****** ****** ******
  18  ****** ****** ****** ****** ****** ****** ****** ****** ****** ******
      ****** ****** ****** ****** ****** ****** ****** ****** ****** ******
      ****** ****** ****** ****** ****** ****** ****** ****** ****** ******
  19  ****** ****** ****** ****** ****** ****** ****** ****** ****** ******
      ****** ****** ****** ****** ****** ****** ****** ****** ****** ******
      ****** ****** ****** ****** ****** ****** ****** ****** ****** ******
  20  ****** ****** ****** ****** ****** ****** ****** ****** ****** ******
      ****** ****** ****** ****** ****** ****** ****** ****** ****** ******
      ****** ****** ****** ****** ****** ****** ****** ****** ****** ******
  21  ****** ****** ****** ****** ****** ****** ****** ****** ****** ******
      ****** ****** ****** ****** ****** ****** ****** ****** ****** ******
      ****** ****** ****** ****** ****** ****** ****** ****** ****** ******
  22  ****** ****** ****** ****** ****** ****** ****** ****** ****** ******
      ****** ****** ****** ****** ****** ****** ****** ****** ****** ******
      ****** ****** ****** ****** ****** ****** ****** ****** ****** ******
  23  ****** ****** ****** ****** ****** ****** ****** ****** ****** ******
      ****** ****** ****** ****** ****** ****** ****** ****** ****** ******
      ****** ****** ****** ****** ****** ****** ****** ****** ****** ******
  24  ****** ****** ****** ****** ****** ****** ****** ****** ****** ******
      ****** ****** ****** ****** ****** ****** ****** ****** ****** ******
      ****** ****** ****** ****** ****** ****** ****** ****** ****** ******
  25  ****** ****** ****** ****** ****** ****** ****** ****** ****** ******
      ****** ****** ****** ****** ****** ****** ****** ****** ****** ******
      ****** ****** ****** ****** ****** ****** ****** ****** ****** ******

 HEAD WILL BE SAVED ON UNIT   51 AT END OF TIME STEP    1, STRESS PERIOD    5
1
  VOLUMETRIC BUDGET FOR ENTIRE MODEL AT END OF TIME STEP    1, STRESS PERIOD   5
  ------------------------------------------------------------------------------

     CUMULATIVE VOLUMES      L**3       RATES FOR THIS TIME STEP      L**3/T
     ------------------                 ------------------------

           IN:                                      IN:
           ---                                      ---
             STORAGE =    32060682.6783               STORAGE =       19422.1332
       CONSTANT HEAD =    10907004.2237         CONSTANT HEAD =       32542.6019
               WELLS =           0.0000                 WELLS =           0.0000
            RECHARGE =    10074000.0000              RECHARGE =       13800.0000
      STREAM LEAKAGE =     5825300.4241        STREAM LEAKAGE =       18175.7076

            TOTAL IN =    58866987.3260              TOTAL IN =       83940.4428

          OUT:                                     OUT:
          ----                                     ----
             STORAGE =         737.8036               STORAGE =           0.0000
       CONSTANT HEAD =           0.0000         CONSTANT HEAD =           0.0000
               WELLS =    19328863.1438                 WELLS =       42295.1053
            RECHARGE =           0.0000              RECHARGE =           0.0000
      STREAM LEAKAGE =    39537388.6738        STREAM LEAKAGE =       41645.3406

           TOTAL OUT =    58866989.6212             TOTAL OUT =       83940.4459

            IN - OUT =          -2.2952              IN - OUT =      -3.1890E-03

 PERCENT DISCREPANCY =          -0.00     PERCENT DISCREPANCY =          -0.00






         TIME SUMMARY AT END OF TIME STEP    1 IN STRESS PERIOD    5
                    SECONDS     MINUTES      HOURS       DAYS        YEARS
                    -----------------------------------------------------------
   TIME STEP LENGTH 7.94880E+06 1.32480E+05  2208.0      92.000     0.25188    
 STRESS PERIOD TIME 7.94880E+06 1.32480E+05  2208.0      92.000     0.25188    
         TOTAL TIME 3.94848E+07 6.58080E+05  10968.      457.00      1.2512    
1
1
                            STRESS PERIOD NO.    6, LENGTH =   91.00000    
                            -----------------------------------------------

                              NUMBER OF TIME STEPS =     1

                               MULTIPLIER FOR DELT =     1.500

                            INITIAL TIME STEP SIZE =   91.00000    

 WELL NO.  LAYER   ROW   COL   STRESS RATE         
 --------------------------------------------------
      1      1     14      6       0.000    
      2      1      3      9       0.000    
      3      1     20     10       0.000    
      4      1     14     20       0.000    
      5      1     19     29     -0.1179E+05
      6      1     10     29     -0.1333E+05
      7      1     20     21      -8354.    
      8      1      8     12      -8823.    

      8 WELLS

                 RECHARGE =  2.000000E-03

 REUSING STREAM SEGMENT DATA FROM LAST STRESS PERIOD
 
 SOLVING FOR HEAD 


     7 CALLS TO PCG ROUTINE FOR TIME STEP   1 IN STRESS PERIOD    6
    26 TOTAL ITERATIONS

 OUTPUT CONTROL FOR STRESS PERIOD    6   TIME STEP    1
    SAVE BUDGET
    SAVE HEAD FOR ALL LAYERS
    PRINT HEAD FOR ALL LAYERS
 UBDSV2 SAVING "STREAMFLOW OUT  " ON UNIT  50 AT TIME STEP  1, STRESS PERIOD   6



 STREAM LISTING     PERIOD      6   STEP        1

 LAYER ROW COL. STREAM  RCH.  FLOW INTO     FLOW TO   FLOW OUT OF   OVRLND.     DIRECT     STREAM       STREAM     STREAM     STREAM   STREAMBED  STREAMBED
                SEG.NO.  NO.  STRM. RCH.    AQUIFER    STRM. RCH.    RUNOFF     PRECIP       ET          HEAD       DEPTH      WIDTH   CONDCTNC.   GRADIENT

   1   13    1     1     1    1.0000E+05 -2.2138E+03   1.0221E+05  0.000E+00  0.000E+00  0.000E+00  4.84070E+01  1.456E-01  2.000E+01  2.000E+04 -1.107E-01
   1   13    2     1     2    1.0221E+05 -3.2397E+03   1.0545E+05  0.000E+00  0.000E+00  0.000E+00  4.79320E+01  1.480E-01  2.000E+01  2.000E+04 -1.620E-01
   1   14    3     1     3    1.0545E+05 -6.3686E+02   1.0609E+05  0.000E+00  0.000E+00  0.000E+00  4.74564E+01  1.496E-01  2.000E+01  2.000E+04 -3.184E-02
   1   15    4     1     4    1.0609E+05 -6.1982E+02   1.0671E+05  0.000E+00  0.000E+00  0.000E+00  4.69797E+01  1.501E-01  2.000E+01  2.000E+04 -3.099E-02
   1   16    5     1     5    1.0671E+05 -2.1740E+03   1.0888E+05  0.000E+00  0.000E+00  0.000E+00  4.65036E+01  1.513E-01  2.000E+01  2.000E+04 -1.087E-01
   1   16    6     1     6    1.0888E+05 -1.3508E+03   1.1024E+05  0.000E+00  0.000E+00  0.000E+00  4.60278E+01  1.528E-01  2.000E+01  2.000E+04 -6.754E-02
   1   16    7     1     7    1.1024E+05 -1.3094E+03   1.1154E+05  0.000E+00  0.000E+00  0.000E+00  4.55516E+01  1.539E-01  2.000E+01  2.000E+04 -6.547E-02
   1   16    8     1     8    1.1154E+05 -1.2857E+03   1.1283E+05  0.000E+00  0.000E+00  0.000E+00  4.50754E+01  1.550E-01  2.000E+01  2.000E+04 -6.428E-02
   1   16    9     1     9    1.1283E+05 -1.2537E+03   1.1408E+05  0.000E+00  0.000E+00  0.000E+00  4.45992E+01  1.560E-01  2.000E+01  2.000E+04 -6.268E-02
   1   16   10     1    10    1.1408E+05 -1.2094E+03   1.1529E+05  0.000E+00  0.000E+00  0.000E+00  4.41230E+01  1.570E-01  2.000E+01  2.000E+04 -6.047E-02
   1   16   11     1    11    1.1529E+05 -1.1649E+03   1.1646E+05  0.000E+00  0.000E+00  0.000E+00  4.36467E+01  1.580E-01  2.000E+01  2.000E+04 -5.825E-02
   1   16   12     1    12    1.1646E+05 -1.7927E+03   1.1825E+05  0.000E+00  0.000E+00  0.000E+00  4.31706E+01  1.592E-01  2.000E+01  2.000E+04 -8.964E-02
   1   15   13     1    13    1.1825E+05 -1.5628E+03   1.1981E+05  0.000E+00  0.000E+00  0.000E+00  4.26947E+01  1.606E-01  2.000E+01  2.000E+04 -7.814E-02
   1   14   14     1    14    1.1981E+05 -1.6768E+03   1.2149E+05  0.000E+00  0.000E+00  0.000E+00  4.22187E+01  1.619E-01  2.000E+01  2.000E+04 -8.384E-02
   1   13   15     1    15    1.2149E+05 -1.8691E+03   1.2336E+05  0.000E+00  0.000E+00  0.000E+00  4.17429E+01  1.633E-01  2.000E+01  2.000E+04 -9.346E-02
   1   12   16     1    16    1.2336E+05 -2.4549E+03   1.2581E+05  0.000E+00  0.000E+00  0.000E+00  4.12673E+01  1.650E-01  2.000E+01  2.000E+04 -1.227E-01
   1   12   17     1    17    1.2581E+05 -1.7742E+03   1.2759E+05  0.000E+00  0.000E+00  0.000E+00  4.07917E+01  1.667E-01  2.000E+01  2.000E+04 -8.871E-02
   1   12   18     1    18    1.2759E+05 -1.7756E+03   1.2936E+05  0.000E+00  0.000E+00  0.000E+00  4.03158E+01  1.681E-01  2.000E+01  2.000E+04 -8.878E-02
   1   12   19     1    19    1.2936E+05 -2.4566E+03   1.3182E+05  0.000E+00  0.000E+00  0.000E+00  3.98402E+01  1.698E-01  2.000E+01  2.000E+04 -1.228E-01
   1   13   20     1    20    1.3182E+05 -1.7317E+03   1.3355E+05  0.000E+00  0.000E+00  0.000E+00  3.93646E+01  1.714E-01  2.000E+01  2.000E+04 -8.658E-02
   1   14   21     1    21    1.3355E+05 -1.0843E+03   1.3464E+05  0.000E+00  0.000E+00  0.000E+00  3.88884E+01  1.725E-01  2.000E+01  2.000E+04 -5.422E-02
   1   14   22     1    22    1.3464E+05  5.0882E+03   1.2955E+05  0.000E+00  0.000E+00  0.000E+00  3.84096E+01  1.709E-01  2.000E+01  2.000E+04  2.544E-01
   1    9   30     2     1    5.0000E+04  1.6086E+03   4.8391E+04  0.000E+00  0.000E+00  0.000E+00  4.02397E+01  1.147E-01  2.000E+01  2.000E+04  8.043E-02
   1    9   29     2     2    4.8391E+04  3.6390E+03   4.4752E+04  0.000E+00  0.000E+00  0.000E+00  3.99860E+01  1.110E-01  2.000E+01  2.000E+04  1.820E-01
   1    9   28     2     3    4.4752E+04  4.2897E+02   4.4323E+04  0.000E+00  0.000E+00  0.000E+00  3.97331E+01  1.081E-01  2.000E+01  2.000E+04  2.145E-02
   1    9   27     2     4    4.4323E+04 -2.1130E+03   4.6436E+04  0.000E+00  0.000E+00  0.000E+00  3.94843E+01  1.093E-01  2.000E+01  2.000E+04 -1.056E-01
   1   10   26     2     5    4.6436E+04 -9.9747E+02   4.7434E+04  0.000E+00  0.000E+00  0.000E+00  3.92366E+01  1.116E-01  2.000E+01  2.000E+04 -4.987E-02
   1   11   25     2     6    4.7434E+04 -1.2993E+03   4.8733E+04  0.000E+00  0.000E+00  0.000E+00  3.89882E+01  1.132E-01  2.000E+01  2.000E+04 -6.497E-02
   1   12   24     2     7    4.8733E+04 -1.6834E+03   5.0417E+04  0.000E+00  0.000E+00  0.000E+00  3.87403E+01  1.153E-01  2.000E+01  2.000E+04 -8.417E-02
   1   13   23     2     8    5.0417E+04 -3.6023E+02   5.0777E+04  0.000E+00  0.000E+00  0.000E+00  3.84917E+01  1.167E-01  2.000E+01  2.000E+04 -1.801E-02
   1   14   22     2     9    5.0777E+04  1.7117E+03   4.9065E+04  0.000E+00  0.000E+00  0.000E+00  3.82408E+01  1.158E-01  2.000E+01  2.000E+04  8.559E-02
   1   14   22     3     1    1.7861E+05 -8.5437E+03   1.8716E+05  0.000E+00  0.000E+00  0.000E+00  3.77280E+01  1.724E-01  2.000E+01  2.000E+04 -4.272E-01
   1   15   23     3     2    1.8716E+05 -4.3473E+02   1.8759E+05  0.000E+00  0.000E+00  0.000E+00  3.68416E+01  1.750E-01  2.000E+01  2.000E+04 -2.174E-02
   1   15   24     3     3    1.8759E+05 -2.9623E+02   1.8789E+05  0.000E+00  0.000E+00  0.000E+00  3.59529E+01  1.752E-01  2.000E+01  2.000E+04 -1.481E-02
   1   15   25     3     4    1.8789E+05 -3.0001E+02   1.8819E+05  0.000E+00  0.000E+00  0.000E+00  3.50642E+01  1.753E-01  2.000E+01  2.000E+04 -1.500E-02
   1   15   26     3     5    1.8819E+05 -3.3018E+02   1.8852E+05  0.000E+00  0.000E+00  0.000E+00  3.41755E+01  1.755E-01  2.000E+01  2.000E+04 -1.651E-02
   1   16   27     3     6    1.8852E+05 -2.8678E+02   1.8881E+05  0.000E+00  0.000E+00  0.000E+00  3.32868E+01  1.757E-01  2.000E+01  2.000E+04 -1.434E-02
   1   17   28     3     7    1.8881E+05 -4.5531E+01   1.8885E+05  0.000E+00  0.000E+00  0.000E+00  3.23980E+01  1.758E-01  2.000E+01  2.000E+04 -2.277E-03
   1   18   29     3     8    1.8885E+05  3.3547E+03   1.8550E+05  0.000E+00  0.000E+00  0.000E+00  3.15082E+01  1.748E-01  2.000E+01  2.000E+04  1.677E-01
   1   18   30     3     9    1.8550E+05 -1.2859E+02   1.8562E+05  0.000E+00  0.000E+00  0.000E+00  3.06184E+01  1.739E-01  2.000E+01  2.000E+04 -6.430E-03



1
              HEAD IN LAYER   1 AT END OF TIME STEP   1 IN STRESS PERIOD    6
  ---------------------------------------------------------------------------

          1      2      3      4      5      6      7      8      9     10
         11     12     13     14     15     16     17     18     19     20
         21     22     23     24     25     26     27     28     29     30
 .........................................................................
   1  ****** ****** ****** ****** ****** ****** ****** ****** ****** ******
      ****** ****** ****** ****** ****** ****** ****** ****** ****** ******
      ****** ****** ****** ****** ****** ****** ****** ****** ****** ******
   2  ****** ****** ****** ****** ****** ****** ****** ****** ****** ******
      ****** ****** ****** ****** ****** ****** ****** ****** ****** ******
      ****** ****** ****** ****** ****** ****** ****** ****** ****** ******
   3  ****** ****** ****** ****** ****** ****** ****** ****** ****** ******
      ****** ****** ****** ****** ****** ****** ****** ****** ****** ******
      ****** ****** ****** ****** ****** ****** ****** ****** ****** ******
   4  ****** ****** ****** ****** ****** ****** ****** ****** ****** ******
      ****** ****** ****** ****** ****** ****** ****** ****** ****** ******
      ****** ****** ****** ****** ****** ****** ****** ****** ****** ******
   5  ****** ****** ****** ****** ****** ****** ****** ****** ****** ******
      ****** ****** ****** ****** ****** ****** ****** ****** ****** ******
      ****** ****** ****** ****** ****** ****** ****** ****** ****** ******
   6  ****** ****** ****** ****** ****** ****** ****** ****** ****** ******
      ****** ****** ****** ****** ****** ****** ****** ****** ****** ******
      ****** ****** ****** ****** ****** ****** ****** ****** ****** ******
   7  ****** ****** ****** ****** ****** ****** ****** ****** ****** ******
      ****** ****** ****** ****** ****** ****** ****** ****** ****** ******
      ****** ****** ****** ****** ****** ****** ****** ****** ****** ******
   8  ****** ****** ****** ****** ****** ****** ****** ****** ****** ******
      ****** ****** ****** ****** ****** ****** ****** ****** ****** ******
      ****** ****** ****** ****** ****** ****** ****** ****** ****** ******
   9  ****** ****** ****** ****** ****** ****** ****** ****** ****** ******
      ****** ****** ****** ****** ****** ****** ****** ****** ****** ******
      ****** ****** ****** ****** ****** ****** ****** ****** ****** ******
  10  ****** ****** ****** ****** ****** ****** ****** ****** ****** ******
      ****** ****** ****** ****** ****** ****** ****** ****** ****** ******
      ****** ****** ****** ****** ****** ****** ****** ****** ****** ******
  11  ****** ****** ****** ****** ****** ****** ****** ****** ****** ******
      ****** ****** ****** ****** ****** ****** ****** ****** ****** ******
      ****** ****** ****** ****** ****** ****** ****** ****** ****** ******
  12  ****** ****** ****** ****** ****** ****** ****** ****** ****** ******
      ****** ****** ****** ****** ****** ****** ****** ****** ****** ******
      ****** ****** ****** ****** ****** ****** ****** ****** ****** ******
  13  ****** ****** ****** ****** ****** ****** ****** ****** ****** ******
      ****** ****** ****** ****** ****** ****** ****** ****** ****** ******
      ****** ****** ****** ****** ****** ****** ****** ****** ****** ******
  14  ****** ****** ****** ****** ****** ****** ****** ****** ****** ******
      ****** ****** ****** ****** ****** ****** ****** ****** ****** ******
      ****** ****** ****** ****** ****** ****** ****** ****** ****** ******
  15  ****** ****** ****** ****** ****** ****** ****** ****** ****** ******
      ****** ****** ****** ****** ****** ****** ****** ****** ****** ******
      ****** ****** ****** ****** ****** ****** ****** ****** ****** ******
  16  ****** ****** ****** ****** ****** ****** ****** ****** ****** ******
      ****** ****** ****** ****** ****** ****** ****** ****** ****** ******
      ****** ****** ****** ****** ****** ****** ****** ****** ****** ******
  17  ****** ****** ****** ****** ****** ****** ****** ****** ****** ******
      ****** ****** ****** ****** ****** ****** ****** ****** ****** ******
      ****** ****** ****** ****** ****** ****** ****** ****** ****** ******
  18  ****** ****** ****** ****** ****** ****** ****** ****** ****** ******
      ****** ****** ****** ****** ****** ****** ****** ****** ****** ******
      ****** ****** ****** ****** ****** ****** ****** ****** ****** ******
  19  ****** ****** ****** ****** ****** ****** ****** ****** ****** ******
      ****** ****** ****** ****** ****** ****** ****** ****** ****** ******
      ****** ****** ****** ****** ****** ****** ****** ****** ****** ******
  20  ****** ****** ****** ****** ****** ****** ****** ****** ****** ******
      ****** ****** ****** ****** ****** ****** ****** ****** ****** ******
      ****** ****** ****** ****** ****** ****** ****** ****** ****** ******
  21  ****** ****** ****** ****** ****** ****** ****** ****** ****** ******
      ****** ****** ****** ****** ****** ****** ****** ****** ****** ******
      ****** ****** ****** ****** ****** ****** ****** ****** ****** ******
  22  ****** ****** ****** ****** ****** ****** ****** ****** ****** ******
      ****** ****** ****** ****** ****** ****** ****** ****** ****** ******
      ****** ****** ****** ****** ****** ****** ****** ****** ****** ******
  23  ****** ****** ****** ****** ****** ****** ****** ****** ****** ******
      ****** ****** ****** ****** ****** ****** ****** ****** ****** ******
      ****** ****** ****** ****** ****** ****** ****** ****** ****** ******
  24  ****** ****** ****** ****** ****** ****** ****** ****** ****** ******
      ****** ****** ****** ****** ****** ****** ****** ****** ****** ******
      ****** ****** ****** ****** ****** ****** ****** ****** ****** ******
  25  ****** ****** ****** ****** ****** ****** ****** ****** ****** ******
      ****** ****** ****** ****** ****** ****** ****** ****** ****** ******
      ****** ****** ****** ****** ****** ****** ****** ****** ****** ******

 HEAD WILL BE SAVED ON UNIT   51 AT END OF TIME STEP    1, STRESS PERIOD    6
1
  VOLUMETRIC BUDGET FOR ENTIRE MODEL AT END OF TIME STEP    1, STRESS PERIOD   6
  ------------------------------------------------------------------------------

     CUMULATIVE VOLUMES      L**3       RATES FOR THIS TIME STEP      L**3/T
     ------------------                 ------------------------

           IN:                                      IN:
           ---                                      ---
             STORAGE =    32061752.9227               STORAGE =          11.7609
       CONSTANT HEAD =    13704055.1377         CONSTANT HEAD =       30736.8232
               WELLS =           0.0000                 WELLS =           0.0000
            RECHARGE =    15097200.0000              RECHARGE =       55200.0000
      STREAM LEAKAGE =     7265946.5105        STREAM LEAKAGE =       15831.2757

            TOTAL IN =    68128954.5709              TOTAL IN =      101779.8598

          OUT:                                     OUT:
          ----                                     ----
             STORAGE =      731344.5300               STORAGE =        8028.6453
       CONSTANT HEAD =           0.0000         CONSTANT HEAD =           0.0000
               WELLS =    23177717.7304                 WELLS =       42295.1053
            RECHARGE =           0.0000              RECHARGE =           0.0000
      STREAM LEAKAGE =    44219894.3489        STREAM LEAKAGE =       51456.1063

           TOTAL OUT =    68128956.6094             TOTAL OUT =      101779.8570

            IN - OUT =          -2.0384              IN - OUT =       2.8218E-03

 PERCENT DISCREPANCY =          -0.00     PERCENT DISCREPANCY =           0.00






         TIME SUMMARY AT END OF TIME STEP    1 IN STRESS PERIOD    6
                    SECONDS     MINUTES      HOURS       DAYS        YEARS
                    -----------------------------------------------------------
   TIME STEP LENGTH 7.86240E+06 1.31040E+05  2184.0      91.000     0.24914    
 STRESS PERIOD TIME 7.86240E+06 1.31040E+05  2184.0      91.000     0.24914    
         TOTAL TIME 4.73472E+07 7.89120E+05  13152.      548.00      1.5003    
1
1
                            STRESS PERIOD NO.    7, LENGTH =   91.00000    
                            -----------------------------------------------

                              NUMBER OF TIME STEPS =     1

                               MULTIPLIER FOR DELT =     1.500

                            INITIAL TIME STEP SIZE =   91.00000    

 WELL NO.  LAYER   ROW   COL   STRESS RATE         
 --------------------------------------------------
      1      1     14      6       0.000    
      2      1      3      9       0.000    
      3      1     20     10       0.000    
      4      1     14     20       0.000    
      5      1     19     29     -0.1179E+05
      6      1     10     29     -0.1333E+05
      7      1     20     21      -8354.    
      8      1      8     12      -8823.    

      8 WELLS

                 RECHARGE =   0.00000    

 REUSING STREAM SEGMENT DATA FROM LAST STRESS PERIOD
 
 SOLVING FOR HEAD 


     7 CALLS TO PCG ROUTINE FOR TIME STEP   1 IN STRESS PERIOD    7
    26 TOTAL ITERATIONS

 OUTPUT CONTROL FOR STRESS PERIOD    7   TIME STEP    1
    SAVE BUDGET
    SAVE HEAD FOR ALL LAYERS
    PRINT HEAD FOR ALL LAYERS
 UBDSV2 SAVING "STREAMFLOW OUT  " ON UNIT  50 AT TIME STEP  1, STRESS PERIOD   7



 STREAM LISTING     PERIOD      7   STEP        1

 LAYER ROW COL. STREAM  RCH.  FLOW INTO     FLOW TO   FLOW OUT OF   OVRLND.     DIRECT     STREAM       STREAM     STREAM     STREAM   STREAMBED  STREAMBED
                SEG.NO.  NO.  STRM. RCH.    AQUIFER    STRM. RCH.    RUNOFF     PRECIP       ET          HEAD       DEPTH      WIDTH   CONDCTNC.   GRADIENT

   1   13    1     1     1    1.0000E+05 -1.5337E+03   1.0153E+05  0.000E+00  0.000E+00  0.000E+00  4.84067E+01  1.453E-01  2.000E+01  2.000E+04 -7.668E-02
   1   13    2     1     2    1.0153E+05 -2.4780E+03   1.0401E+05  0.000E+00  0.000E+00  0.000E+00  4.79311E+01  1.470E-01  2.000E+01  2.000E+04 -1.239E-01
   1   14    3     1     3    1.0401E+05 -3.8251E+02   1.0439E+05  0.000E+00  0.000E+00  0.000E+00  4.74551E+01  1.483E-01  2.000E+01  2.000E+04 -1.913E-02
   1   15    4     1     4    1.0439E+05 -3.5512E+02   1.0475E+05  0.000E+00  0.000E+00  0.000E+00  4.69781E+01  1.486E-01  2.000E+01  2.000E+04 -1.776E-02
   1   16    5     1     5    1.0475E+05 -1.4177E+03   1.0617E+05  0.000E+00  0.000E+00  0.000E+00  4.65016E+01  1.493E-01  2.000E+01  2.000E+04 -7.089E-02
   1   16    6     1     6    1.0617E+05 -8.9369E+02   1.0706E+05  0.000E+00  0.000E+00  0.000E+00  4.60253E+01  1.503E-01  2.000E+01  2.000E+04 -4.468E-02
   1   16    7     1     7    1.0706E+05 -8.7026E+02   1.0793E+05  0.000E+00  0.000E+00  0.000E+00  4.55488E+01  1.511E-01  2.000E+01  2.000E+04 -4.351E-02
   1   16    8     1     8    1.0793E+05 -8.5228E+02   1.0878E+05  0.000E+00  0.000E+00  0.000E+00  4.50722E+01  1.518E-01  2.000E+01  2.000E+04 -4.261E-02
   1   16    9     1     9    1.0878E+05 -8.2332E+02   1.0961E+05  0.000E+00  0.000E+00  0.000E+00  4.45957E+01  1.525E-01  2.000E+01  2.000E+04 -4.117E-02
   1   16   10     1    10    1.0961E+05 -7.8144E+02   1.1039E+05  0.000E+00  0.000E+00  0.000E+00  4.41191E+01  1.532E-01  2.000E+01  2.000E+04 -3.907E-02
   1   16   11     1    11    1.1039E+05 -7.3555E+02   1.1112E+05  0.000E+00  0.000E+00  0.000E+00  4.36424E+01  1.538E-01  2.000E+01  2.000E+04 -3.678E-02
   1   16   12     1    12    1.1112E+05 -1.0690E+03   1.1219E+05  0.000E+00  0.000E+00  0.000E+00  4.31659E+01  1.545E-01  2.000E+01  2.000E+04 -5.345E-02
   1   15   13     1    13    1.1219E+05 -7.8537E+02   1.1298E+05  0.000E+00  0.000E+00  0.000E+00  4.26894E+01  1.553E-01  2.000E+01  2.000E+04 -3.927E-02
   1   14   14     1    14    1.1298E+05 -8.7024E+02   1.1385E+05  0.000E+00  0.000E+00  0.000E+00  4.22128E+01  1.560E-01  2.000E+01  2.000E+04 -4.351E-02
   1   13   15     1    15    1.1385E+05 -1.0599E+03   1.1491E+05  0.000E+00  0.000E+00  0.000E+00  4.17363E+01  1.568E-01  2.000E+01  2.000E+04 -5.300E-02
   1   12   16     1    16    1.1491E+05 -1.6512E+03   1.1656E+05  0.000E+00  0.000E+00  0.000E+00  4.12602E+01  1.579E-01  2.000E+01  2.000E+04 -8.256E-02
   1   12   17     1    17    1.1656E+05 -1.1915E+03   1.1775E+05  0.000E+00  0.000E+00  0.000E+00  4.07841E+01  1.591E-01  2.000E+01  2.000E+04 -5.958E-02
   1   12   18     1    18    1.1775E+05 -1.2078E+03   1.1896E+05  0.000E+00  0.000E+00  0.000E+00  4.03078E+01  1.600E-01  2.000E+01  2.000E+04 -6.039E-02
   1   12   19     1    19    1.1896E+05 -1.7643E+03   1.2072E+05  0.000E+00  0.000E+00  0.000E+00  3.98317E+01  1.612E-01  2.000E+01  2.000E+04 -8.821E-02
   1   13   20     1    20    1.2072E+05 -1.0567E+03   1.2178E+05  0.000E+00  0.000E+00  0.000E+00  3.93556E+01  1.624E-01  2.000E+01  2.000E+04 -5.283E-02
   1   14   21     1    21    1.2178E+05 -4.1459E+02   1.2219E+05  0.000E+00  0.000E+00  0.000E+00  3.88789E+01  1.630E-01  2.000E+01  2.000E+04 -2.073E-02
   1   14   22     1    22    1.2219E+05  5.2514E+03   1.1694E+05  0.000E+00  0.000E+00  0.000E+00  3.83997E+01  1.610E-01  2.000E+01  2.000E+04  2.626E-01
   1    9   30     2     1    5.0000E+04  2.1225E+03   4.7878E+04  0.000E+00  0.000E+00  0.000E+00  4.02394E+01  1.144E-01  2.000E+01  2.000E+04  1.061E-01
   1    9   29     2     2    4.7878E+04  4.1511E+03   4.3726E+04  0.000E+00  0.000E+00  0.000E+00  3.99849E+01  1.099E-01  2.000E+01  2.000E+04  2.076E-01
   1    9   28     2     3    4.3726E+04  9.4251E+02   4.2784E+04  0.000E+00  0.000E+00  0.000E+00  3.97312E+01  1.062E-01  2.000E+01  2.000E+04  4.713E-02
   1    9   27     2     4    4.2784E+04 -1.4146E+03   4.4198E+04  0.000E+00  0.000E+00  0.000E+00  3.94816E+01  1.066E-01  2.000E+01  2.000E+04 -7.073E-02
   1   10   26     2     5    4.4198E+04 -2.9705E+02   4.4496E+04  0.000E+00  0.000E+00  0.000E+00  3.92328E+01  1.078E-01  2.000E+01  2.000E+04 -1.485E-02
   1   11   25     2     6    4.4496E+04 -6.2749E+02   4.5123E+04  0.000E+00  0.000E+00  0.000E+00  3.89835E+01  1.085E-01  2.000E+01  2.000E+04 -3.137E-02
   1   12   24     2     7    4.5123E+04 -1.0706E+03   4.6194E+04  0.000E+00  0.000E+00  0.000E+00  3.87347E+01  1.097E-01  2.000E+01  2.000E+04 -5.353E-02
   1   13   23     2     8    4.6194E+04 -1.6816E+02   4.6362E+04  0.000E+00  0.000E+00  0.000E+00  3.84856E+01  1.106E-01  2.000E+01  2.000E+04 -8.408E-03
   1   14   22     2     9    4.6362E+04  1.9448E+03   4.4417E+04  0.000E+00  0.000E+00  0.000E+00  3.82343E+01  1.093E-01  2.000E+01  2.000E+04  9.724E-02
   1   14   22     3     1    1.6136E+05 -8.3822E+03   1.6974E+05  0.000E+00  0.000E+00  0.000E+00  3.77180E+01  1.624E-01  2.000E+01  2.000E+04 -4.191E-01
   1   15   23     3     2    1.6974E+05 -2.2623E+02   1.6997E+05  0.000E+00  0.000E+00  0.000E+00  3.68316E+01  1.649E-01  2.000E+01  2.000E+04 -1.131E-02
   1   15   24     3     3    1.6997E+05 -1.2129E+02   1.7009E+05  0.000E+00  0.000E+00  0.000E+00  3.59428E+01  1.650E-01  2.000E+01  2.000E+04 -6.065E-03
   1   15   25     3     4    1.7009E+05 -1.2210E+02   1.7021E+05  0.000E+00  0.000E+00  0.000E+00  3.50540E+01  1.651E-01  2.000E+01  2.000E+04 -6.105E-03
   1   15   26     3     5    1.7021E+05 -1.2816E+02   1.7034E+05  0.000E+00  0.000E+00  0.000E+00  3.41652E+01  1.652E-01  2.000E+01  2.000E+04 -6.408E-03
   1   16   27     3     6    1.7034E+05 -5.2941E+01   1.7039E+05  0.000E+00  0.000E+00  0.000E+00  3.32764E+01  1.652E-01  2.000E+01  2.000E+04 -2.647E-03
   1   17   28     3     7    1.7039E+05  6.0132E+02   1.6979E+05  0.000E+00  0.000E+00  0.000E+00  3.23873E+01  1.651E-01  2.000E+01  2.000E+04  3.007E-02
   1   18   29     3     8    1.6979E+05  4.0522E+03   1.6574E+05  0.000E+00  0.000E+00  0.000E+00  3.14971E+01  1.637E-01  2.000E+01  2.000E+04  2.026E-01
   1   18   30     3     9    1.6574E+05  4.0675E+02   1.6533E+05  0.000E+00  0.000E+00  0.000E+00  3.06069E+01  1.624E-01  2.000E+01  2.000E+04  2.034E-02



1
              HEAD IN LAYER   1 AT END OF TIME STEP   1 IN STRESS PERIOD    7
  ---------------------------------------------------------------------------

          1      2      3      4      5      6      7      8      9     10
         11     12     13     14     15     16     17     18     19     20
         21     22     23     24     25     26     27     28     29     30
 .........................................................................
   1  ****** ****** ****** ****** ****** ****** ****** ****** ****** ******
      ****** ****** ****** ****** ****** ****** ****** ****** ****** ******
      ****** ****** ****** ****** ****** ****** ****** ****** ****** ******
   2  ****** ****** ****** ****** ****** ****** ****** ****** ****** ******
      ****** ****** ****** ****** ****** ****** ****** ****** ****** ******
      ****** ****** ****** ****** ****** ****** ****** ****** ****** ******
   3  ****** ****** ****** ****** ****** ****** ****** ****** ****** ******
      ****** ****** ****** ****** ****** ****** ****** ****** ****** ******
      ****** ****** ****** ****** ****** ****** ****** ****** ****** ******
   4  ****** ****** ****** ****** ****** ****** ****** ****** ****** ******
      ****** ****** ****** ****** ****** ****** ****** ****** ****** ******
      ****** ****** ****** ****** ****** ****** ****** ****** ****** ******
   5  ****** ****** ****** ****** ****** ****** ****** ****** ****** ******
      ****** ****** ****** ****** ****** ****** ****** ****** ****** ******
      ****** ****** ****** ****** ****** ****** ****** ****** ****** ******
   6  ****** ****** ****** ****** ****** ****** ****** ****** ****** ******
      ****** ****** ****** ****** ****** ****** ****** ****** ****** ******
      ****** ****** ****** ****** ****** ****** ****** ****** ****** ******
   7  ****** ****** ****** ****** ****** ****** ****** ****** ****** ******
      ****** ****** ****** ****** ****** ****** ****** ****** ****** ******
      ****** ****** ****** ****** ****** ****** ****** ****** ****** ******
   8  ****** ****** ****** ****** ****** ****** ****** ****** ****** ******
      ****** ****** ****** ****** ****** ****** ****** ****** ****** ******
      ****** ****** ****** ****** ****** ****** ****** ****** ****** ******
   9  ****** ****** ****** ****** ****** ****** ****** ****** ****** ******
      ****** ****** ****** ****** ****** ****** ****** ****** ****** ******
      ****** ****** ****** ****** ****** ****** ****** ****** ****** ******
  10  ****** ****** ****** ****** ****** ****** ****** ****** ****** ******
      ****** ****** ****** ****** ****** ****** ****** ****** ****** ******
      ****** ****** ****** ****** ****** ****** ****** ****** ****** ******
  11  ****** ****** ****** ****** ****** ****** ****** ****** ****** ******
      ****** ****** ****** ****** ****** ****** ****** ****** ****** ******
      ****** ****** ****** ****** ****** ****** ****** ****** ****** ******
  12  ****** ****** ****** ****** ****** ****** ****** ****** ****** ******
      ****** ****** ****** ****** ****** ****** ****** ****** ****** ******
      ****** ****** ****** ****** ****** ****** ****** ****** ****** ******
  13  ****** ****** ****** ****** ****** ****** ****** ****** ****** ******
      ****** ****** ****** ****** ****** ****** ****** ****** ****** ******
      ****** ****** ****** ****** ****** ****** ****** ****** ****** ******
  14  ****** ****** ****** ****** ****** ****** ****** ****** ****** ******
      ****** ****** ****** ****** ****** ****** ****** ****** ****** ******
      ****** ****** ****** ****** ****** ****** ****** ****** ****** ******
  15  ****** ****** ****** ****** ****** ****** ****** ****** ****** ******
      ****** ****** ****** ****** ****** ****** ****** ****** ****** ******
      ****** ****** ****** ****** ****** ****** ****** ****** ****** ******
  16  ****** ****** ****** ****** ****** ****** ****** ****** ****** ******
      ****** ****** ****** ****** ****** ****** ****** ****** ****** ******
      ****** ****** ****** ****** ****** ****** ****** ****** ****** ******
  17  ****** ****** ****** ****** ****** ****** ****** ****** ****** ******
      ****** ****** ****** ****** ****** ****** ****** ****** ****** ******
      ****** ****** ****** ****** ****** ****** ****** ****** ****** ******
  18  ****** ****** ****** ****** ****** ****** ****** ****** ****** ******
      ****** ****** ****** ****** ****** ****** ****** ****** ****** ******
      ****** ****** ****** ****** ****** ****** ****** ****** ****** ******
  19  ****** ****** ****** ****** ****** ****** ****** ****** ****** ******
      ****** ****** ****** ****** ****** ****** ****** ****** ****** ******
      ****** ****** ****** ****** ****** ****** ****** ****** ****** ******
  20  ****** ****** ****** ****** ****** ****** ****** ****** ****** ******
      ****** ****** ****** ****** ****** ****** ****** ****** ****** ******
      ****** ****** ****** ****** ****** ****** ****** ****** ****** ******
  21  ****** ****** ****** ****** ****** ****** ****** ****** ****** ******
      ****** ****** ****** ****** ****** ****** ****** ****** ****** ******
      ****** ****** ****** ****** ****** ****** ****** ****** ****** ******
  22  ****** ****** ****** ****** ****** ****** ****** ****** ****** ******
      ****** ****** ****** ****** ****** ****** ****** ****** ****** ******
      ****** ****** ****** ****** ****** ****** ****** ****** ****** ******
  23  ****** ****** ****** ****** ****** ****** ****** ****** ****** ******
      ****** ****** ****** ****** ****** ****** ****** ****** ****** ******
      ****** ****** ****** ****** ****** ****** ****** ****** ****** ******
  24  ****** ****** ****** ****** ****** ****** ****** ****** ****** ******
      ****** ****** ****** ****** ****** ****** ****** ****** ****** ******
      ****** ****** ****** ****** ****** ****** ****** ****** ****** ******
  25  ****** ****** ****** ****** ****** ****** ****** ****** ****** ******
      ****** ****** ****** ****** ****** ****** ****** ****** ****** ******
      ****** ****** ****** ****** ****** ****** ****** ****** ****** ******

 HEAD WILL BE SAVED ON UNIT   51 AT END OF TIME STEP    1, STRESS PERIOD    7
1
  VOLUMETRIC BUDGET FOR ENTIRE MODEL AT END OF TIME STEP    1, STRESS PERIOD   7
  ------------------------------------------------------------------------------

     CUMULATIVE VOLUMES      L**3       RATES FOR THIS TIME STEP      L**3/T
     ------------------                 ------------------------

           IN:                                      IN:
           ---                                      ---
             STORAGE =    34145353.1181               STORAGE =       22896.7054
       CONSTANT HEAD =    16864559.2649         CONSTANT HEAD =       34730.8146
               WELLS =           0.0000                 WELLS =           0.0000
            RECHARGE =    15097200.0000              RECHARGE =           0.0000
      STREAM LEAKAGE =     9037949.2768        STREAM LEAKAGE =       19472.5579

            TOTAL IN =    75145061.6598              TOTAL IN =       77100.0779

          OUT:                                     OUT:
          ----                                     ----
             STORAGE =      731344.5300               STORAGE =           0.0000
       CONSTANT HEAD =           0.0000         CONSTANT HEAD =           0.0000
               WELLS =    27026572.3171                 WELLS =       42295.1053
            RECHARGE =           0.0000              RECHARGE =           0.0000
      STREAM LEAKAGE =    47387147.3466        STREAM LEAKAGE =       34804.9780

           TOTAL OUT =    75145064.1936             TOTAL OUT =       77100.0833

            IN - OUT =          -2.5338              IN - OUT =      -5.4436E-03

 PERCENT DISCREPANCY =          -0.00     PERCENT DISCREPANCY =          -0.00






         TIME SUMMARY AT END OF TIME STEP    1 IN STRESS PERIOD    7
                    SECONDS     MINUTES      HOURS       DAYS        YEARS
                    -----------------------------------------------------------
   TIME STEP LENGTH 7.86240E+06 1.31040E+05  2184.0      91.000     0.24914    
 STRESS PERIOD TIME 7.86240E+06 1.31040E+05  2184.0      91.000     0.24914    
         TOTAL TIME 5.52096E+07 9.20160E+05  15336.      639.00      1.7495    
1
1
                            STRESS PERIOD NO.    8, LENGTH =   91.00000    
                            -----------------------------------------------

                              NUMBER OF TIME STEPS =     1

                               MULTIPLIER FOR DELT =     1.500

                            INITIAL TIME STEP SIZE =   91.00000    

 WELL NO.  LAYER   ROW   COL   STRESS RATE         
 --------------------------------------------------
      1      1     14      6       0.000    
      2      1      3      9       0.000    
      3      1     20     10       0.000    
      4      1     14     20       0.000    
      5      1     19     29     -0.1179E+05
      6      1     10     29     -0.1333E+05
      7      1     20     21      -8354.    
      8      1      8     12      -8823.    

      8 WELLS

                 RECHARGE =  1.000000E-03

 REUSING STREAM SEGMENT DATA FROM LAST STRESS PERIOD
 
 SOLVING FOR HEAD 


     6 CALLS TO PCG ROUTINE FOR TIME STEP   1 IN STRESS PERIOD    8
    22 TOTAL ITERATIONS

 OUTPUT CONTROL FOR STRESS PERIOD    8   TIME STEP    1
    SAVE BUDGET
    SAVE HEAD FOR ALL LAYERS
    PRINT HEAD FOR ALL LAYERS
 UBDSV2 SAVING "STREAMFLOW OUT  " ON UNIT  50 AT TIME STEP  1, STRESS PERIOD   8



 STREAM LISTING     PERIOD      8   STEP        1

 LAYER ROW COL. STREAM  RCH.  FLOW INTO     FLOW TO   FLOW OUT OF   OVRLND.     DIRECT     STREAM       STREAM     STREAM     STREAM   STREAMBED  STREAMBED
                SEG.NO.  NO.  STRM. RCH.    AQUIFER    STRM. RCH.    RUNOFF     PRECIP       ET          HEAD       DEPTH      WIDTH   CONDCTNC.   GRADIENT

   1   13    1     1     1    1.0000E+05 -1.5970E+03   1.0160E+05  0.000E+00  0.000E+00  0.000E+00  4.84067E+01  1.453E-01  2.000E+01  2.000E+04 -7.985E-02
   1   13    2     1     2    1.0160E+05 -2.5392E+03   1.0414E+05  0.000E+00  0.000E+00  0.000E+00  4.79312E+01  1.471E-01  2.000E+01  2.000E+04 -1.270E-01
   1   14    3     1     3    1.0414E+05 -4.4471E+02   1.0458E+05  0.000E+00  0.000E+00  0.000E+00  4.74552E+01  1.484E-01  2.000E+01  2.000E+04 -2.224E-02
   1   15    4     1     4    1.0458E+05 -4.2226E+02   1.0500E+05  0.000E+00  0.000E+00  0.000E+00  4.69783E+01  1.488E-01  2.000E+01  2.000E+04 -2.111E-02
   1   16    5     1     5    1.0500E+05 -1.5896E+03   1.0659E+05  0.000E+00  0.000E+00  0.000E+00  4.65019E+01  1.496E-01  2.000E+01  2.000E+04 -7.948E-02
   1   16    6     1     6    1.0659E+05 -9.9867E+02   1.0759E+05  0.000E+00  0.000E+00  0.000E+00  4.60257E+01  1.507E-01  2.000E+01  2.000E+04 -4.993E-02
   1   16    7     1     7    1.0759E+05 -9.7004E+02   1.0856E+05  0.000E+00  0.000E+00  0.000E+00  4.55493E+01  1.516E-01  2.000E+01  2.000E+04 -4.850E-02
   1   16    8     1     8    1.0856E+05 -9.5113E+02   1.0951E+05  0.000E+00  0.000E+00  0.000E+00  4.50728E+01  1.524E-01  2.000E+01  2.000E+04 -4.756E-02
   1   16    9     1     9    1.0951E+05 -9.2333E+02   1.1044E+05  0.000E+00  0.000E+00  0.000E+00  4.45963E+01  1.531E-01  2.000E+01  2.000E+04 -4.617E-02
   1   16   10     1    10    1.1044E+05 -8.8404E+02   1.1132E+05  0.000E+00  0.000E+00  0.000E+00  4.41198E+01  1.539E-01  2.000E+01  2.000E+04 -4.420E-02
   1   16   11     1    11    1.1132E+05 -8.4127E+02   1.1216E+05  0.000E+00  0.000E+00  0.000E+00  4.36433E+01  1.546E-01  2.000E+01  2.000E+04 -4.206E-02
   1   16   12     1    12    1.1216E+05 -1.2256E+03   1.1339E+05  0.000E+00  0.000E+00  0.000E+00  4.31668E+01  1.555E-01  2.000E+01  2.000E+04 -6.128E-02
   1   15   13     1    13    1.1339E+05 -9.4710E+02   1.1433E+05  0.000E+00  0.000E+00  0.000E+00  4.26905E+01  1.564E-01  2.000E+01  2.000E+04 -4.735E-02
   1   14   14     1    14    1.1433E+05 -1.0237E+03   1.1536E+05  0.000E+00  0.000E+00  0.000E+00  4.22140E+01  1.572E-01  2.000E+01  2.000E+04 -5.118E-02
   1   13   15     1    15    1.1536E+05 -1.1996E+03   1.1656E+05  0.000E+00  0.000E+00  0.000E+00  4.17376E+01  1.581E-01  2.000E+01  2.000E+04 -5.998E-02
   1   12   16     1    16    1.1656E+05 -1.7515E+03   1.1831E+05  0.000E+00  0.000E+00  0.000E+00  4.12616E+01  1.593E-01  2.000E+01  2.000E+04 -8.758E-02
   1   12   17     1    17    1.1831E+05 -1.2968E+03   1.1961E+05  0.000E+00  0.000E+00  0.000E+00  4.07855E+01  1.605E-01  2.000E+01  2.000E+04 -6.484E-02
   1   12   18     1    18    1.1961E+05 -1.3207E+03   1.2093E+05  0.000E+00  0.000E+00  0.000E+00  4.03093E+01  1.616E-01  2.000E+01  2.000E+04 -6.604E-02
   1   12   19     1    19    1.2093E+05 -1.9076E+03   1.2283E+05  0.000E+00  0.000E+00  0.000E+00  3.98333E+01  1.629E-01  2.000E+01  2.000E+04 -9.538E-02
   1   13   20     1    20    1.2283E+05 -1.2306E+03   1.2406E+05  0.000E+00  0.000E+00  0.000E+00  3.93573E+01  1.641E-01  2.000E+01  2.000E+04 -6.153E-02
   1   14   21     1    21    1.2406E+05 -5.6793E+02   1.2463E+05  0.000E+00  0.000E+00  0.000E+00  3.88808E+01  1.649E-01  2.000E+01  2.000E+04 -2.840E-02
   1   14   22     1    22    1.2463E+05  5.2031E+03   1.1943E+05  0.000E+00  0.000E+00  0.000E+00  3.84016E+01  1.630E-01  2.000E+01  2.000E+04  2.602E-01
   1    9   30     2     1    5.0000E+04  1.9600E+03   4.8040E+04  0.000E+00  0.000E+00  0.000E+00  4.02395E+01  1.145E-01  2.000E+01  2.000E+04  9.800E-02
   1    9   29     2     2    4.8040E+04  3.9915E+03   4.4048E+04  0.000E+00  0.000E+00  0.000E+00  3.99853E+01  1.103E-01  2.000E+01  2.000E+04  1.996E-01
   1    9   28     2     3    4.4048E+04  7.8872E+02   4.3260E+04  0.000E+00  0.000E+00  0.000E+00  3.97318E+01  1.068E-01  2.000E+01  2.000E+04  3.944E-02
   1    9   27     2     4    4.3260E+04 -1.5902E+03   4.4850E+04  0.000E+00  0.000E+00  0.000E+00  3.94824E+01  1.074E-01  2.000E+01  2.000E+04 -7.951E-02
   1   10   26     2     5    4.4850E+04 -4.9996E+02   4.5350E+04  0.000E+00  0.000E+00  0.000E+00  3.92339E+01  1.089E-01  2.000E+01  2.000E+04 -2.500E-02
   1   11   25     2     6    4.5350E+04 -8.2888E+02   4.6179E+04  0.000E+00  0.000E+00  0.000E+00  3.89849E+01  1.099E-01  2.000E+01  2.000E+04 -4.144E-02
   1   12   24     2     7    4.6179E+04 -1.2531E+03   4.7432E+04  0.000E+00  0.000E+00  0.000E+00  3.87364E+01  1.114E-01  2.000E+01  2.000E+04 -6.266E-02
   1   13   23     2     8    4.7432E+04 -2.4202E+02   4.7674E+04  0.000E+00  0.000E+00  0.000E+00  3.84874E+01  1.124E-01  2.000E+01  2.000E+04 -1.210E-02
   1   14   22     2     9    4.7674E+04  1.8953E+03   4.5779E+04  0.000E+00  0.000E+00  0.000E+00  3.82363E+01  1.113E-01  2.000E+01  2.000E+04  9.477E-02
   1   14   22     3     1    1.6521E+05 -8.4247E+03   1.7363E+05  0.000E+00  0.000E+00  0.000E+00  3.77203E+01  1.647E-01  2.000E+01  2.000E+04 -4.212E-01
   1   15   23     3     2    1.7363E+05 -2.8914E+02   1.7392E+05  0.000E+00  0.000E+00  0.000E+00  3.68339E+01  1.672E-01  2.000E+01  2.000E+04 -1.446E-02
   1   15   24     3     3    1.7392E+05 -1.8098E+02   1.7410E+05  0.000E+00  0.000E+00  0.000E+00  3.59451E+01  1.674E-01  2.000E+01  2.000E+04 -9.049E-03
   1   15   25     3     4    1.7410E+05 -1.8358E+02   1.7429E+05  0.000E+00  0.000E+00  0.000E+00  3.50564E+01  1.675E-01  2.000E+01  2.000E+04 -9.179E-03
   1   15   26     3     5    1.7429E+05 -2.0230E+02   1.7449E+05  0.000E+00  0.000E+00  0.000E+00  3.41676E+01  1.676E-01  2.000E+01  2.000E+04 -1.012E-02
   1   16   27     3     6    1.7449E+05 -1.3384E+02   1.7462E+05  0.000E+00  0.000E+00  0.000E+00  3.32788E+01  1.677E-01  2.000E+01  2.000E+04 -6.692E-03
   1   17   28     3     7    1.7462E+05  4.0078E+02   1.7422E+05  0.000E+00  0.000E+00  0.000E+00  3.23898E+01  1.676E-01  2.000E+01  2.000E+04  2.004E-02
   1   18   29     3     8    1.7422E+05  3.8936E+03   1.7033E+05  0.000E+00  0.000E+00  0.000E+00  3.14997E+01  1.664E-01  2.000E+01  2.000E+04  1.947E-01
   1   18   30     3     9    1.7033E+05  2.6427E+02   1.7006E+05  0.000E+00  0.000E+00  0.000E+00  3.06096E+01  1.651E-01  2.000E+01  2.000E+04  1.321E-02



1
              HEAD IN LAYER   1 AT END OF TIME STEP   1 IN STRESS PERIOD    8
  ---------------------------------------------------------------------------

          1      2      3      4      5      6      7      8      9     10
         11     12     13     14     15     16     17     18     19     20
         21     22     23     24     25     26     27     28     29     30
 .........................................................................
   1  ****** ****** ****** ****** ****** ****** ****** ****** ****** ******
      ****** ****** ****** ****** ****** ****** ****** ****** ****** ******
      ****** ****** ****** ****** ****** ****** ****** ****** ****** ******
   2  ****** ****** ****** ****** ****** ****** ****** ****** ****** ******
      ****** ****** ****** ****** ****** ****** ****** ****** ****** ******
      ****** ****** ****** ****** ****** ****** ****** ****** ****** ******
   3  ****** ****** ****** ****** ****** ****** ****** ****** ****** ******
      ****** ****** ****** ****** ****** ****** ****** ****** ****** ******
      ****** ****** ****** ****** ****** ****** ****** ****** ****** ******
   4  ****** ****** ****** ****** ****** ****** ****** ****** ****** ******
      ****** ****** ****** ****** ****** ****** ****** ****** ****** ******
      ****** ****** ****** ****** ****** ****** ****** ****** ****** ******
   5  ****** ****** ****** ****** ****** ****** ****** ****** ****** ******
      ****** ****** ****** ****** ****** ****** ****** ****** ****** ******
      ****** ****** ****** ****** ****** ****** ****** ****** ****** ******
   6  ****** ****** ****** ****** ****** ****** ****** ****** ****** ******
      ****** ****** ****** ****** ****** ****** ****** ****** ****** ******
      ****** ****** ****** ****** ****** ****** ****** ****** ****** ******
   7  ****** ****** ****** ****** ****** ****** ****** ****** ****** ******
      ****** ****** ****** ****** ****** ****** ****** ****** ****** ******
      ****** ****** ****** ****** ****** ****** ****** ****** ****** ******
   8  ****** ****** ****** ****** ****** ****** ****** ****** ****** ******
      ****** ****** ****** ****** ****** ****** ****** ****** ****** ******
      ****** ****** ****** ****** ****** ****** ****** ****** ****** ******
   9  ****** ****** ****** ****** ****** ****** ****** ****** ****** ******
      ****** ****** ****** ****** ****** ****** ****** ****** ****** ******
      ****** ****** ****** ****** ****** ****** ****** ****** ****** ******
  10  ****** ****** ****** ****** ****** ****** ****** ****** ****** ******
      ****** ****** ****** ****** ****** ****** ****** ****** ****** ******
      ****** ****** ****** ****** ****** ****** ****** ****** ****** ******
  11  ****** ****** ****** ****** ****** ****** ****** ****** ****** ******
      ****** ****** ****** ****** ****** ****** ****** ****** ****** ******
      ****** ****** ****** ****** ****** ****** ****** ****** ****** ******
  12  ****** ****** ****** ****** ****** ****** ****** ****** ****** ******
      ****** ****** ****** ****** ****** ****** ****** ****** ****** ******
      ****** ****** ****** ****** ****** ****** ****** ****** ****** ******
  13  ****** ****** ****** ****** ****** ****** ****** ****** ****** ******
      ****** ****** ****** ****** ****** ****** ****** ****** ****** ******
      ****** ****** ****** ****** ****** ****** ****** ****** ****** ******
  14  ****** ****** ****** ****** ****** ****** ****** ****** ****** ******
      ****** ****** ****** ****** ****** ****** ****** ****** ****** ******
      ****** ****** ****** ****** ****** ****** ****** ****** ****** ******
  15  ****** ****** ****** ****** ****** ****** ****** ****** ****** ******
      ****** ****** ****** ****** ****** ****** ****** ****** ****** ******
      ****** ****** ****** ****** ****** ****** ****** ****** ****** ******
  16  ****** ****** ****** ****** ****** ****** ****** ****** ****** ******
      ****** ****** ****** ****** ****** ****** ****** ****** ****** ******
      ****** ****** ****** ****** ****** ****** ****** ****** ****** ******
  17  ****** ****** ****** ****** ****** ****** ****** ****** ****** ******
      ****** ****** ****** ****** ****** ****** ****** ****** ****** ******
      ****** ****** ****** ****** ****** ****** ****** ****** ****** ******
  18  ****** ****** ****** ****** ****** ****** ****** ****** ****** ******
      ****** ****** ****** ****** ****** ****** ****** ****** ****** ******
      ****** ****** ****** ****** ****** ****** ****** ****** ****** ******
  19  ****** ****** ****** ****** ****** ****** ****** ****** ****** ******
      ****** ****** ****** ****** ****** ****** ****** ****** ****** ******
      ****** ****** ****** ****** ****** ****** ****** ****** ****** ******
  20  ****** ****** ****** ****** ****** ****** ****** ****** ****** ******
      ****** ****** ****** ****** ****** ****** ****** ****** ****** ******
      ****** ****** ****** ****** ****** ****** ****** ****** ****** ******
  21  ****** ****** ****** ****** ****** ****** ****** ****** ****** ******
      ****** ****** ****** ****** ****** ****** ****** ****** ****** ******
      ****** ****** ****** ****** ****** ****** ****** ****** ****** ******
  22  ****** ****** ****** ****** ****** ****** ****** ****** ****** ******
      ****** ****** ****** ****** ****** ****** ****** ****** ****** ******
      ****** ****** ****** ****** ****** ****** ****** ****** ****** ******
  23  ****** ****** ****** ****** ****** ****** ****** ****** ****** ******
      ****** ****** ****** ****** ****** ****** ****** ****** ****** ******
      ****** ****** ****** ****** ****** ****** ****** ****** ****** ******
  24  ****** ****** ****** ****** ****** ****** ****** ****** ****** ******
      ****** ****** ****** ****** ****** ****** ****** ****** ****** ******
      ****** ****** ****** ****** ****** ****** ****** ****** ****** ******
  25  ****** ****** ****** ****** ****** ****** ****** ****** ****** ******
      ****** ****** ****** ****** ****** ****** ****** ****** ****** ******
      ****** ****** ****** ****** ****** ****** ****** ****** ****** ******

 HEAD WILL BE SAVED ON UNIT   51 AT END OF TIME STEP    1, STRESS PERIOD    8
1
  VOLUMETRIC BUDGET FOR ENTIRE MODEL AT END OF TIME STEP    1, STRESS PERIOD   8
  ------------------------------------------------------------------------------

     CUMULATIVE VOLUMES      L**3       RATES FOR THIS TIME STEP      L**3/T
     ------------------                 ------------------------

           IN:                                      IN:
           ---                                      ---
             STORAGE =    34303650.6344               STORAGE =        1739.5331
       CONSTANT HEAD =    20002361.5393         CONSTANT HEAD =       34481.3437
               WELLS =           0.0000                 WELLS =           0.0000
            RECHARGE =    17608800.0000              RECHARGE =       27600.0000
      STREAM LEAKAGE =    10712108.2878        STREAM LEAKAGE =       18397.3518

            TOTAL IN =    82626920.4615              TOTAL IN =       82218.2286

          OUT:                                     OUT:
          ----                                     ----
             STORAGE =      864394.5375               STORAGE =        1462.0880
       CONSTANT HEAD =           0.0000         CONSTANT HEAD =           0.0000
               WELLS =    30875426.9037                 WELLS =       42295.1053
            RECHARGE =           0.0000              RECHARGE =           0.0000
      STREAM LEAKAGE =    50887100.8529        STREAM LEAKAGE =       38461.0275

           TOTAL OUT =    82626922.2941             TOTAL OUT =       82218.2209

            IN - OUT =          -1.8326              IN - OUT =       7.7057E-03

 PERCENT DISCREPANCY =          -0.00     PERCENT DISCREPANCY =           0.00






         TIME SUMMARY AT END OF TIME STEP    1 IN STRESS PERIOD    8
                    SECONDS     MINUTES      HOURS       DAYS        YEARS
                    -----------------------------------------------------------
   TIME STEP LENGTH 7.86240E+06 1.31040E+05  2184.0      91.000     0.24914    
 STRESS PERIOD TIME 7.86240E+06 1.31040E+05  2184.0      91.000     0.24914    
         TOTAL TIME 6.30720E+07 1.05120E+06  17520.      730.00      1.9986    
1
1
                            STRESS PERIOD NO.    9, LENGTH =   92.00000    
                            -----------------------------------------------

                              NUMBER OF TIME STEPS =     1

                               MULTIPLIER FOR DELT =     1.500

                            INITIAL TIME STEP SIZE =   92.00000    

 WELL NO.  LAYER   ROW   COL   STRESS RATE         
 --------------------------------------------------
      1      1     14      6       0.000    
      2      1      3      9       0.000    
      3      1     20     10       0.000    
      4      1     14     20       0.000    
      5      1     19     29     -0.1179E+05
      6      1     10     29     -0.1333E+05
      7      1     20     21      -8354.    
      8      1      8     12      -8823.    

      8 WELLS

                 RECHARGE =  5.000000E-04

 REUSING STREAM SEGMENT DATA FROM LAST STRESS PERIOD
 
 SOLVING FOR HEAD 


     6 CALLS TO PCG ROUTINE FOR TIME STEP   1 IN STRESS PERIOD    9
    23 TOTAL ITERATIONS

 OUTPUT CONTROL FOR STRESS PERIOD    9   TIME STEP    1
    SAVE BUDGET
    SAVE HEAD FOR ALL LAYERS
    PRINT HEAD FOR ALL LAYERS
 UBDSV2 SAVING "STREAMFLOW OUT  " ON UNIT  50 AT TIME STEP  1, STRESS PERIOD   9



 STREAM LISTING     PERIOD      9   STEP        1

 LAYER ROW COL. STREAM  RCH.  FLOW INTO     FLOW TO   FLOW OUT OF   OVRLND.     DIRECT     STREAM       STREAM     STREAM     STREAM   STREAMBED  STREAMBED
                SEG.NO.  NO.  STRM. RCH.    AQUIFER    STRM. RCH.    RUNOFF     PRECIP       ET          HEAD       DEPTH      WIDTH   CONDCTNC.   GRADIENT

   1   13    1     1     1    1.0000E+05 -1.3752E+03   1.0138E+05  0.000E+00  0.000E+00  0.000E+00  4.84066E+01  1.452E-01  2.000E+01  2.000E+04 -6.876E-02
   1   13    2     1     2    1.0138E+05 -2.2877E+03   1.0366E+05  0.000E+00  0.000E+00  0.000E+00  4.79309E+01  1.468E-01  2.000E+01  2.000E+04 -1.144E-01
   1   14    3     1     3    1.0366E+05 -3.7252E+02   1.0404E+05  0.000E+00  0.000E+00  0.000E+00  4.74548E+01  1.480E-01  2.000E+01  2.000E+04 -1.863E-02
   1   15    4     1     4    1.0404E+05 -3.4928E+02   1.0438E+05  0.000E+00  0.000E+00  0.000E+00  4.69778E+01  1.483E-01  2.000E+01  2.000E+04 -1.746E-02
   1   16    5     1     5    1.0438E+05 -1.3958E+03   1.0578E+05  0.000E+00  0.000E+00  0.000E+00  4.65013E+01  1.490E-01  2.000E+01  2.000E+04 -6.979E-02
   1   16    6     1     6    1.0578E+05 -8.7736E+02   1.0666E+05  0.000E+00  0.000E+00  0.000E+00  4.60250E+01  1.500E-01  2.000E+01  2.000E+04 -4.387E-02
   1   16    7     1     7    1.0666E+05 -8.5232E+02   1.0751E+05  0.000E+00  0.000E+00  0.000E+00  4.55484E+01  1.507E-01  2.000E+01  2.000E+04 -4.262E-02
   1   16    8     1     8    1.0751E+05 -8.3490E+02   1.0835E+05  0.000E+00  0.000E+00  0.000E+00  4.50719E+01  1.514E-01  2.000E+01  2.000E+04 -4.174E-02
   1   16    9     1     9    1.0835E+05 -8.0876E+02   1.0915E+05  0.000E+00  0.000E+00  0.000E+00  4.45953E+01  1.521E-01  2.000E+01  2.000E+04 -4.044E-02
   1   16   10     1    10    1.0915E+05 -7.7160E+02   1.0993E+05  0.000E+00  0.000E+00  0.000E+00  4.41187E+01  1.528E-01  2.000E+01  2.000E+04 -3.858E-02
   1   16   11     1    11    1.0993E+05 -7.2994E+02   1.1066E+05  0.000E+00  0.000E+00  0.000E+00  4.36420E+01  1.534E-01  2.000E+01  2.000E+04 -3.650E-02
   1   16   12     1    12    1.1066E+05 -1.0344E+03   1.1169E+05  0.000E+00  0.000E+00  0.000E+00  4.31655E+01  1.541E-01  2.000E+01  2.000E+04 -5.172E-02
   1   15   13     1    13    1.1169E+05 -7.3346E+02   1.1242E+05  0.000E+00  0.000E+00  0.000E+00  4.26890E+01  1.549E-01  2.000E+01  2.000E+04 -3.667E-02
   1   14   14     1    14    1.1242E+05 -7.9578E+02   1.1322E+05  0.000E+00  0.000E+00  0.000E+00  4.22123E+01  1.555E-01  2.000E+01  2.000E+04 -3.979E-02
   1   13   15     1    15    1.1322E+05 -9.6535E+02   1.1418E+05  0.000E+00  0.000E+00  0.000E+00  4.17358E+01  1.562E-01  2.000E+01  2.000E+04 -4.827E-02
   1   12   16     1    16    1.1418E+05 -1.5081E+03   1.1569E+05  0.000E+00  0.000E+00  0.000E+00  4.12595E+01  1.573E-01  2.000E+01  2.000E+04 -7.541E-02
   1   12   17     1    17    1.1569E+05 -1.1306E+03   1.1682E+05  0.000E+00  0.000E+00  0.000E+00  4.07833E+01  1.583E-01  2.000E+01  2.000E+04 -5.653E-02
   1   12   18     1    18    1.1682E+05 -1.1625E+03   1.1799E+05  0.000E+00  0.000E+00  0.000E+00  4.03070E+01  1.593E-01  2.000E+01  2.000E+04 -5.813E-02
   1   12   19     1    19    1.1799E+05 -1.7176E+03   1.1970E+05  0.000E+00  0.000E+00  0.000E+00  3.98309E+01  1.604E-01  2.000E+01  2.000E+04 -8.588E-02
   1   13   20     1    20    1.1970E+05 -1.0548E+03   1.2076E+05  0.000E+00  0.000E+00  0.000E+00  3.93547E+01  1.616E-01  2.000E+01  2.000E+04 -5.274E-02
   1   14   21     1    21    1.2076E+05 -3.9359E+02   1.2115E+05  0.000E+00  0.000E+00  0.000E+00  3.88781E+01  1.621E-01  2.000E+01  2.000E+04 -1.968E-02
   1   14   22     1    22    1.2115E+05  5.2428E+03   1.1591E+05  0.000E+00  0.000E+00  0.000E+00  3.83988E+01  1.602E-01  2.000E+01  2.000E+04  2.621E-01
   1    9   30     2     1    5.0000E+04  2.0837E+03   4.7916E+04  0.000E+00  0.000E+00  0.000E+00  4.02394E+01  1.144E-01  2.000E+01  2.000E+04  1.042E-01
   1    9   29     2     2    4.7916E+04  4.1155E+03   4.3801E+04  0.000E+00  0.000E+00  0.000E+00  3.99850E+01  1.100E-01  2.000E+01  2.000E+04  2.058E-01
   1    9   28     2     3    4.3801E+04  9.1473E+02   4.2886E+04  0.000E+00  0.000E+00  0.000E+00  3.97313E+01  1.063E-01  2.000E+01  2.000E+04  4.574E-02
   1    9   27     2     4    4.2886E+04 -1.4123E+03   4.4298E+04  0.000E+00  0.000E+00  0.000E+00  3.94817E+01  1.067E-01  2.000E+01  2.000E+04 -7.062E-02
   1   10   26     2     5    4.4298E+04 -3.2512E+02   4.4623E+04  0.000E+00  0.000E+00  0.000E+00  3.92330E+01  1.080E-01  2.000E+01  2.000E+04 -1.626E-02
   1   11   25     2     6    4.4623E+04 -6.6154E+02   4.5285E+04  0.000E+00  0.000E+00  0.000E+00  3.89837E+01  1.087E-01  2.000E+01  2.000E+04 -3.308E-02
   1   12   24     2     7    4.5285E+04 -1.0991E+03   4.6384E+04  0.000E+00  0.000E+00  0.000E+00  3.87350E+01  1.100E-01  2.000E+01  2.000E+04 -5.496E-02
   1   13   23     2     8    4.6384E+04 -1.9472E+02   4.6579E+04  0.000E+00  0.000E+00  0.000E+00  3.84859E+01  1.109E-01  2.000E+01  2.000E+04 -9.736E-03
   1   14   22     2     9    4.6579E+04  1.9591E+03   4.4620E+04  0.000E+00  0.000E+00  0.000E+00  3.82346E+01  1.096E-01  2.000E+01  2.000E+04  9.795E-02
   1   14   22     3     1    1.6053E+05 -8.3837E+03   1.6891E+05  0.000E+00  0.000E+00  0.000E+00  3.77175E+01  1.619E-01  2.000E+01  2.000E+04 -4.192E-01
   1   15   23     3     2    1.6891E+05 -2.3594E+02   1.6915E+05  0.000E+00  0.000E+00  0.000E+00  3.68311E+01  1.645E-01  2.000E+01  2.000E+04 -1.180E-02
   1   15   24     3     3    1.6915E+05 -1.3758E+02   1.6929E+05  0.000E+00  0.000E+00  0.000E+00  3.59424E+01  1.646E-01  2.000E+01  2.000E+04 -6.879E-03
   1   15   25     3     4    1.6929E+05 -1.3995E+02   1.6943E+05  0.000E+00  0.000E+00  0.000E+00  3.50535E+01  1.647E-01  2.000E+01  2.000E+04 -6.998E-03
   1   15   26     3     5    1.6943E+05 -1.5447E+02   1.6958E+05  0.000E+00  0.000E+00  0.000E+00  3.41647E+01  1.647E-01  2.000E+01  2.000E+04 -7.723E-03
   1   16   27     3     6    1.6958E+05 -7.7396E+01   1.6966E+05  0.000E+00  0.000E+00  0.000E+00  3.32759E+01  1.648E-01  2.000E+01  2.000E+04 -3.870E-03
   1   17   28     3     7    1.6966E+05  5.5585E+02   1.6910E+05  0.000E+00  0.000E+00  0.000E+00  3.23869E+01  1.647E-01  2.000E+01  2.000E+04  2.779E-02
   1   18   29     3     8    1.6910E+05  4.0728E+03   1.6503E+05  0.000E+00  0.000E+00  0.000E+00  3.14967E+01  1.633E-01  2.000E+01  2.000E+04  2.036E-01
   1   18   30     3     9    1.6503E+05  3.9841E+02   1.6463E+05  0.000E+00  0.000E+00  0.000E+00  3.06064E+01  1.620E-01  2.000E+01  2.000E+04  1.992E-02



1
              HEAD IN LAYER   1 AT END OF TIME STEP   1 IN STRESS PERIOD    9
  ---------------------------------------------------------------------------

          1      2      3      4      5      6      7      8      9     10
         11     12     13     14     15     16     17     18     19     20
         21     22     23     24     25     26     27     28     29     30
 .........................................................................
   1  ****** ****** ****** ****** ****** ****** ****** ****** ****** ******
      ****** ****** ****** ****** ****** ****** ****** ****** ****** ******
      ****** ****** ****** ****** ****** ****** ****** ****** ****** ******
   2  ****** ****** ****** ****** ****** ****** ****** ****** ****** ******
      ****** ****** ****** ****** ****** ****** ****** ****** ****** ******
      ****** ****** ****** ****** ****** ****** ****** ****** ****** ******
   3  ****** ****** ****** ****** ****** ****** ****** ****** ****** ******
      ****** ****** ****** ****** ****** ****** ****** ****** ****** ******
      ****** ****** ****** ****** ****** ****** ****** ****** ****** ******
   4  ****** ****** ****** ****** ****** ****** ****** ****** ****** ******
      ****** ****** ****** ****** ****** ****** ****** ****** ****** ******
      ****** ****** ****** ****** ****** ****** ****** ****** ****** ******
   5  ****** ****** ****** ****** ****** ****** ****** ****** ****** ******
      ****** ****** ****** ****** ****** ****** ****** ****** ****** ******
      ****** ****** ****** ****** ****** ****** ****** ****** ****** ******
   6  ****** ****** ****** ****** ****** ****** ****** ****** ****** ******
      ****** ****** ****** ****** ****** ****** ****** ****** ****** ******
      ****** ****** ****** ****** ****** ****** ****** ****** ****** ******
   7  ****** ****** ****** ****** ****** ****** ****** ****** ****** ******
      ****** ****** ****** ****** ****** ****** ****** ****** ****** ******
      ****** ****** ****** ****** ****** ****** ****** ****** ****** ******
   8  ****** ****** ****** ****** ****** ****** ****** ****** ****** ******
      ****** ****** ****** ****** ****** ****** ****** ****** ****** ******
      ****** ****** ****** ****** ****** ****** ****** ****** ****** ******
   9  ****** ****** ****** ****** ****** ****** ****** ****** ****** ******
      ****** ****** ****** ****** ****** ****** ****** ****** ****** ******
      ****** ****** ****** ****** ****** ****** ****** ****** ****** ******
  10  ****** ****** ****** ****** ****** ****** ****** ****** ****** ******
      ****** ****** ****** ****** ****** ****** ****** ****** ****** ******
      ****** ****** ****** ****** ****** ****** ****** ****** ****** ******
  11  ****** ****** ****** ****** ****** ****** ****** ****** ****** ******
      ****** ****** ****** ****** ****** ****** ****** ****** ****** ******
      ****** ****** ****** ****** ****** ****** ****** ****** ****** ******
  12  ****** ****** ****** ****** ****** ****** ****** ****** ****** ******
      ****** ****** ****** ****** ****** ****** ****** ****** ****** ******
      ****** ****** ****** ****** ****** ****** ****** ****** ****** ******
  13  ****** ****** ****** ****** ****** ****** ****** ****** ****** ******
      ****** ****** ****** ****** ****** ****** ****** ****** ****** ******
      ****** ****** ****** ****** ****** ****** ****** ****** ****** ******
  14  ****** ****** ****** ****** ****** ****** ****** ****** ****** ******
      ****** ****** ****** ****** ****** ****** ****** ****** ****** ******
      ****** ****** ****** ****** ****** ****** ****** ****** ****** ******
  15  ****** ****** ****** ****** ****** ****** ****** ****** ****** ******
      ****** ****** ****** ****** ****** ****** ****** ****** ****** ******
      ****** ****** ****** ****** ****** ****** ****** ****** ****** ******
  16  ****** ****** ****** ****** ****** ****** ****** ****** ****** ******
      ****** ****** ****** ****** ****** ****** ****** ****** ****** ******
      ****** ****** ****** ****** ****** ****** ****** ****** ****** ******
  17  ****** ****** ****** ****** ****** ****** ****** ****** ****** ******
      ****** ****** ****** ****** ****** ****** ****** ****** ****** ******
      ****** ****** ****** ****** ****** ****** ****** ****** ****** ******
  18  ****** ****** ****** ****** ****** ****** ****** ****** ****** ******
      ****** ****** ****** ****** ****** ****** ****** ****** ****** ******
      ****** ****** ****** ****** ****** ****** ****** ****** ****** ******
  19  ****** ****** ****** ****** ****** ****** ****** ****** ****** ******
      ****** ****** ****** ****** ****** ****** ****** ****** ****** ******
      ****** ****** ****** ****** ****** ****** ****** ****** ****** ******
  20  ****** ****** ****** ****** ****** ****** ****** ****** ****** ******
      ****** ****** ****** ****** ****** ****** ****** ****** ****** ******
      ****** ****** ****** ****** ****** ****** ****** ****** ****** ******
  21  ****** ****** ****** ****** ****** ****** ****** ****** ****** ******
      ****** ****** ****** ****** ****** ****** ****** ****** ****** ******
      ****** ****** ****** ****** ****** ****** ****** ****** ****** ******
  22  ****** ****** ****** ****** ****** ****** ****** ****** ****** ******
      ****** ****** ****** ****** ****** ****** ****** ****** ****** ******
      ****** ****** ****** ****** ****** ****** ****** ****** ****** ******
  23  ****** ****** ****** ****** ****** ****** ****** ****** ****** ******
      ****** ****** ****** ****** ****** ****** ****** ****** ****** ******
      ****** ****** ****** ****** ****** ****** ****** ****** ****** ******
  24  ****** ****** ****** ****** ****** ****** ****** ****** ****** ******
      ****** ****** ****** ****** ****** ****** ****** ****** ****** ******
      ****** ****** ****** ****** ****** ****** ****** ****** ****** ******
  25  ****** ****** ****** ****** ****** ****** ****** ****** ****** ******
      ****** ****** ****** ****** ****** ****** ****** ****** ****** ******
      ****** ****** ****** ****** ****** ****** ****** ****** ****** ******

 HEAD WILL BE SAVED ON UNIT   51 AT END OF TIME STEP    1, STRESS PERIOD    9
1
  VOLUMETRIC BUDGET FOR ENTIRE MODEL AT END OF TIME STEP    1, STRESS PERIOD   9
  ------------------------------------------------------------------------------

     CUMULATIVE VOLUMES      L**3       RATES FOR THIS TIME STEP      L**3/T
     ------------------                 ------------------------

           IN:                                      IN:
           ---                                      ---
             STORAGE =    34988842.6187               STORAGE =        7447.7390
       CONSTANT HEAD =    23284737.9076         CONSTANT HEAD =       35678.0040
               WELLS =           0.0000                 WELLS =           0.0000
            RECHARGE =    18878400.0000              RECHARGE =       13800.0000
      STREAM LEAKAGE =    12491657.0084        STREAM LEAKAGE =       19342.9209

            TOTAL IN =    89643637.5347              TOTAL IN =       76268.6638

          OUT:                                     OUT:
          ----                                     ----
             STORAGE =      864394.5375               STORAGE =           0.0000
       CONSTANT HEAD =           0.0000         CONSTANT HEAD =           0.0000
               WELLS =    34766576.5957                 WELLS =       42295.1053
            RECHARGE =           0.0000              RECHARGE =           0.0000
      STREAM LEAKAGE =    54012668.3058        STREAM LEAKAGE =       33973.5593

           TOTAL OUT =    89643639.4390             TOTAL OUT =       76268.6646

            IN - OUT =          -1.9043              IN - OUT =      -7.7910E-04

 PERCENT DISCREPANCY =          -0.00     PERCENT DISCREPANCY =          -0.00






         TIME SUMMARY AT END OF TIME STEP    1 IN STRESS PERIOD    9
                    SECONDS     MINUTES      HOURS       DAYS        YEARS
                    -----------------------------------------------------------
   TIME STEP LENGTH 7.94880E+06 1.32480E+05  2208.0      92.000     0.25188    
 STRESS PERIOD TIME 7.94880E+06 1.32480E+05  2208.0      92.000     0.25188    
         TOTAL TIME 7.10208E+07 1.18368E+06  19728.      822.00      2.2505    
1
1
                            STRESS PERIOD NO.   10, LENGTH =   91.00000    
                            -----------------------------------------------

                              NUMBER OF TIME STEPS =     1

                               MULTIPLIER FOR DELT =     1.500

                            INITIAL TIME STEP SIZE =   91.00000    

 WELL NO.  LAYER   ROW   COL   STRESS RATE         
 --------------------------------------------------
      1      1     14      6       0.000    
      2      1      3      9       0.000    
      3      1     20     10       0.000    
      4      1     14     20       0.000    
      5      1     19     29     -0.1179E+05
      6      1     10     29     -0.1333E+05
      7      1     20     21      -8354.    
      8      1      8     12      -8823.    

      8 WELLS

                 RECHARGE =  2.000000E-03

 REUSING STREAM SEGMENT DATA FROM LAST STRESS PERIOD
 
 SOLVING FOR HEAD 


     7 CALLS TO PCG ROUTINE FOR TIME STEP   1 IN STRESS PERIOD   10
    26 TOTAL ITERATIONS

 OUTPUT CONTROL FOR STRESS PERIOD   10   TIME STEP    1
    SAVE BUDGET
    SAVE HEAD FOR ALL LAYERS
    PRINT HEAD FOR ALL LAYERS
 UBDSV2 SAVING "STREAMFLOW OUT  " ON UNIT  50 AT TIME STEP  1, STRESS PERIOD  10



 STREAM LISTING     PERIOD     10   STEP        1

 LAYER ROW COL. STREAM  RCH.  FLOW INTO     FLOW TO   FLOW OUT OF   OVRLND.     DIRECT     STREAM       STREAM     STREAM     STREAM   STREAMBED  STREAMBED
                SEG.NO.  NO.  STRM. RCH.    AQUIFER    STRM. RCH.    RUNOFF     PRECIP       ET          HEAD       DEPTH      WIDTH   CONDCTNC.   GRADIENT

   1   13    1     1     1    1.0000E+05 -1.8224E+03   1.0182E+05  0.000E+00  0.000E+00  0.000E+00  4.84068E+01  1.454E-01  2.000E+01  2.000E+04 -9.112E-02
   1   13    2     1     2    1.0182E+05 -2.7829E+03   1.0461E+05  0.000E+00  0.000E+00  0.000E+00  4.79315E+01  1.474E-01  2.000E+01  2.000E+04 -1.391E-01
   1   14    3     1     3    1.0461E+05 -5.5805E+02   1.0516E+05  0.000E+00  0.000E+00  0.000E+00  4.74557E+01  1.489E-01  2.000E+01  2.000E+04 -2.790E-02
   1   15    4     1     4    1.0516E+05 -5.4788E+02   1.0571E+05  0.000E+00  0.000E+00  0.000E+00  4.69789E+01  1.493E-01  2.000E+01  2.000E+04 -2.739E-02
   1   16    5     1     5    1.0571E+05 -2.0139E+03   1.0773E+05  0.000E+00  0.000E+00  0.000E+00  4.65027E+01  1.504E-01  2.000E+01  2.000E+04 -1.007E-01
   1   16    6     1     6    1.0773E+05 -1.2387E+03   1.0896E+05  0.000E+00  0.000E+00  0.000E+00  4.60268E+01  1.518E-01  2.000E+01  2.000E+04 -6.193E-02
   1   16    7     1     7    1.0896E+05 -1.1957E+03   1.1016E+05  0.000E+00  0.000E+00  0.000E+00  4.55505E+01  1.528E-01  2.000E+01  2.000E+04 -5.979E-02
   1   16    8     1     8    1.1016E+05 -1.1729E+03   1.1133E+05  0.000E+00  0.000E+00  0.000E+00  4.50742E+01  1.538E-01  2.000E+01  2.000E+04 -5.864E-02
   1   16    9     1     9    1.1133E+05 -1.1452E+03   1.1248E+05  0.000E+00  0.000E+00  0.000E+00  4.45979E+01  1.548E-01  2.000E+01  2.000E+04 -5.726E-02
   1   16   10     1    10    1.1248E+05 -1.1084E+03   1.1359E+05  0.000E+00  0.000E+00  0.000E+00  4.41216E+01  1.557E-01  2.000E+01  2.000E+04 -5.542E-02
   1   16   11     1    11    1.1359E+05 -1.0703E+03   1.1466E+05  0.000E+00  0.000E+00  0.000E+00  4.36452E+01  1.566E-01  2.000E+01  2.000E+04 -5.351E-02
   1   16   12     1    12    1.1466E+05 -1.6021E+03   1.1626E+05  0.000E+00  0.000E+00  0.000E+00  4.31690E+01  1.577E-01  2.000E+01  2.000E+04 -8.011E-02
   1   15   13     1    13    1.1626E+05 -1.3173E+03   1.1758E+05  0.000E+00  0.000E+00  0.000E+00  4.26930E+01  1.589E-01  2.000E+01  2.000E+04 -6.587E-02
   1   14   14     1    14    1.1758E+05 -1.3862E+03   1.1896E+05  0.000E+00  0.000E+00  0.000E+00  4.22168E+01  1.600E-01  2.000E+01  2.000E+04 -6.931E-02
   1   13   15     1    15    1.1896E+05 -1.5454E+03   1.2051E+05  0.000E+00  0.000E+00  0.000E+00  4.17407E+01  1.612E-01  2.000E+01  2.000E+04 -7.727E-02
   1   12   16     1    16    1.2051E+05 -2.0660E+03   1.2257E+05  0.000E+00  0.000E+00  0.000E+00  4.12649E+01  1.626E-01  2.000E+01  2.000E+04 -1.033E-01
   1   12   17     1    17    1.2257E+05 -1.5540E+03   1.2413E+05  0.000E+00  0.000E+00  0.000E+00  4.07891E+01  1.641E-01  2.000E+01  2.000E+04 -7.770E-02
   1   12   18     1    18    1.2413E+05 -1.5822E+03   1.2571E+05  0.000E+00  0.000E+00  0.000E+00  4.03130E+01  1.653E-01  2.000E+01  2.000E+04 -7.911E-02
   1   12   19     1    19    1.2571E+05 -2.2343E+03   1.2794E+05  0.000E+00  0.000E+00  0.000E+00  3.98373E+01  1.668E-01  2.000E+01  2.000E+04 -1.117E-01
   1   13   20     1    20    1.2794E+05 -1.5748E+03   1.2952E+05  0.000E+00  0.000E+00  0.000E+00  3.93615E+01  1.683E-01  2.000E+01  2.000E+04 -7.874E-02
   1   14   21     1    21    1.2952E+05 -9.1727E+02   1.3044E+05  0.000E+00  0.000E+00  0.000E+00  3.88852E+01  1.693E-01  2.000E+01  2.000E+04 -4.586E-02
   1   14   22     1    22    1.3044E+05  5.1128E+03   1.2532E+05  0.000E+00  0.000E+00  0.000E+00  3.84063E+01  1.677E-01  2.000E+01  2.000E+04  2.556E-01
   1    9   30     2     1    5.0000E+04  1.6697E+03   4.8330E+04  0.000E+00  0.000E+00  0.000E+00  4.02397E+01  1.147E-01  2.000E+01  2.000E+04  8.349E-02
   1    9   29     2     2    4.8330E+04  3.7039E+03   4.4626E+04  0.000E+00  0.000E+00  0.000E+00  3.99859E+01  1.109E-01  2.000E+01  2.000E+04  1.852E-01
   1    9   28     2     3    4.4626E+04  5.0400E+02   4.4122E+04  0.000E+00  0.000E+00  0.000E+00  3.97329E+01  1.079E-01  2.000E+01  2.000E+04  2.520E-02
   1    9   27     2     4    4.4122E+04 -1.9643E+03   4.6087E+04  0.000E+00  0.000E+00  0.000E+00  3.94839E+01  1.089E-01  2.000E+01  2.000E+04 -9.822E-02
   1   10   26     2     5    4.6087E+04 -8.7720E+02   4.6964E+04  0.000E+00  0.000E+00  0.000E+00  3.92360E+01  1.110E-01  2.000E+01  2.000E+04 -4.386E-02
   1   11   25     2     6    4.6964E+04 -1.1891E+03   4.8153E+04  0.000E+00  0.000E+00  0.000E+00  3.89874E+01  1.124E-01  2.000E+01  2.000E+04 -5.945E-02
   1   12   24     2     7    4.8153E+04 -1.5764E+03   4.9729E+04  0.000E+00  0.000E+00  0.000E+00  3.87394E+01  1.144E-01  2.000E+01  2.000E+04 -7.882E-02
   1   13   23     2     8    4.9729E+04 -3.4324E+02   5.0073E+04  0.000E+00  0.000E+00  0.000E+00  3.84907E+01  1.157E-01  2.000E+01  2.000E+04 -1.716E-02
   1   14   22     2     9    5.0073E+04  1.7815E+03   4.8291E+04  0.000E+00  0.000E+00  0.000E+00  3.82397E+01  1.147E-01  2.000E+01  2.000E+04  8.908E-02
   1   14   22     3     1    1.7361E+05 -8.5103E+03   1.8212E+05  0.000E+00  0.000E+00  0.000E+00  3.77251E+01  1.696E-01  2.000E+01  2.000E+04 -4.255E-01
   1   15   23     3     2    1.8212E+05 -3.9812E+02   1.8252E+05  0.000E+00  0.000E+00  0.000E+00  3.68388E+01  1.721E-01  2.000E+01  2.000E+04 -1.991E-02
   1   15   24     3     3    1.8252E+05 -2.7454E+02   1.8280E+05  0.000E+00  0.000E+00  0.000E+00  3.59501E+01  1.723E-01  2.000E+01  2.000E+04 -1.373E-02
   1   15   25     3     4    1.8280E+05 -2.8034E+02   1.8308E+05  0.000E+00  0.000E+00  0.000E+00  3.50613E+01  1.725E-01  2.000E+01  2.000E+04 -1.402E-02
   1   15   26     3     5    1.8308E+05 -3.1658E+02   1.8339E+05  0.000E+00  0.000E+00  0.000E+00  3.41726E+01  1.726E-01  2.000E+01  2.000E+04 -1.583E-02
   1   16   27     3     6    1.8339E+05 -2.6302E+02   1.8366E+05  0.000E+00  0.000E+00  0.000E+00  3.32839E+01  1.728E-01  2.000E+01  2.000E+04 -1.315E-02
   1   17   28     3     7    1.8366E+05  3.5985E+01   1.8362E+05  0.000E+00  0.000E+00  0.000E+00  3.23951E+01  1.729E-01  2.000E+01  2.000E+04  1.799E-03
   1   18   29     3     8    1.8362E+05  3.5231E+03   1.8010E+05  0.000E+00  0.000E+00  0.000E+00  3.15052E+01  1.718E-01  2.000E+01  2.000E+04  1.762E-01
   1   18   30     3     9    1.8010E+05 -2.5762E+01   1.8012E+05  0.000E+00  0.000E+00  0.000E+00  3.06153E+01  1.709E-01  2.000E+01  2.000E+04 -1.288E-03



1
              HEAD IN LAYER   1 AT END OF TIME STEP   1 IN STRESS PERIOD   10
  ---------------------------------------------------------------------------

          1      2      3      4      5      6      7      8      9     10
         11     12     13     14     15     16     17     18     19     20
         21     22     23     24     25     26     27     28     29     30
 .........................................................................
   1  ****** ****** ****** ****** ****** ****** ****** ****** ****** ******
      ****** ****** ****** ****** ****** ****** ****** ****** ****** ******
      ****** ****** ****** ****** ****** ****** ****** ****** ****** ******
   2  ****** ****** ****** ****** ****** ****** ****** ****** ****** ******
      ****** ****** ****** ****** ****** ****** ****** ****** ****** ******
      ****** ****** ****** ****** ****** ****** ****** ****** ****** ******
   3  ****** ****** ****** ****** ****** ****** ****** ****** ****** ******
      ****** ****** ****** ****** ****** ****** ****** ****** ****** ******
      ****** ****** ****** ****** ****** ****** ****** ****** ****** ******
   4  ****** ****** ****** ****** ****** ****** ****** ****** ****** ******
      ****** ****** ****** ****** ****** ****** ****** ****** ****** ******
      ****** ****** ****** ****** ****** ****** ****** ****** ****** ******
   5  ****** ****** ****** ****** ****** ****** ****** ****** ****** ******
      ****** ****** ****** ****** ****** ****** ****** ****** ****** ******
      ****** ****** ****** ****** ****** ****** ****** ****** ****** ******
   6  ****** ****** ****** ****** ****** ****** ****** ****** ****** ******
      ****** ****** ****** ****** ****** ****** ****** ****** ****** ******
      ****** ****** ****** ****** ****** ****** ****** ****** ****** ******
   7  ****** ****** ****** ****** ****** ****** ****** ****** ****** ******
      ****** ****** ****** ****** ****** ****** ****** ****** ****** ******
      ****** ****** ****** ****** ****** ****** ****** ****** ****** ******
   8  ****** ****** ****** ****** ****** ****** ****** ****** ****** ******
      ****** ****** ****** ****** ****** ****** ****** ****** ****** ******
      ****** ****** ****** ****** ****** ****** ****** ****** ****** ******
   9  ****** ****** ****** ****** ****** ****** ****** ****** ****** ******
      ****** ****** ****** ****** ****** ****** ****** ****** ****** ******
      ****** ****** ****** ****** ****** ****** ****** ****** ****** ******
  10  ****** ****** ****** ****** ****** ****** ****** ****** ****** ******
      ****** ****** ****** ****** ****** ****** ****** ****** ****** ******
      ****** ****** ****** ****** ****** ****** ****** ****** ****** ******
  11  ****** ****** ****** ****** ****** ****** ****** ****** ****** ******
      ****** ****** ****** ****** ****** ****** ****** ****** ****** ******
      ****** ****** ****** ****** ****** ****** ****** ****** ****** ******
  12  ****** ****** ****** ****** ****** ****** ****** ****** ****** ******
      ****** ****** ****** ****** ****** ****** ****** ****** ****** ******
      ****** ****** ****** ****** ****** ****** ****** ****** ****** ******
  13  ****** ****** ****** ****** ****** ****** ****** ****** ****** ******
      ****** ****** ****** ****** ****** ****** ****** ****** ****** ******
      ****** ****** ****** ****** ****** ****** ****** ****** ****** ******
  14  ****** ****** ****** ****** ****** ****** ****** ****** ****** ******
      ****** ****** ****** ****** ****** ****** ****** ****** ****** ******
      ****** ****** ****** ****** ****** ****** ****** ****** ****** ******
  15  ****** ****** ****** ****** ****** ****** ****** ****** ****** ******
      ****** ****** ****** ****** ****** ****** ****** ****** ****** ******
      ****** ****** ****** ****** ****** ****** ****** ****** ****** ******
  16  ****** ****** ****** ****** ****** ****** ****** ****** ****** ******
      ****** ****** ****** ****** ****** ****** ****** ****** ****** ******
      ****** ****** ****** ****** ****** ****** ****** ****** ****** ******
  17  ****** ****** ****** ****** ****** ****** ****** ****** ****** ******
      ****** ****** ****** ****** ****** ****** ****** ****** ****** ******
      ****** ****** ****** ****** ****** ****** ****** ****** ****** ******
  18  ****** ****** ****** ****** ****** ****** ****** ****** ****** ******
      ****** ****** ****** ****** ****** ****** ****** ****** ****** ******
      ****** ****** ****** ****** ****** ****** ****** ****** ****** ******
  19  ****** ****** ****** ****** ****** ****** ****** ****** ****** ******
      ****** ****** ****** ****** ****** ****** ****** ****** ****** ******
      ****** ****** ****** ****** ****** ****** ****** ****** ****** ******
  20  ****** ****** ****** ****** ****** ****** ****** ****** ****** ******
      ****** ****** ****** ****** ****** ****** ****** ****** ****** ******
      ****** ****** ****** ****** ****** ****** ****** ****** ****** ******
  21  ****** ****** ****** ****** ****** ****** ****** ****** ****** ******
      ****** ****** ****** ****** ****** ****** ****** ****** ****** ******
      ****** ****** ****** ****** ****** ****** ****** ****** ****** ******
  22  ****** ****** ****** ****** ****** ****** ****** ****** ****** ******
      ****** ****** ****** ****** ****** ****** ****** ****** ****** ******
      ****** ****** ****** ****** ****** ****** ****** ****** ****** ******
  23  ****** ****** ****** ****** ****** ****** ****** ****** ****** ******
      ****** ****** ****** ****** ****** ****** ****** ****** ****** ******
      ****** ****** ****** ****** ****** ****** ****** ****** ****** ******
  24  ****** ****** ****** ****** ****** ****** ****** ****** ****** ******
      ****** ****** ****** ****** ****** ****** ****** ****** ****** ******
      ****** ****** ****** ****** ****** ****** ****** ****** ****** ******
  25  ****** ****** ****** ****** ****** ****** ****** ****** ****** ******
      ****** ****** ****** ****** ****** ****** ****** ****** ****** ******
      ****** ****** ****** ****** ****** ****** ****** ****** ****** ******

 HEAD WILL BE SAVED ON UNIT   51 AT END OF TIME STEP    1, STRESS PERIOD   10
1
  VOLUMETRIC BUDGET FOR ENTIRE MODEL AT END OF TIME STEP    1, STRESS PERIOD  10
  ------------------------------------------------------------------------------

     CUMULATIVE VOLUMES      L**3       RATES FOR THIS TIME STEP      L**3/T
     ------------------                 ------------------------

           IN:                                      IN:
           ---                                      ---
             STORAGE =    34988842.6187               STORAGE =           0.0000
       CONSTANT HEAD =    26264503.2956         CONSTANT HEAD =       32744.6746
               WELLS =           0.0000                 WELLS =           0.0000
            RECHARGE =    23901600.0000              RECHARGE =       55200.0000
      STREAM LEAKAGE =    13977782.8275        STREAM LEAKAGE =       16331.0530

            TOTAL IN =    99132728.7418              TOTAL IN =      104275.7276

          OUT:                                     OUT:
          ----                                     ----
             STORAGE =     2277230.2811               STORAGE =       15525.6675
       CONSTANT HEAD =           0.0000         CONSTANT HEAD =           0.0000
               WELLS =    38615431.1823                 WELLS =       42295.1053
            RECHARGE =           0.0000              RECHARGE =           0.0000
      STREAM LEAKAGE =    58240068.8425        STREAM LEAKAGE =       46454.9510

           TOTAL OUT =    99132730.3060             TOTAL OUT =      104275.7238

            IN - OUT =          -1.5641              IN - OUT =       3.7378E-03

 PERCENT DISCREPANCY =          -0.00     PERCENT DISCREPANCY =           0.00






         TIME SUMMARY AT END OF TIME STEP    1 IN STRESS PERIOD   10
                    SECONDS     MINUTES      HOURS       DAYS        YEARS
                    -----------------------------------------------------------
   TIME STEP LENGTH 7.86240E+06 1.31040E+05  2184.0      91.000     0.24914    
 STRESS PERIOD TIME 7.86240E+06 1.31040E+05  2184.0      91.000     0.24914    
         TOTAL TIME 7.88832E+07 1.31472E+06  21912.      913.00      2.4997    
1
1
                            STRESS PERIOD NO.   11, LENGTH =   91.00000    
                            -----------------------------------------------

                              NUMBER OF TIME STEPS =     1

                               MULTIPLIER FOR DELT =     1.500

                            INITIAL TIME STEP SIZE =   91.00000    

 WELL NO.  LAYER   ROW   COL   STRESS RATE         
 --------------------------------------------------
      1      1     14      6       0.000    
      2      1      3      9       0.000    
      3      1     20     10       0.000    
      4      1     14     20       0.000    
      5      1     19     29     -0.1179E+05
      6      1     10     29     -0.1333E+05
      7      1     20     21      -8354.    
      8      1      8     12      -8823.    

      8 WELLS

                 RECHARGE =   0.00000    

 REUSING STREAM SEGMENT DATA FROM LAST STRESS PERIOD
 
 SOLVING FOR HEAD 


     7 CALLS TO PCG ROUTINE FOR TIME STEP   1 IN STRESS PERIOD   11
    26 TOTAL ITERATIONS

 OUTPUT CONTROL FOR STRESS PERIOD   11   TIME STEP    1
    SAVE BUDGET
    SAVE HEAD FOR ALL LAYERS
    PRINT HEAD FOR ALL LAYERS
 UBDSV2 SAVING "STREAMFLOW OUT  " ON UNIT  50 AT TIME STEP  1, STRESS PERIOD  11



 STREAM LISTING     PERIOD     11   STEP        1

 LAYER ROW COL. STREAM  RCH.  FLOW INTO     FLOW TO   FLOW OUT OF   OVRLND.     DIRECT     STREAM       STREAM     STREAM     STREAM   STREAMBED  STREAMBED
                SEG.NO.  NO.  STRM. RCH.    AQUIFER    STRM. RCH.    RUNOFF     PRECIP       ET          HEAD       DEPTH      WIDTH   CONDCTNC.   GRADIENT

   1   13    1     1     1    1.0000E+05 -1.2509E+03   1.0125E+05  0.000E+00  0.000E+00  0.000E+00  4.84066E+01  1.452E-01  2.000E+01  2.000E+04 -6.255E-02
   1   13    2     1     2    1.0125E+05 -2.1462E+03   1.0340E+05  0.000E+00  0.000E+00  0.000E+00  4.79308E+01  1.467E-01  2.000E+01  2.000E+04 -1.073E-01
   1   14    3     1     3    1.0340E+05 -3.2643E+02   1.0372E+05  0.000E+00  0.000E+00  0.000E+00  4.74545E+01  1.477E-01  2.000E+01  2.000E+04 -1.632E-02
   1   15    4     1     4    1.0372E+05 -3.0538E+02   1.0403E+05  0.000E+00  0.000E+00  0.000E+00  4.69775E+01  1.480E-01  2.000E+01  2.000E+04 -1.527E-02
   1   16    5     1     5    1.0403E+05 -1.3255E+03   1.0535E+05  0.000E+00  0.000E+00  0.000E+00  4.65010E+01  1.487E-01  2.000E+01  2.000E+04 -6.627E-02
   1   16    6     1     6    1.0535E+05 -8.2375E+02   1.0618E+05  0.000E+00  0.000E+00  0.000E+00  4.60246E+01  1.496E-01  2.000E+01  2.000E+04 -4.119E-02
   1   16    7     1     7    1.0618E+05 -7.9836E+02   1.0698E+05  0.000E+00  0.000E+00  0.000E+00  4.55480E+01  1.503E-01  2.000E+01  2.000E+04 -3.992E-02
   1   16    8     1     8    1.0698E+05 -7.8099E+02   1.0776E+05  0.000E+00  0.000E+00  0.000E+00  4.50714E+01  1.510E-01  2.000E+01  2.000E+04 -3.905E-02
   1   16    9     1     9    1.0776E+05 -7.5565E+02   1.0851E+05  0.000E+00  0.000E+00  0.000E+00  4.45948E+01  1.516E-01  2.000E+01  2.000E+04 -3.778E-02
   1   16   10     1    10    1.0851E+05 -7.1994E+02   1.0923E+05  0.000E+00  0.000E+00  0.000E+00  4.41181E+01  1.522E-01  2.000E+01  2.000E+04 -3.600E-02
   1   16   11     1    11    1.0923E+05 -6.8013E+02   1.0991E+05  0.000E+00  0.000E+00  0.000E+00  4.36414E+01  1.528E-01  2.000E+01  2.000E+04 -3.401E-02
   1   16   12     1    12    1.0991E+05 -9.5541E+02   1.1087E+05  0.000E+00  0.000E+00  0.000E+00  4.31649E+01  1.535E-01  2.000E+01  2.000E+04 -4.777E-02
   1   15   13     1    13    1.1087E+05 -6.2706E+02   1.1150E+05  0.000E+00  0.000E+00  0.000E+00  4.26882E+01  1.542E-01  2.000E+01  2.000E+04 -3.135E-02
   1   14   14     1    14    1.1150E+05 -6.7780E+02   1.1217E+05  0.000E+00  0.000E+00  0.000E+00  4.22115E+01  1.547E-01  2.000E+01  2.000E+04 -3.389E-02
   1   13   15     1    15    1.1217E+05 -8.4223E+02   1.1302E+05  0.000E+00  0.000E+00  0.000E+00  4.17349E+01  1.553E-01  2.000E+01  2.000E+04 -4.211E-02
   1   12   16     1    16    1.1302E+05 -1.3858E+03   1.1440E+05  0.000E+00  0.000E+00  0.000E+00  4.12585E+01  1.562E-01  2.000E+01  2.000E+04 -6.929E-02
   1   12   17     1    17    1.1440E+05 -1.0458E+03   1.1545E+05  0.000E+00  0.000E+00  0.000E+00  4.07822E+01  1.572E-01  2.000E+01  2.000E+04 -5.229E-02
   1   12   18     1    18    1.1545E+05 -1.0819E+03   1.1653E+05  0.000E+00  0.000E+00  0.000E+00  4.03058E+01  1.581E-01  2.000E+01  2.000E+04 -5.409E-02
   1   12   19     1    19    1.1653E+05 -1.6203E+03   1.1815E+05  0.000E+00  0.000E+00  0.000E+00  3.98297E+01  1.592E-01  2.000E+01  2.000E+04 -8.101E-02
   1   13   20     1    20    1.1815E+05 -9.6157E+02   1.1911E+05  0.000E+00  0.000E+00  0.000E+00  3.93534E+01  1.603E-01  2.000E+01  2.000E+04 -4.808E-02
   1   14   21     1    21    1.1911E+05 -3.1941E+02   1.1943E+05  0.000E+00  0.000E+00  0.000E+00  3.88767E+01  1.608E-01  2.000E+01  2.000E+04 -1.597E-02
   1   14   22     1    22    1.1943E+05  5.2633E+03   1.1417E+05  0.000E+00  0.000E+00  0.000E+00  3.83974E+01  1.588E-01  2.000E+01  2.000E+04  2.632E-01
   1    9   30     2     1    5.0000E+04  2.1580E+03   4.7842E+04  0.000E+00  0.000E+00  0.000E+00  4.02394E+01  1.144E-01  2.000E+01  2.000E+04  1.079E-01
   1    9   29     2     2    4.7842E+04  4.1891E+03   4.3653E+04  0.000E+00  0.000E+00  0.000E+00  3.99848E+01  1.098E-01  2.000E+01  2.000E+04  2.095E-01
   1    9   28     2     3    4.3653E+04  9.8703E+02   4.2666E+04  0.000E+00  0.000E+00  0.000E+00  3.97311E+01  1.061E-01  2.000E+01  2.000E+04  4.935E-02
   1    9   27     2     4    4.2666E+04 -1.3241E+03   4.3990E+04  0.000E+00  0.000E+00  0.000E+00  3.94813E+01  1.063E-01  2.000E+01  2.000E+04 -6.621E-02
   1   10   26     2     5    4.3990E+04 -2.2262E+02   4.4213E+04  0.000E+00  0.000E+00  0.000E+00  3.92325E+01  1.075E-01  2.000E+01  2.000E+04 -1.113E-02
   1   11   25     2     6    4.4213E+04 -5.5836E+02   4.4771E+04  0.000E+00  0.000E+00  0.000E+00  3.89830E+01  1.080E-01  2.000E+01  2.000E+04 -2.792E-02
   1   12   24     2     7    4.4771E+04 -1.0027E+03   4.5774E+04  0.000E+00  0.000E+00  0.000E+00  3.87342E+01  1.092E-01  2.000E+01  2.000E+04 -5.014E-02
   1   13   23     2     8    4.5774E+04 -1.5736E+02   4.5931E+04  0.000E+00  0.000E+00  0.000E+00  3.84850E+01  1.100E-01  2.000E+01  2.000E+04 -7.868E-03
   1   14   22     2     9    4.5931E+04  1.9885E+03   4.3943E+04  0.000E+00  0.000E+00  0.000E+00  3.82337E+01  1.087E-01  2.000E+01  2.000E+04  9.943E-02
   1   14   22     3     1    1.5811E+05 -8.3639E+03   1.6647E+05  0.000E+00  0.000E+00  0.000E+00  3.77161E+01  1.605E-01  2.000E+01  2.000E+04 -4.182E-01
   1   15   23     3     2    1.6647E+05 -2.0591E+02   1.6668E+05  0.000E+00  0.000E+00  0.000E+00  3.68297E+01  1.630E-01  2.000E+01  2.000E+04 -1.030E-02
   1   15   24     3     3    1.6668E+05 -1.0931E+02   1.6679E+05  0.000E+00  0.000E+00  0.000E+00  3.59409E+01  1.631E-01  2.000E+01  2.000E+04 -5.465E-03
   1   15   25     3     4    1.6679E+05 -1.1129E+02   1.6690E+05  0.000E+00  0.000E+00  0.000E+00  3.50521E+01  1.632E-01  2.000E+01  2.000E+04 -5.564E-03
   1   15   26     3     5    1.6690E+05 -1.2083E+02   1.6702E+05  0.000E+00  0.000E+00  0.000E+00  3.41633E+01  1.633E-01  2.000E+01  2.000E+04 -6.042E-03
   1   16   27     3     6    1.6702E+05 -3.9894E+01   1.6706E+05  0.000E+00  0.000E+00  0.000E+00  3.32744E+01  1.633E-01  2.000E+01  2.000E+04 -1.995E-03
   1   17   28     3     7    1.6706E+05  6.4614E+02   1.6641E+05  0.000E+00  0.000E+00  0.000E+00  3.23853E+01  1.631E-01  2.000E+01  2.000E+04  3.231E-02
   1   18   29     3     8    1.6641E+05  4.1458E+03   1.6227E+05  0.000E+00  0.000E+00  0.000E+00  3.14950E+01  1.617E-01  2.000E+01  2.000E+04  2.073E-01
   1   18   30     3     9    1.6227E+05  4.6377E+02   1.6181E+05  0.000E+00  0.000E+00  0.000E+00  3.06048E+01  1.603E-01  2.000E+01  2.000E+04  2.319E-02



1
              HEAD IN LAYER   1 AT END OF TIME STEP   1 IN STRESS PERIOD   11
  ---------------------------------------------------------------------------

          1      2      3      4      5      6      7      8      9     10
         11     12     13     14     15     16     17     18     19     20
         21     22     23     24     25     26     27     28     29     30
 .........................................................................
   1  ****** ****** ****** ****** ****** ****** ****** ****** ****** ******
      ****** ****** ****** ****** ****** ****** ****** ****** ****** ******
      ****** ****** ****** ****** ****** ****** ****** ****** ****** ******
   2  ****** ****** ****** ****** ****** ****** ****** ****** ****** ******
      ****** ****** ****** ****** ****** ****** ****** ****** ****** ******
      ****** ****** ****** ****** ****** ****** ****** ****** ****** ******
   3  ****** ****** ****** ****** ****** ****** ****** ****** ****** ******
      ****** ****** ****** ****** ****** ****** ****** ****** ****** ******
      ****** ****** ****** ****** ****** ****** ****** ****** ****** ******
   4  ****** ****** ****** ****** ****** ****** ****** ****** ****** ******
      ****** ****** ****** ****** ****** ****** ****** ****** ****** ******
      ****** ****** ****** ****** ****** ****** ****** ****** ****** ******
   5  ****** ****** ****** ****** ****** ****** ****** ****** ****** ******
      ****** ****** ****** ****** ****** ****** ****** ****** ****** ******
      ****** ****** ****** ****** ****** ****** ****** ****** ****** ******
   6  ****** ****** ****** ****** ****** ****** ****** ****** ****** ******
      ****** ****** ****** ****** ****** ****** ****** ****** ****** ******
      ****** ****** ****** ****** ****** ****** ****** ****** ****** ******
   7  ****** ****** ****** ****** ****** ****** ****** ****** ****** ******
      ****** ****** ****** ****** ****** ****** ****** ****** ****** ******
      ****** ****** ****** ****** ****** ****** ****** ****** ****** ******
   8  ****** ****** ****** ****** ****** ****** ****** ****** ****** ******
      ****** ****** ****** ****** ****** ****** ****** ****** ****** ******
      ****** ****** ****** ****** ****** ****** ****** ****** ****** ******
   9  ****** ****** ****** ****** ****** ****** ****** ****** ****** ******
      ****** ****** ****** ****** ****** ****** ****** ****** ****** ******
      ****** ****** ****** ****** ****** ****** ****** ****** ****** ******
  10  ****** ****** ****** ****** ****** ****** ****** ****** ****** ******
      ****** ****** ****** ****** ****** ****** ****** ****** ****** ******
      ****** ****** ****** ****** ****** ****** ****** ****** ****** ******
  11  ****** ****** ****** ****** ****** ****** ****** ****** ****** ******
      ****** ****** ****** ****** ****** ****** ****** ****** ****** ******
      ****** ****** ****** ****** ****** ****** ****** ****** ****** ******
  12  ****** ****** ****** ****** ****** ****** ****** ****** ****** ******
      ****** ****** ****** ****** ****** ****** ****** ****** ****** ******
      ****** ****** ****** ****** ****** ****** ****** ****** ****** ******
  13  ****** ****** ****** ****** ****** ****** ****** ****** ****** ******
      ****** ****** ****** ****** ****** ****** ****** ****** ****** ******
      ****** ****** ****** ****** ****** ****** ****** ****** ****** ******
  14  ****** ****** ****** ****** ****** ****** ****** ****** ****** ******
      ****** ****** ****** ****** ****** ****** ****** ****** ****** ******
      ****** ****** ****** ****** ****** ****** ****** ****** ****** ******
  15  ****** ****** ****** ****** ****** ****** ****** ****** ****** ******
      ****** ****** ****** ****** ****** ****** ****** ****** ****** ******
      ****** ****** ****** ****** ****** ****** ****** ****** ****** ******
  16  ****** ****** ****** ****** ****** ****** ****** ****** ****** ******
      ****** ****** ****** ****** ****** ****** ****** ****** ****** ******
      ****** ****** ****** ****** ****** ****** ****** ****** ****** ******
  17  ****** ****** ****** ****** ****** ****** ****** ****** ****** ******
      ****** ****** ****** ****** ****** ****** ****** ****** ****** ******
      ****** ****** ****** ****** ****** ****** ****** ****** ****** ******
  18  ****** ****** ****** ****** ****** ****** ****** ****** ****** ******
      ****** ****** ****** ****** ****** ****** ****** ****** ****** ******
      ****** ****** ****** ****** ****** ****** ****** ****** ****** ******
  19  ****** ****** ****** ****** ****** ****** ****** ****** ****** ******
      ****** ****** ****** ****** ****** ****** ****** ****** ****** ******
      ****** ****** ****** ****** ****** ****** ****** ****** ****** ******
  20  ****** ****** ****** ****** ****** ****** ****** ****** ****** ******
      ****** ****** ****** ****** ****** ****** ****** ****** ****** ******
      ****** ****** ****** ****** ****** ****** ****** ****** ****** ******
  21  ****** ****** ****** ****** ****** ****** ****** ****** ****** ******
      ****** ****** ****** ****** ****** ****** ****** ****** ****** ******
      ****** ****** ****** ****** ****** ****** ****** ****** ****** ******
  22  ****** ****** ****** ****** ****** ****** ****** ****** ****** ******
      ****** ****** ****** ****** ****** ****** ****** ****** ****** ******
      ****** ****** ****** ****** ****** ****** ****** ****** ****** ******
  23  ****** ****** ****** ****** ****** ****** ****** ****** ****** ******
      ****** ****** ****** ****** ****** ****** ****** ****** ****** ******
      ****** ****** ****** ****** ****** ****** ****** ****** ****** ******
  24  ****** ****** ****** ****** ****** ****** ****** ****** ****** ******
      ****** ****** ****** ****** ****** ****** ****** ****** ****** ******
      ****** ****** ****** ****** ****** ****** ****** ****** ****** ******
  25  ****** ****** ****** ****** ****** ****** ****** ****** ****** ******
      ****** ****** ****** ****** ****** ****** ****** ****** ****** ******
      ****** ****** ****** ****** ****** ****** ****** ****** ****** ******

 HEAD WILL BE SAVED ON UNIT   51 AT END OF TIME STEP    1, STRESS PERIOD   11
1
  VOLUMETRIC BUDGET FOR ENTIRE MODEL AT END OF TIME STEP    1, STRESS PERIOD  11
  ------------------------------------------------------------------------------

     CUMULATIVE VOLUMES      L**3       RATES FOR THIS TIME STEP      L**3/T
     ------------------                 ------------------------

           IN:                                      IN:
           ---                                      ---
             STORAGE =    36631957.9270               STORAGE =       18056.2122
       CONSTANT HEAD =    29544504.8907         CONSTANT HEAD =       36043.9736
               WELLS =           0.0000                 WELLS =           0.0000
            RECHARGE =    23901600.0000              RECHARGE =           0.0000
      STREAM LEAKAGE =    15783373.1400        STREAM LEAKAGE =       19841.6518

            TOTAL IN =   105861435.9576              TOTAL IN =       73941.8375

          OUT:                                     OUT:
          ----                                     ----
             STORAGE =     2277230.2811               STORAGE =           0.0000
       CONSTANT HEAD =           0.0000         CONSTANT HEAD =           0.0000
               WELLS =    42464285.7689                 WELLS =       42295.1053
            RECHARGE =           0.0000              RECHARGE =           0.0000
      STREAM LEAKAGE =    61119921.9090        STREAM LEAKAGE =       31646.7370

           TOTAL OUT =   105861437.9590             TOTAL OUT =       73941.8423

            IN - OUT =          -2.0014              IN - OUT =      -4.8048E-03

 PERCENT DISCREPANCY =          -0.00     PERCENT DISCREPANCY =          -0.00






         TIME SUMMARY AT END OF TIME STEP    1 IN STRESS PERIOD   11
                    SECONDS     MINUTES      HOURS       DAYS        YEARS
                    -----------------------------------------------------------
   TIME STEP LENGTH 7.86240E+06 1.31040E+05  2184.0      91.000     0.24914    
 STRESS PERIOD TIME 7.86240E+06 1.31040E+05  2184.0      91.000     0.24914    
         TOTAL TIME 8.67456E+07 1.44576E+06  24096.      1004.0      2.7488    
1
1
                            STRESS PERIOD NO.   12, LENGTH =   91.00000    
                            -----------------------------------------------

                              NUMBER OF TIME STEPS =     1

                               MULTIPLIER FOR DELT =     1.500

                            INITIAL TIME STEP SIZE =   91.00000    

 WELL NO.  LAYER   ROW   COL   STRESS RATE         
 --------------------------------------------------
      1      1     14      6       0.000    
      2      1      3      9       0.000    
      3      1     20     10       0.000    
      4      1     14     20       0.000    
      5      1     19     29     -0.1179E+05
      6      1     10     29     -0.1333E+05
      7      1     20     21      -8354.    
      8      1      8     12      -8823.    

      8 WELLS

                 RECHARGE =  1.000000E-03

 REUSING STREAM SEGMENT DATA FROM LAST STRESS PERIOD
 
 SOLVING FOR HEAD 


     7 CALLS TO PCG ROUTINE FOR TIME STEP   1 IN STRESS PERIOD   12
    24 TOTAL ITERATIONS

 OUTPUT CONTROL FOR STRESS PERIOD   12   TIME STEP    1
    SAVE BUDGET
    SAVE HEAD FOR ALL LAYERS
    PRINT HEAD FOR ALL LAYERS
 UBDSV2 SAVING "STREAMFLOW OUT  " ON UNIT  50 AT TIME STEP  1, STRESS PERIOD  12



 STREAM LISTING     PERIOD     12   STEP        1

 LAYER ROW COL. STREAM  RCH.  FLOW INTO     FLOW TO   FLOW OUT OF   OVRLND.     DIRECT     STREAM       STREAM     STREAM     STREAM   STREAMBED  STREAMBED
                SEG.NO.  NO.  STRM. RCH.    AQUIFER    STRM. RCH.    RUNOFF     PRECIP       ET          HEAD       DEPTH      WIDTH   CONDCTNC.   GRADIENT

   1   13    1     1     1    1.0000E+05 -1.3924E+03   1.0139E+05  0.000E+00  0.000E+00  0.000E+00  4.84066E+01  1.453E-01  2.000E+01  2.000E+04 -6.962E-02
   1   13    2     1     2    1.0139E+05 -2.2981E+03   1.0369E+05  0.000E+00  0.000E+00  0.000E+00  4.79309E+01  1.468E-01  2.000E+01  2.000E+04 -1.149E-01
   1   14    3     1     3    1.0369E+05 -4.0445E+02   1.0409E+05  0.000E+00  0.000E+00  0.000E+00  4.74548E+01  1.480E-01  2.000E+01  2.000E+04 -2.022E-02
   1   15    4     1     4    1.0409E+05 -3.8730E+02   1.0448E+05  0.000E+00  0.000E+00  0.000E+00  4.69779E+01  1.483E-01  2.000E+01  2.000E+04 -1.936E-02
   1   16    5     1     5    1.0448E+05 -1.5349E+03   1.0602E+05  0.000E+00  0.000E+00  0.000E+00  4.65014E+01  1.492E-01  2.000E+01  2.000E+04 -7.674E-02
   1   16    6     1     6    1.0602E+05 -9.5375E+02   1.0697E+05  0.000E+00  0.000E+00  0.000E+00  4.60252E+01  1.502E-01  2.000E+01  2.000E+04 -4.769E-02
   1   16    7     1     7    1.0697E+05 -9.2324E+02   1.0789E+05  0.000E+00  0.000E+00  0.000E+00  4.55487E+01  1.510E-01  2.000E+01  2.000E+04 -4.616E-02
   1   16    8     1     8    1.0789E+05 -9.0483E+02   1.0880E+05  0.000E+00  0.000E+00  0.000E+00  4.50722E+01  1.518E-01  2.000E+01  2.000E+04 -4.524E-02
   1   16    9     1     9    1.0880E+05 -8.7996E+02   1.0968E+05  0.000E+00  0.000E+00  0.000E+00  4.45957E+01  1.525E-01  2.000E+01  2.000E+04 -4.400E-02
   1   16   10     1    10    1.0968E+05 -8.4564E+02   1.1052E+05  0.000E+00  0.000E+00  0.000E+00  4.41192E+01  1.533E-01  2.000E+01  2.000E+04 -4.228E-02
   1   16   11     1    11    1.1052E+05 -8.0813E+02   1.1133E+05  0.000E+00  0.000E+00  0.000E+00  4.36426E+01  1.539E-01  2.000E+01  2.000E+04 -4.041E-02
   1   16   12     1    12    1.1133E+05 -1.1564E+03   1.1249E+05  0.000E+00  0.000E+00  0.000E+00  4.31661E+01  1.548E-01  2.000E+01  2.000E+04 -5.782E-02
   1   15   13     1    13    1.1249E+05 -8.4285E+02   1.1333E+05  0.000E+00  0.000E+00  0.000E+00  4.26897E+01  1.556E-01  2.000E+01  2.000E+04 -4.214E-02
   1   14   14     1    14    1.1333E+05 -8.9384E+02   1.1423E+05  0.000E+00  0.000E+00  0.000E+00  4.22131E+01  1.563E-01  2.000E+01  2.000E+04 -4.469E-02
   1   13   15     1    15    1.1423E+05 -1.0507E+03   1.1528E+05  0.000E+00  0.000E+00  0.000E+00  4.17366E+01  1.571E-01  2.000E+01  2.000E+04 -5.254E-02
   1   12   16     1    16    1.1528E+05 -1.5675E+03   1.1684E+05  0.000E+00  0.000E+00  0.000E+00  4.12604E+01  1.582E-01  2.000E+01  2.000E+04 -7.837E-02
   1   12   17     1    17    1.1684E+05 -1.1983E+03   1.1804E+05  0.000E+00  0.000E+00  0.000E+00  4.07843E+01  1.593E-01  2.000E+01  2.000E+04 -5.992E-02
   1   12   18     1    18    1.1804E+05 -1.2367E+03   1.1928E+05  0.000E+00  0.000E+00  0.000E+00  4.03080E+01  1.603E-01  2.000E+01  2.000E+04 -6.184E-02
   1   12   19     1    19    1.1928E+05 -1.8119E+03   1.2109E+05  0.000E+00  0.000E+00  0.000E+00  3.98320E+01  1.615E-01  2.000E+01  2.000E+04 -9.060E-02
   1   13   20     1    20    1.2109E+05 -1.1715E+03   1.2226E+05  0.000E+00  0.000E+00  0.000E+00  3.93559E+01  1.627E-01  2.000E+01  2.000E+04 -5.857E-02
   1   14   21     1    21    1.2226E+05 -5.1308E+02   1.2278E+05  0.000E+00  0.000E+00  0.000E+00  3.88793E+01  1.634E-01  2.000E+01  2.000E+04 -2.565E-02
   1   14   22     1    22    1.2278E+05  5.2089E+03   1.1757E+05  0.000E+00  0.000E+00  0.000E+00  3.84001E+01  1.615E-01  2.000E+01  2.000E+04  2.604E-01
   1    9   30     2     1    5.0000E+04  1.9817E+03   4.8018E+04  0.000E+00  0.000E+00  0.000E+00  4.02395E+01  1.145E-01  2.000E+01  2.000E+04  9.909E-02
   1    9   29     2     2    4.8018E+04  4.0148E+03   4.4003E+04  0.000E+00  0.000E+00  0.000E+00  3.99852E+01  1.102E-01  2.000E+01  2.000E+04  2.007E-01
   1    9   28     2     3    4.4003E+04  8.1638E+02   4.3187E+04  0.000E+00  0.000E+00  0.000E+00  3.97317E+01  1.067E-01  2.000E+01  2.000E+04  4.082E-02
   1    9   27     2     4    4.3187E+04 -1.5328E+03   4.4720E+04  0.000E+00  0.000E+00  0.000E+00  3.94822E+01  1.072E-01  2.000E+01  2.000E+04 -7.664E-02
   1   10   26     2     5    4.4720E+04 -4.5202E+02   4.5172E+04  0.000E+00  0.000E+00  0.000E+00  3.92337E+01  1.087E-01  2.000E+01  2.000E+04 -2.260E-02
   1   11   25     2     6    4.5172E+04 -7.8385E+02   4.5956E+04  0.000E+00  0.000E+00  0.000E+00  3.89846E+01  1.096E-01  2.000E+01  2.000E+04 -3.919E-02
   1   12   24     2     7    4.5956E+04 -1.2085E+03   4.7164E+04  0.000E+00  0.000E+00  0.000E+00  3.87360E+01  1.110E-01  2.000E+01  2.000E+04 -6.042E-02
   1   13   23     2     8    4.7164E+04 -2.3490E+02   4.7399E+04  0.000E+00  0.000E+00  0.000E+00  3.84870E+01  1.120E-01  2.000E+01  2.000E+04 -1.175E-02
   1   14   22     2     9    4.7399E+04  1.9227E+03   4.5476E+04  0.000E+00  0.000E+00  0.000E+00  3.82358E+01  1.108E-01  2.000E+01  2.000E+04  9.614E-02
   1   14   22     3     1    1.6304E+05 -8.4144E+03   1.7146E+05  0.000E+00  0.000E+00  0.000E+00  3.77190E+01  1.634E-01  2.000E+01  2.000E+04 -4.207E-01
   1   15   23     3     2    1.7146E+05 -2.7784E+02   1.7174E+05  0.000E+00  0.000E+00  0.000E+00  3.68326E+01  1.660E-01  2.000E+01  2.000E+04 -1.389E-02
   1   15   24     3     3    1.7174E+05 -1.7433E+02   1.7191E+05  0.000E+00  0.000E+00  0.000E+00  3.59439E+01  1.661E-01  2.000E+01  2.000E+04 -8.717E-03
   1   15   25     3     4    1.7191E+05 -1.7759E+02   1.7209E+05  0.000E+00  0.000E+00  0.000E+00  3.50551E+01  1.662E-01  2.000E+01  2.000E+04 -8.879E-03
   1   15   26     3     5    1.7209E+05 -1.9827E+02   1.7229E+05  0.000E+00  0.000E+00  0.000E+00  3.41663E+01  1.663E-01  2.000E+01  2.000E+04 -9.914E-03
   1   16   27     3     6    1.7229E+05 -1.2661E+02   1.7241E+05  0.000E+00  0.000E+00  0.000E+00  3.32775E+01  1.664E-01  2.000E+01  2.000E+04 -6.331E-03
   1   17   28     3     7    1.7241E+05  4.2563E+02   1.7199E+05  0.000E+00  0.000E+00  0.000E+00  3.23885E+01  1.663E-01  2.000E+01  2.000E+04  2.128E-02
   1   18   29     3     8    1.7199E+05  3.9457E+03   1.6804E+05  0.000E+00  0.000E+00  0.000E+00  3.14984E+01  1.650E-01  2.000E+01  2.000E+04  1.973E-01
   1   18   30     3     9    1.6804E+05  2.9598E+02   1.6774E+05  0.000E+00  0.000E+00  0.000E+00  3.06082E+01  1.638E-01  2.000E+01  2.000E+04  1.480E-02



1
              HEAD IN LAYER   1 AT END OF TIME STEP   1 IN STRESS PERIOD   12
  ---------------------------------------------------------------------------

          1      2      3      4      5      6      7      8      9     10
         11     12     13     14     15     16     17     18     19     20
         21     22     23     24     25     26     27     28     29     30
 .........................................................................
   1  ****** ****** ****** ****** ****** ****** ****** ****** ****** ******
      ****** ****** ****** ****** ****** ****** ****** ****** ****** ******
      ****** ****** ****** ****** ****** ****** ****** ****** ****** ******
   2  ****** ****** ****** ****** ****** ****** ****** ****** ****** ******
      ****** ****** ****** ****** ****** ****** ****** ****** ****** ******
      ****** ****** ****** ****** ****** ****** ****** ****** ****** ******
   3  ****** ****** ****** ****** ****** ****** ****** ****** ****** ******
      ****** ****** ****** ****** ****** ****** ****** ****** ****** ******
      ****** ****** ****** ****** ****** ****** ****** ****** ****** ******
   4  ****** ****** ****** ****** ****** ****** ****** ****** ****** ******
      ****** ****** ****** ****** ****** ****** ****** ****** ****** ******
      ****** ****** ****** ****** ****** ****** ****** ****** ****** ******
   5  ****** ****** ****** ****** ****** ****** ****** ****** ****** ******
      ****** ****** ****** ****** ****** ****** ****** ****** ****** ******
      ****** ****** ****** ****** ****** ****** ****** ****** ****** ******
   6  ****** ****** ****** ****** ****** ****** ****** ****** ****** ******
      ****** ****** ****** ****** ****** ****** ****** ****** ****** ******
      ****** ****** ****** ****** ****** ****** ****** ****** ****** ******
   7  ****** ****** ****** ****** ****** ****** ****** ****** ****** ******
      ****** ****** ****** ****** ****** ****** ****** ****** ****** ******
      ****** ****** ****** ****** ****** ****** ****** ****** ****** ******
   8  ****** ****** ****** ****** ****** ****** ****** ****** ****** ******
      ****** ****** ****** ****** ****** ****** ****** ****** ****** ******
      ****** ****** ****** ****** ****** ****** ****** ****** ****** ******
   9  ****** ****** ****** ****** ****** ****** ****** ****** ****** ******
      ****** ****** ****** ****** ****** ****** ****** ****** ****** ******
      ****** ****** ****** ****** ****** ****** ****** ****** ****** ******
  10  ****** ****** ****** ****** ****** ****** ****** ****** ****** ******
      ****** ****** ****** ****** ****** ****** ****** ****** ****** ******
      ****** ****** ****** ****** ****** ****** ****** ****** ****** ******
  11  ****** ****** ****** ****** ****** ****** ****** ****** ****** ******
      ****** ****** ****** ****** ****** ****** ****** ****** ****** ******
      ****** ****** ****** ****** ****** ****** ****** ****** ****** ******
  12  ****** ****** ****** ****** ****** ****** ****** ****** ****** ******
      ****** ****** ****** ****** ****** ****** ****** ****** ****** ******
      ****** ****** ****** ****** ****** ****** ****** ****** ****** ******
  13  ****** ****** ****** ****** ****** ****** ****** ****** ****** ******
      ****** ****** ****** ****** ****** ****** ****** ****** ****** ******
      ****** ****** ****** ****** ****** ****** ****** ****** ****** ******
  14  ****** ****** ****** ****** ****** ****** ****** ****** ****** ******
      ****** ****** ****** ****** ****** ****** ****** ****** ****** ******
      ****** ****** ****** ****** ****** ****** ****** ****** ****** ******
  15  ****** ****** ****** ****** ****** ****** ****** ****** ****** ******
      ****** ****** ****** ****** ****** ****** ****** ****** ****** ******
      ****** ****** ****** ****** ****** ****** ****** ****** ****** ******
  16  ****** ****** ****** ****** ****** ****** ****** ****** ****** ******
      ****** ****** ****** ****** ****** ****** ****** ****** ****** ******
      ****** ****** ****** ****** ****** ****** ****** ****** ****** ******
  17  ****** ****** ****** ****** ****** ****** ****** ****** ****** ******
      ****** ****** ****** ****** ****** ****** ****** ****** ****** ******
      ****** ****** ****** ****** ****** ****** ****** ****** ****** ******
  18  ****** ****** ****** ****** ****** ****** ****** ****** ****** ******
      ****** ****** ****** ****** ****** ****** ****** ****** ****** ******
      ****** ****** ****** ****** ****** ****** ****** ****** ****** ******
  19  ****** ****** ****** ****** ****** ****** ****** ****** ****** ******
      ****** ****** ****** ****** ****** ****** ****** ****** ****** ******
      ****** ****** ****** ****** ****** ****** ****** ****** ****** ******
  20  ****** ****** ****** ****** ****** ****** ****** ****** ****** ******
      ****** ****** ****** ****** ****** ****** ****** ****** ****** ******
      ****** ****** ****** ****** ****** ****** ****** ****** ****** ******
  21  ****** ****** ****** ****** ****** ****** ****** ****** ****** ******
      ****** ****** ****** ****** ****** ****** ****** ****** ****** ******
      ****** ****** ****** ****** ****** ****** ****** ****** ****** ******
  22  ****** ****** ****** ****** ****** ****** ****** ****** ****** ******
      ****** ****** ****** ****** ****** ****** ****** ****** ****** ******
      ****** ****** ****** ****** ****** ****** ****** ****** ****** ******
  23  ****** ****** ****** ****** ****** ****** ****** ****** ****** ******
      ****** ****** ****** ****** ****** ****** ****** ****** ****** ******
      ****** ****** ****** ****** ****** ****** ****** ****** ****** ******
  24  ****** ****** ****** ****** ****** ****** ****** ****** ****** ******
      ****** ****** ****** ****** ****** ****** ****** ****** ****** ******
      ****** ****** ****** ****** ****** ****** ****** ****** ****** ******
  25  ****** ****** ****** ****** ****** ****** ****** ****** ****** ******
      ****** ****** ****** ****** ****** ****** ****** ****** ****** ******
      ****** ****** ****** ****** ****** ****** ****** ****** ****** ******

 HEAD WILL BE SAVED ON UNIT   51 AT END OF TIME STEP    1, STRESS PERIOD   12
1
  VOLUMETRIC BUDGET FOR ENTIRE MODEL AT END OF TIME STEP    1, STRESS PERIOD  12
  ------------------------------------------------------------------------------

     CUMULATIVE VOLUMES      L**3       RATES FOR THIS TIME STEP      L**3/T
     ------------------                 ------------------------

           IN:                                      IN:
           ---                                      ---
             STORAGE =    36634306.2325               STORAGE =          25.8056
       CONSTANT HEAD =    32762020.1369         CONSTANT HEAD =       35357.3104
               WELLS =           0.0000                 WELLS =           0.0000
            RECHARGE =    26413200.0000              RECHARGE =       27600.0000
      STREAM LEAKAGE =    17477056.8414        STREAM LEAKAGE =       18611.9088

            TOTAL IN =   113286583.2109              TOTAL IN =       81595.0248

          OUT:                                     OUT:
          ----                                     ----
             STORAGE =     2545064.4761               STORAGE =        2943.2329
       CONSTANT HEAD =           0.0000         CONSTANT HEAD =           0.0000
               WELLS =    46313140.3555                 WELLS =       42295.1053
            RECHARGE =           0.0000              RECHARGE =           0.0000
      STREAM LEAKAGE =    64428380.3017        STREAM LEAKAGE =       36356.6856

           TOTAL OUT =   113286585.1333             TOTAL OUT =       81595.0239

            IN - OUT =          -1.9225              IN - OUT =       8.6693E-04

 PERCENT DISCREPANCY =          -0.00     PERCENT DISCREPANCY =           0.00






         TIME SUMMARY AT END OF TIME STEP    1 IN STRESS PERIOD   12
                    SECONDS     MINUTES      HOURS       DAYS        YEARS
                    -----------------------------------------------------------
   TIME STEP LENGTH 7.86240E+06 1.31040E+05  2184.0      91.000     0.24914    
 STRESS PERIOD TIME 7.86240E+06 1.31040E+05  2184.0      91.000     0.24914    
         TOTAL TIME 9.46080E+07 1.57680E+06  26280.      1095.0      2.9979    
1

 Run end date and time (yyyy/mm/dd hh:mm:ss): 2018/10/10 18:31:25
 Elapsed run time:  0.055 Seconds

