                                  MODFLOW-2005     
      U.S. GEOLOGICAL SURVEY MODULAR FINITE-DIFFERENCE GROUND-WATER FLOW MODEL
                            VERSION 1.11.00 8/8/2013

 LIST FILE: supply2.lst
                         UNIT   10

 OPENING ..\data\supply.dis
 FILE TYPE:DIS   UNIT   11   STATUS:OLD    
 FORMAT:FORMATTED              ACCESS:SEQUENTIAL          

 OPENING ..\data\supply.ba6
 FILE TYPE:BAS6   UNIT   12   STATUS:OLD    
 FORMAT:FORMATTED              ACCESS:SEQUENTIAL          

 OPENING ..\data\supply_het.bc6
 FILE TYPE:BCF6   UNIT   13   STATUS:OLD    
 FORMAT:FORMATTED              ACCESS:SEQUENTIAL          

 OPENING ..\data\supply.rch
 FILE TYPE:RCH   UNIT   15   STATUS:OLD    
 FORMAT:FORMATTED              ACCESS:SEQUENTIAL          

 OPENING ..\data\supply2.sfr
 FILE TYPE:SFR   UNIT   16   STATUS:OLD    
 FORMAT:FORMATTED              ACCESS:SEQUENTIAL          

 OPENING ..\data\supply.oc
 FILE TYPE:OC   UNIT   17   STATUS:OLD    
 FORMAT:FORMATTED              ACCESS:SEQUENTIAL          

 OPENING ..\data\supply.pcg
 FILE TYPE:PCG   UNIT   18   STATUS:OLD    
 FORMAT:FORMATTED              ACCESS:SEQUENTIAL          

 OPENING supply2.wel
 FILE TYPE:WEL   UNIT   19   STATUS:OLD    
 FORMAT:FORMATTED              ACCESS:SEQUENTIAL          

 OPENING supply2sf.cbc
 FILE TYPE:DATA(BINARY)   UNIT   50   STATUS:UNKNOWN
 FORMAT:BINARY                 ACCESS:SEQUENTIAL          

 OPENING supply2hd.bhd
 FILE TYPE:DATA(BINARY)   UNIT   51   STATUS:UNKNOWN
 FORMAT:BINARY                 ACCESS:SEQUENTIAL          

 BAS -- BASIC PACKAGE, VERSION 7, 5/2/2005 INPUT READ FROM UNIT   12
 
 MODFLOW was compiled using uniform precision
 Precision of REAL and DOUBLE PRECISION variables:          15

 DISCRETIZATION INPUT DATA READ FROM UNIT   11
    1 LAYERS        25 ROWS        30 COLUMNS
   12 STRESS PERIOD(S) IN SIMULATION
 MODEL TIME UNIT IS DAYS
 MODEL LENGTH UNIT IS UNDEFINED
  Confining bed flag for each layer:
   0

                     DELR =   200.000    

                     DELC =   200.000    

 TOP ELEVATION OF LAYER 1 =  100.0000    

   MODEL LAYER BOTTOM EL. =   0.00000     FOR LAYER   1


 STRESS PERIOD     LENGTH       TIME STEPS     MULTIPLIER FOR DELT    SS FLAG
 ----------------------------------------------------------------------------
        1         92.00000          1                    1.500         TR
        2         91.00000          1                    1.500         TR
        3         91.00000          1                    1.500         TR
        4         91.00000          1                    1.500         TR
        5         92.00000          1                    1.500         TR
        6         91.00000          1                    1.500         TR
        7         91.00000          1                    1.500         TR
        8         91.00000          1                    1.500         TR
        9         92.00000          1                    1.500         TR
       10         91.00000          1                    1.500         TR
       11         91.00000          1                    1.500         TR
       12         91.00000          1                    1.500         TR

 TRANSIENT SIMULATION



 
 #MODOFC transient water supply sample problem                                   
 #                                                                               
 THE FREE FORMAT OPTION HAS BEEN SELECTED



                     BOUNDARY ARRAY FOR LAYER   1
 READING ON UNIT   12 WITH FORMAT: (20I4)              

 AQUIFER HEAD WILL BE SET TO   0.0000     AT ALL NO-FLOW NODES (IBOUND=0).



                       INITIAL HEAD FOR LAYER   1
 READING ON UNIT   12 WITH FORMAT: (10F13.0)           

 OUTPUT CONTROL IS SPECIFIED ONLY AT TIME STEPS FOR WHICH OUTPUT IS DESIRED
 COMPACT CELL-BY-CELL BUDGET FILES WILL BE WRITTEN
 HEAD PRINT FORMAT CODE IS  18    DRAWDOWN PRINT FORMAT CODE IS   0
 HEADS WILL BE SAVED ON UNIT   51    DRAWDOWNS WILL BE SAVED ON UNIT    0

 BCF -- BLOCK-CENTERED FLOW PACKAGE, VERSION 7, 5/2/2005
         INPUT READ FROM UNIT 13
 TRANSIENT SIMULATION
 HEAD AT CELLS THAT CONVERT TO DRY=   0.0000    
 WETTING CAPABILITY IS NOT ACTIVE
      LAYER  LAYER-TYPE CODE     INTERBLOCK T
      --------------------------------------------
         1            0          0 -- HARMONIC    

 COLUMN TO ROW ANISOTROPY =  1.000000    

     PRIMARY STORAGE COEF =  5.000000E-02 FOR LAYER   1



               TRANSMIS. ALONG ROWS FOR LAYER   1
 READING ON UNIT   13 WITH FORMAT: (FREE)              

 WEL -- WELL PACKAGE, VERSION 7, 5/2/2005 INPUT READ FROM UNIT   19
 # Well package input file written by MMProc
 No named parameters
 MAXIMUM OF      8 ACTIVE WELLS AT ONE TIME


     0 Well parameters

 RCH -- RECHARGE PACKAGE, VERSION 7, 5/2/2005 INPUT READ FROM UNIT   15
 No named parameters
 OPTION 1 -- RECHARGE TO TOP LAYER


     0 Recharge parameters

 SFR7 -- STREAMFLOW ROUTING PACKAGE, VERSION 1.0.7, 2013-01-15
         INPUT READ FROM UNIT  16
 #  Supply2 test problem for GWM-VI
 #  The eighth entry in the first data line is ISTCB2 -
 #    Setting this to a negative number indicates that
 #    streamflows out of the reach will be saved to a
 #    binary file.  The absolute value of ISTCB2 is the
 #    unit to which unformatted flows will be written.
 #
 No named parameters
 Segment information will not be 
 read by reach
 No named parameters
 No specifed inflow files


 NUMBER OF STREAM REACHES IS   40

 NUMBER OF STREAM SEGMENTS IS    3

 NUMBER OF STREAM PARAMETERS IS    0

 NUMBER OF STREAM SEGMENTS DEFINED USING PARAMETERS IS              0

 MAXIMUM ERROR FOR STREAM LEAKAGE RATES IS  1.00E-04

 CONSTANT FOR MANNINGS EQUATION IS  1.2839E+05





   STREAM NETWORK DESCRIPTION: 

   LAYER    ROW    COL   SEGMENT   REACH     LENGTH
                          NUMBER   NUMBER    IN CELL        
   --------------------------------------------------
      1     13      1       1        1    2.0000E+02
      1     13      2       1        2    2.0000E+02
      1     14      3       1        3    2.0000E+02
      1     15      4       1        4    2.0000E+02
      1     16      5       1        5    2.0000E+02
      1     16      6       1        6    2.0000E+02
      1     16      7       1        7    2.0000E+02
      1     16      8       1        8    2.0000E+02
      1     16      9       1        9    2.0000E+02
      1     16     10       1       10    2.0000E+02
      1     16     11       1       11    2.0000E+02
      1     16     12       1       12    2.0000E+02
      1     15     13       1       13    2.0000E+02
      1     14     14       1       14    2.0000E+02
      1     13     15       1       15    2.0000E+02
      1     12     16       1       16    2.0000E+02
      1     12     17       1       17    2.0000E+02
      1     12     18       1       18    2.0000E+02
      1     12     19       1       19    2.0000E+02
      1     13     20       1       20    2.0000E+02
      1     14     21       1       21    2.0000E+02
      1     14     22       1       22    2.0000E+02
      1      9     30       2        1    2.0000E+02
      1      9     29       2        2    2.0000E+02
      1      9     28       2        3    2.0000E+02
      1      9     27       2        4    2.0000E+02
      1     10     26       2        5    2.0000E+02
      1     11     25       2        6    2.0000E+02
      1     12     24       2        7    2.0000E+02
      1     13     23       2        8    2.0000E+02
      1     14     22       2        9    2.0000E+02
      1     14     22       3        1    2.0000E+02
      1     15     23       3        2    2.0000E+02
      1     15     24       3        3    2.0000E+02
      1     15     25       3        4    2.0000E+02
      1     15     26       3        5    2.0000E+02
      1     16     27       3        6    2.0000E+02
      1     17     28       3        7    2.0000E+02
      1     18     29       3        8    2.0000E+02
      1     18     30       3        9    2.0000E+02




 PCG -- CONJUGATE-GRADIENT SOLUTION PACKAGE, VERSION 7, 5/2/2005
 MAXIMUM OF    500 CALLS OF SOLUTION ROUTINE
 MAXIMUM OF      5 INTERNAL ITERATIONS PER CALL TO SOLUTION ROUTINE
 MATRIX PRECONDITIONING TYPE :    1



                                    SOLUTION BY THE CONJUGATE-GRADIENT METHOD
                                   -------------------------------------------
                    MAXIMUM NUMBER OF CALLS TO PCG ROUTINE =      500
                        MAXIMUM ITERATIONS PER CALL TO PCG =        5
                               MATRIX PRECONDITIONING TYPE =        1
        RELAXATION FACTOR (ONLY USED WITH PRECOND. TYPE 1) =    0.10000E+01
 PARAMETER OF POLYNOMIAL PRECOND. = 2 (2) OR IS CALCULATED :        0
                         HEAD CHANGE CRITERION FOR CLOSURE =    0.10000E-05
                     RESIDUAL CHANGE CRITERION FOR CLOSURE =    0.10000E+01
            PCG HEAD AND RESIDUAL CHANGE PRINTOUT INTERVAL =        1
     PRINTING FROM SOLVER IS LIMITED(1) OR SUPPRESSED (>1) =        1
                            STEADY-STATE DAMPING PARAMETER =    0.10000E+01
                               TRANSIENT DAMPING PARAMETER =    0.10000E+01
1
                            STRESS PERIOD NO.    1, LENGTH =   92.00000    
                            -----------------------------------------------

                              NUMBER OF TIME STEPS =     1

                               MULTIPLIER FOR DELT =     1.500

                            INITIAL TIME STEP SIZE =   92.00000    

 WELL NO.  LAYER   ROW   COL   STRESS RATE         
 --------------------------------------------------
      1      1     14      6       0.000    
      2      1      3      9       0.000    
      3      1     20     10       0.000    
      4      1     14     20       0.000    
      5      1      6     26      -9457.    
      6      1     23      4      -2056.    
      7      1     12     10      -1573.    
      8      1      4      5      -6588.    

      8 WELLS

                 RECHARGE =  5.000000E-04



 CLASSIFICATION & COUNT OF STREAM SEGMENTS BASED ON SOURCE OF INFLOW:

                HEADWATER     DIVERSION     RECEIVES TRIBUTARY FLOW
                ---------     ---------     -----------------------
                     2              0               1



                    INPUT DATA FOR EACH STREAM SEGMENT
 ---------------------------------------------------------------------------------------------

 SEGMENT    SEG.     INFLOW   OVERLAND   STREAM    STREAM   ICALC  OUTFLOW  DIVERSION PRIORITY
    NO.    LENGTH     RATE     RUNOFF      ET       PPT.    METH.  TO SEG.  FROM SEG.    NO.

      1  4.400E+03 1.000E+05 0.000E+00 0.000E+00 0.000E+00    1        3        0        0
      2  1.800E+03 5.000E+04 0.000E+00 0.000E+00 0.000E+00    1        3        0        0
      3  1.800E+03 0.000E+00 0.000E+00 0.000E+00 0.000E+00    1        0        0        0


         STREAMBED PROPERTIES AND STREAM DIMENSIONS

 SEGMENT     BED HYD. COND.      BED THICKNESS     ELEV.-TOP OF BED     WIDTH OF STREAM     DEPTH OF STREAM    STREAM ROUGHNESS
    No.     UPPER     LOWER     UPPER     LOWER     UPPER     LOWER     UPPER     LOWER     UPPER     LOWER   CHANNEL      BANK

     1  5.000E+00 5.000E+00 1.000E+00 1.000E+00 4.850E+01 3.800E+01 2.000E+01 2.000E+01                     5.000E-02
     2  5.000E+00 5.000E+00 1.000E+00 1.000E+00 4.025E+01 3.800E+01 2.000E+01 2.000E+01                     5.000E-02
     3  5.000E+00 5.000E+00 1.000E+00 1.000E+00 3.800E+01 3.000E+01 2.000E+01 2.000E+01                     5.000E-02



 
 SOLVING FOR HEAD 


     9 CALLS TO PCG ROUTINE FOR TIME STEP   1 IN STRESS PERIOD    1
    36 TOTAL ITERATIONS

 OUTPUT CONTROL FOR STRESS PERIOD    1   TIME STEP    1
    SAVE BUDGET
    SAVE HEAD FOR ALL LAYERS
    PRINT HEAD FOR ALL LAYERS
 UBDSV2 SAVING "STREAMFLOW OUT  " ON UNIT  50 AT TIME STEP  1, STRESS PERIOD   1



 STREAM LISTING     PERIOD      1   STEP        1

 LAYER ROW COL. STREAM  RCH.  FLOW INTO     FLOW TO   FLOW OUT OF   OVRLND.     DIRECT     STREAM       STREAM     STREAM     STREAM   STREAMBED  STREAMBED
                SEG.NO.  NO.  STRM. RCH.    AQUIFER    STRM. RCH.    RUNOFF     PRECIP       ET          HEAD       DEPTH      WIDTH   CONDCTNC.   GRADIENT

   1   13    1     1     1    1.0000E+05 -5.9323E+03   1.0593E+05  0.000E+00  0.000E+00  0.000E+00  4.84086E+01  1.472E-01  2.000E+01  2.000E+04 -2.966E-01
   1   13    2     1     2    1.0593E+05 -7.3984E+03   1.1333E+05  0.000E+00  0.000E+00  0.000E+00  4.79369E+01  1.529E-01  2.000E+01  2.000E+04 -3.699E-01
   1   14    3     1     3    1.1333E+05 -2.1824E+03   1.1551E+05  0.000E+00  0.000E+00  0.000E+00  4.74636E+01  1.568E-01  2.000E+01  2.000E+04 -1.091E-01
   1   15    4     1     4    1.1551E+05 -2.2510E+03   1.1776E+05  0.000E+00  0.000E+00  0.000E+00  4.69882E+01  1.586E-01  2.000E+01  2.000E+04 -1.125E-01
   1   16    5     1     5    1.1776E+05 -7.0582E+03   1.2482E+05  0.000E+00  0.000E+00  0.000E+00  4.65147E+01  1.624E-01  2.000E+01  2.000E+04 -3.529E-01
   1   16    6     1     6    1.2482E+05 -4.2427E+03   1.2906E+05  0.000E+00  0.000E+00  0.000E+00  4.60419E+01  1.669E-01  2.000E+01  2.000E+04 -2.121E-01
   1   16    7     1     7    1.2906E+05 -4.0879E+03   1.3315E+05  0.000E+00  0.000E+00  0.000E+00  4.55679E+01  1.702E-01  2.000E+01  2.000E+04 -2.044E-01
   1   16    8     1     8    1.3315E+05 -4.0519E+03   1.3720E+05  0.000E+00  0.000E+00  0.000E+00  4.50938E+01  1.733E-01  2.000E+01  2.000E+04 -2.026E-01
   1   16    9     1     9    1.3720E+05 -4.0432E+03   1.4125E+05  0.000E+00  0.000E+00  0.000E+00  4.46196E+01  1.764E-01  2.000E+01  2.000E+04 -2.022E-01
   1   16   10     1    10    1.4125E+05 -4.0454E+03   1.4529E+05  0.000E+00  0.000E+00  0.000E+00  4.41454E+01  1.795E-01  2.000E+01  2.000E+04 -2.023E-01
   1   16   11     1    11    1.4529E+05 -4.0988E+03   1.4939E+05  0.000E+00  0.000E+00  0.000E+00  4.36712E+01  1.825E-01  2.000E+01  2.000E+04 -2.049E-01
   1   16   12     1    12    1.4939E+05 -6.9758E+03   1.5637E+05  0.000E+00  0.000E+00  0.000E+00  4.31980E+01  1.866E-01  2.000E+01  2.000E+04 -3.488E-01
   1   15   13     1    13    1.5637E+05 -7.2593E+03   1.6363E+05  0.000E+00  0.000E+00  0.000E+00  4.27259E+01  1.918E-01  2.000E+01  2.000E+04 -3.630E-01
   1   14   14     1    14    1.6363E+05 -7.7508E+03   1.7138E+05  0.000E+00  0.000E+00  0.000E+00  4.22539E+01  1.971E-01  2.000E+01  2.000E+04 -3.875E-01
   1   13   15     1    15    1.7138E+05 -8.1103E+03   1.7949E+05  0.000E+00  0.000E+00  0.000E+00  4.17822E+01  2.027E-01  2.000E+01  2.000E+04 -4.055E-01
   1   12   16     1    16    1.7949E+05 -8.7705E+03   1.8826E+05  0.000E+00  0.000E+00  0.000E+00  4.13107E+01  2.085E-01  2.000E+01  2.000E+04 -4.385E-01
   1   12   17     1    17    1.8826E+05 -6.2637E+03   1.9452E+05  0.000E+00  0.000E+00  0.000E+00  4.08385E+01  2.135E-01  2.000E+01  2.000E+04 -3.132E-01
   1   12   18     1    18    1.9452E+05 -6.1067E+03   2.0063E+05  0.000E+00  0.000E+00  0.000E+00  4.03654E+01  2.177E-01  2.000E+01  2.000E+04 -3.053E-01
   1   12   19     1    19    2.0063E+05 -7.6482E+03   2.0828E+05  0.000E+00  0.000E+00  0.000E+00  3.98926E+01  2.222E-01  2.000E+01  2.000E+04 -3.824E-01
   1   13   20     1    20    2.0828E+05 -6.8033E+03   2.1508E+05  0.000E+00  0.000E+00  0.000E+00  3.94200E+01  2.268E-01  2.000E+01  2.000E+04 -3.402E-01
   1   14   21     1    21    2.1508E+05 -6.4266E+03   2.2151E+05  0.000E+00  0.000E+00  0.000E+00  3.89470E+01  2.311E-01  2.000E+01  2.000E+04 -3.213E-01
   1   14   22     1    22    2.2151E+05  3.6816E+03   2.1783E+05  0.000E+00  0.000E+00  0.000E+00  3.84706E+01  2.319E-01  2.000E+01  2.000E+04  1.841E-01
   1    9   30     2     1    5.0000E+04 -4.4234E+03   5.4423E+04  0.000E+00  0.000E+00  0.000E+00  4.02439E+01  1.189E-01  2.000E+01  2.000E+04 -2.212E-01
   1    9   29     2     2    5.4423E+04 -4.6458E+03   5.9069E+04  0.000E+00  0.000E+00  0.000E+00  4.00000E+01  1.250E-01  2.000E+01  2.000E+04 -2.323E-01
   1    9   28     2     3    5.9069E+04 -4.7670E+03   6.3836E+04  0.000E+00  0.000E+00  0.000E+00  3.97561E+01  1.311E-01  2.000E+01  2.000E+04 -2.384E-01
   1    9   27     2     4    6.3836E+04 -6.9958E+03   7.0832E+04  0.000E+00  0.000E+00  0.000E+00  3.95135E+01  1.385E-01  2.000E+01  2.000E+04 -3.498E-01
   1   10   26     2     5    7.0832E+04 -6.6768E+03   7.7509E+04  0.000E+00  0.000E+00  0.000E+00  3.92718E+01  1.468E-01  2.000E+01  2.000E+04 -3.338E-01
   1   11   25     2     6    7.7509E+04 -6.4608E+03   8.3970E+04  0.000E+00  0.000E+00  0.000E+00  3.90295E+01  1.545E-01  2.000E+01  2.000E+04 -3.230E-01
   1   12   24     2     7    8.3970E+04 -6.1208E+03   9.0090E+04  0.000E+00  0.000E+00  0.000E+00  3.87866E+01  1.616E-01  2.000E+01  2.000E+04 -3.060E-01
   1   13   23     2     8    9.0090E+04 -1.6348E+03   9.1725E+04  0.000E+00  0.000E+00  0.000E+00  3.85409E+01  1.659E-01  2.000E+01  2.000E+04 -8.174E-02
   1   14   22     2     9    9.1725E+04  1.0386E+02   9.1621E+04  0.000E+00  0.000E+00  0.000E+00  3.82917E+01  1.667E-01  2.000E+01  2.000E+04  5.193E-03
   1   14   22     3     1    3.0945E+05 -9.8459E+03   3.1929E+05  0.000E+00  0.000E+00  0.000E+00  3.77942E+01  2.387E-01  2.000E+01  2.000E+04 -4.923E-01
   1   15   23     3     2    3.1929E+05 -1.9893E+03   3.2128E+05  0.000E+00  0.000E+00  0.000E+00  3.69080E+01  2.413E-01  2.000E+01  2.000E+04 -9.947E-02
   1   15   24     3     3    3.2128E+05 -1.5299E+03   3.2281E+05  0.000E+00  0.000E+00  0.000E+00  3.60199E+01  2.421E-01  2.000E+01  2.000E+04 -7.650E-02
   1   15   25     3     4    3.2281E+05 -1.5794E+03   3.2439E+05  0.000E+00  0.000E+00  0.000E+00  3.51317E+01  2.428E-01  2.000E+01  2.000E+04 -7.897E-02
   1   15   26     3     5    3.2439E+05 -1.8825E+03   3.2627E+05  0.000E+00  0.000E+00  0.000E+00  3.42436E+01  2.436E-01  2.000E+01  2.000E+04 -9.413E-02
   1   16   27     3     6    3.2627E+05 -2.1642E+03   3.2844E+05  0.000E+00  0.000E+00  0.000E+00  3.33556E+01  2.445E-01  2.000E+01  2.000E+04 -1.082E-01
   1   17   28     3     7    3.2844E+05 -6.5783E+03   3.3502E+05  0.000E+00  0.000E+00  0.000E+00  3.24687E+01  2.465E-01  2.000E+01  2.000E+04 -3.289E-01
   1   18   29     3     8    3.3502E+05 -7.9938E+03   3.4301E+05  0.000E+00  0.000E+00  0.000E+00  3.15830E+01  2.497E-01  2.000E+01  2.000E+04 -3.997E-01
   1   18   30     3     9    3.4301E+05 -7.1740E+03   3.5018E+05  0.000E+00  0.000E+00  0.000E+00  3.06975E+01  2.530E-01  2.000E+01  2.000E+04 -3.587E-01



1
              HEAD IN LAYER   1 AT END OF TIME STEP   1 IN STRESS PERIOD    1
  ---------------------------------------------------------------------------

          1      2      3      4      5      6      7      8      9     10
         11     12     13     14     15     16     17     18     19     20
         21     22     23     24     25     26     27     28     29     30
 .........................................................................
   1  ****** ****** ****** ****** ****** ****** ****** ****** ****** ******
      ****** ****** ****** ****** ****** ****** ****** ****** ****** ******
      ****** ****** ****** ****** ****** ****** ****** ****** ****** ******
   2  ****** ****** ****** ****** ****** ****** ****** ****** ****** ******
      ****** ****** ****** ****** ****** ****** ****** ****** ****** ******
      ****** ****** ****** ****** ****** ****** ****** ****** ****** ******
   3  ****** ****** ****** ****** ****** ****** ****** ****** ****** ******
      ****** ****** ****** ****** ****** ****** ****** ****** ****** ******
      ****** ****** ****** ****** ****** ****** ****** ****** ****** ******
   4  ****** ****** ****** ****** ****** ****** ****** ****** ****** ******
      ****** ****** ****** ****** ****** ****** ****** ****** ****** ******
      ****** ****** ****** ****** ****** ****** ****** ****** ****** ******
   5  ****** ****** ****** ****** ****** ****** ****** ****** ****** ******
      ****** ****** ****** ****** ****** ****** ****** ****** ****** ******
      ****** ****** ****** ****** ****** ****** ****** ****** ****** ******
   6  ****** ****** ****** ****** ****** ****** ****** ****** ****** ******
      ****** ****** ****** ****** ****** ****** ****** ****** ****** ******
      ****** ****** ****** ****** ****** ****** ****** ****** ****** ******
   7  ****** ****** ****** ****** ****** ****** ****** ****** ****** ******
      ****** ****** ****** ****** ****** ****** ****** ****** ****** ******
      ****** ****** ****** ****** ****** ****** ****** ****** ****** ******
   8  ****** ****** ****** ****** ****** ****** ****** ****** ****** ******
      ****** ****** ****** ****** ****** ****** ****** ****** ****** ******
      ****** ****** ****** ****** ****** ****** ****** ****** ****** ******
   9  ****** ****** ****** ****** ****** ****** ****** ****** ****** ******
      ****** ****** ****** ****** ****** ****** ****** ****** ****** ******
      ****** ****** ****** ****** ****** ****** ****** ****** ****** ******
  10  ****** ****** ****** ****** ****** ****** ****** ****** ****** ******
      ****** ****** ****** ****** ****** ****** ****** ****** ****** ******
      ****** ****** ****** ****** ****** ****** ****** ****** ****** ******
  11  ****** ****** ****** ****** ****** ****** ****** ****** ****** ******
      ****** ****** ****** ****** ****** ****** ****** ****** ****** ******
      ****** ****** ****** ****** ****** ****** ****** ****** ****** ******
  12  ****** ****** ****** ****** ****** ****** ****** ****** ****** ******
      ****** ****** ****** ****** ****** ****** ****** ****** ****** ******
      ****** ****** ****** ****** ****** ****** ****** ****** ****** ******
  13  ****** ****** ****** ****** ****** ****** ****** ****** ****** ******
      ****** ****** ****** ****** ****** ****** ****** ****** ****** ******
      ****** ****** ****** ****** ****** ****** ****** ****** ****** ******
  14  ****** ****** ****** ****** ****** ****** ****** ****** ****** ******
      ****** ****** ****** ****** ****** ****** ****** ****** ****** ******
      ****** ****** ****** ****** ****** ****** ****** ****** ****** ******
  15  ****** ****** ****** ****** ****** ****** ****** ****** ****** ******
      ****** ****** ****** ****** ****** ****** ****** ****** ****** ******
      ****** ****** ****** ****** ****** ****** ****** ****** ****** ******
  16  ****** ****** ****** ****** ****** ****** ****** ****** ****** ******
      ****** ****** ****** ****** ****** ****** ****** ****** ****** ******
      ****** ****** ****** ****** ****** ****** ****** ****** ****** ******
  17  ****** ****** ****** ****** ****** ****** ****** ****** ****** ******
      ****** ****** ****** ****** ****** ****** ****** ****** ****** ******
      ****** ****** ****** ****** ****** ****** ****** ****** ****** ******
  18  ****** ****** ****** ****** ****** ****** ****** ****** ****** ******
      ****** ****** ****** ****** ****** ****** ****** ****** ****** ******
      ****** ****** ****** ****** ****** ****** ****** ****** ****** ******
  19  ****** ****** ****** ****** ****** ****** ****** ****** ****** ******
      ****** ****** ****** ****** ****** ****** ****** ****** ****** ******
      ****** ****** ****** ****** ****** ****** ****** ****** ****** ******
  20  ****** ****** ****** ****** ****** ****** ****** ****** ****** ******
      ****** ****** ****** ****** ****** ****** ****** ****** ****** ******
      ****** ****** ****** ****** ****** ****** ****** ****** ****** ******
  21  ****** ****** ****** ****** ****** ****** ****** ****** ****** ******
      ****** ****** ****** ****** ****** ****** ****** ****** ****** ******
      ****** ****** ****** ****** ****** ****** ****** ****** ****** ******
  22  ****** ****** ****** ****** ****** ****** ****** ****** ****** ******
      ****** ****** ****** ****** ****** ****** ****** ****** ****** ******
      ****** ****** ****** ****** ****** ****** ****** ****** ****** ******
  23  ****** ****** ****** ****** ****** ****** ****** ****** ****** ******
      ****** ****** ****** ****** ****** ****** ****** ****** ****** ******
      ****** ****** ****** ****** ****** ****** ****** ****** ****** ******
  24  ****** ****** ****** ****** ****** ****** ****** ****** ****** ******
      ****** ****** ****** ****** ****** ****** ****** ****** ****** ******
      ****** ****** ****** ****** ****** ****** ****** ****** ****** ******
  25  ****** ****** ****** ****** ****** ****** ****** ****** ****** ******
      ****** ****** ****** ****** ****** ****** ****** ****** ****** ******
      ****** ****** ****** ****** ****** ****** ****** ****** ****** ******

 HEAD WILL BE SAVED ON UNIT   51 AT END OF TIME STEP    1, STRESS PERIOD    1
1
  VOLUMETRIC BUDGET FOR ENTIRE MODEL AT END OF TIME STEP    1, STRESS PERIOD   1
  ------------------------------------------------------------------------------

     CUMULATIVE VOLUMES      L**3       RATES FOR THIS TIME STEP      L**3/T
     ------------------                 ------------------------

           IN:                                      IN:
           ---                                      ---
             STORAGE =    17736844.2950               STORAGE =      192791.7858
       CONSTANT HEAD =     1220590.4340         CONSTANT HEAD =       13267.2873
               WELLS =           0.0000                 WELLS =           0.0000
            RECHARGE =     1269600.0000              RECHARGE =       13800.0000
      STREAM LEAKAGE =      348262.4182        STREAM LEAKAGE =        3785.4611

            TOTAL IN =    20575297.1472              TOTAL IN =      223644.5342

          OUT:                                     OUT:
          ----                                     ----
             STORAGE =           0.0000               STORAGE =           0.0000
       CONSTANT HEAD =           0.0000         CONSTANT HEAD =           0.0000
               WELLS =     1810071.2389                 WELLS =       19674.6874
            RECHARGE =           0.0000              RECHARGE =           0.0000
      STREAM LEAKAGE =    18765226.1853        STREAM LEAKAGE =      203969.8498

           TOTAL OUT =    20575297.4241             TOTAL OUT =      223644.5372

            IN - OUT =          -0.2769              IN - OUT =      -3.0098E-03

 PERCENT DISCREPANCY =          -0.00     PERCENT DISCREPANCY =          -0.00






         TIME SUMMARY AT END OF TIME STEP    1 IN STRESS PERIOD    1
                    SECONDS     MINUTES      HOURS       DAYS        YEARS
                    -----------------------------------------------------------
   TIME STEP LENGTH 7.94880E+06 1.32480E+05  2208.0      92.000     0.25188    
 STRESS PERIOD TIME 7.94880E+06 1.32480E+05  2208.0      92.000     0.25188    
         TOTAL TIME 7.94880E+06 1.32480E+05  2208.0      92.000     0.25188    
1
1
                            STRESS PERIOD NO.    2, LENGTH =   91.00000    
                            -----------------------------------------------

                              NUMBER OF TIME STEPS =     1

                               MULTIPLIER FOR DELT =     1.500

                            INITIAL TIME STEP SIZE =   91.00000    

 WELL NO.  LAYER   ROW   COL   STRESS RATE         
 --------------------------------------------------
      1      1     14      6       0.000    
      2      1      3      9       0.000    
      3      1     20     10       0.000    
      4      1     14     20       0.000    
      5      1      6     26      -9457.    
      6      1     23      4      -2056.    
      7      1     12     10      -1573.    
      8      1      4      5      -6588.    

      8 WELLS

                 RECHARGE =  2.000000E-03

 REUSING STREAM SEGMENT DATA FROM LAST STRESS PERIOD
 
 SOLVING FOR HEAD 


     7 CALLS TO PCG ROUTINE FOR TIME STEP   1 IN STRESS PERIOD    2
    27 TOTAL ITERATIONS

 OUTPUT CONTROL FOR STRESS PERIOD    2   TIME STEP    1
    SAVE BUDGET
    SAVE HEAD FOR ALL LAYERS
    PRINT HEAD FOR ALL LAYERS
 UBDSV2 SAVING "STREAMFLOW OUT  " ON UNIT  50 AT TIME STEP  1, STRESS PERIOD   2



 STREAM LISTING     PERIOD      2   STEP        1

 LAYER ROW COL. STREAM  RCH.  FLOW INTO     FLOW TO   FLOW OUT OF   OVRLND.     DIRECT     STREAM       STREAM     STREAM     STREAM   STREAMBED  STREAMBED
                SEG.NO.  NO.  STRM. RCH.    AQUIFER    STRM. RCH.    RUNOFF     PRECIP       ET          HEAD       DEPTH      WIDTH   CONDCTNC.   GRADIENT

   1   13    1     1     1    1.0000E+05 -3.6245E+03   1.0362E+05  0.000E+00  0.000E+00  0.000E+00  4.84076E+01  1.462E-01  2.000E+01  2.000E+04 -1.812E-01
   1   13    2     1     2    1.0362E+05 -4.8732E+03   1.0850E+05  0.000E+00  0.000E+00  0.000E+00  4.79339E+01  1.499E-01  2.000E+01  2.000E+04 -2.437E-01
   1   14    3     1     3    1.0850E+05 -1.0792E+03   1.0958E+05  0.000E+00  0.000E+00  0.000E+00  4.74592E+01  1.524E-01  2.000E+01  2.000E+04 -5.396E-02
   1   15    4     1     4    1.0958E+05 -1.1041E+03   1.1068E+05  0.000E+00  0.000E+00  0.000E+00  4.69828E+01  1.533E-01  2.000E+01  2.000E+04 -5.521E-02
   1   16    5     1     5    1.1068E+05 -4.0267E+03   1.1471E+05  0.000E+00  0.000E+00  0.000E+00  4.65077E+01  1.554E-01  2.000E+01  2.000E+04 -2.013E-01
   1   16    6     1     6    1.1471E+05 -2.3975E+03   1.1711E+05  0.000E+00  0.000E+00  0.000E+00  4.60330E+01  1.580E-01  2.000E+01  2.000E+04 -1.199E-01
   1   16    7     1     7    1.1711E+05 -2.3197E+03   1.1942E+05  0.000E+00  0.000E+00  0.000E+00  4.55577E+01  1.600E-01  2.000E+01  2.000E+04 -1.160E-01
   1   16    8     1     8    1.1942E+05 -2.2983E+03   1.2172E+05  0.000E+00  0.000E+00  0.000E+00  4.50823E+01  1.618E-01  2.000E+01  2.000E+04 -1.149E-01
   1   16    9     1     9    1.2172E+05 -2.2822E+03   1.2401E+05  0.000E+00  0.000E+00  0.000E+00  4.46069E+01  1.637E-01  2.000E+01  2.000E+04 -1.141E-01
   1   16   10     1    10    1.2401E+05 -2.2694E+03   1.2627E+05  0.000E+00  0.000E+00  0.000E+00  4.41314E+01  1.655E-01  2.000E+01  2.000E+04 -1.135E-01
   1   16   11     1    11    1.2627E+05 -2.3081E+03   1.2858E+05  0.000E+00  0.000E+00  0.000E+00  4.36559E+01  1.673E-01  2.000E+01  2.000E+04 -1.154E-01
   1   16   12     1    12    1.2858E+05 -4.0829E+03   1.3267E+05  0.000E+00  0.000E+00  0.000E+00  4.31812E+01  1.698E-01  2.000E+01  2.000E+04 -2.041E-01
   1   15   13     1    13    1.3267E+05 -3.9981E+03   1.3666E+05  0.000E+00  0.000E+00  0.000E+00  4.27070E+01  1.729E-01  2.000E+01  2.000E+04 -1.999E-01
   1   14   14     1    14    1.3666E+05 -4.3667E+03   1.4103E+05  0.000E+00  0.000E+00  0.000E+00  4.22330E+01  1.761E-01  2.000E+01  2.000E+04 -2.183E-01
   1   13   15     1    15    1.4103E+05 -4.7347E+03   1.4577E+05  0.000E+00  0.000E+00  0.000E+00  4.17591E+01  1.796E-01  2.000E+01  2.000E+04 -2.367E-01
   1   12   16     1    16    1.4577E+05 -5.5784E+03   1.5134E+05  0.000E+00  0.000E+00  0.000E+00  4.12857E+01  1.834E-01  2.000E+01  2.000E+04 -2.789E-01
   1   12   17     1    17    1.5134E+05 -3.7594E+03   1.5510E+05  0.000E+00  0.000E+00  0.000E+00  4.08119E+01  1.869E-01  2.000E+01  2.000E+04 -1.880E-01
   1   12   18     1    18    1.5510E+05 -3.6004E+03   1.5870E+05  0.000E+00  0.000E+00  0.000E+00  4.03373E+01  1.895E-01  2.000E+01  2.000E+04 -1.800E-01
   1   12   19     1    19    1.5870E+05 -4.5048E+03   1.6321E+05  0.000E+00  0.000E+00  0.000E+00  3.98629E+01  1.925E-01  2.000E+01  2.000E+04 -2.252E-01
   1   13   20     1    20    1.6321E+05 -3.7047E+03   1.6691E+05  0.000E+00  0.000E+00  0.000E+00  3.93886E+01  1.954E-01  2.000E+01  2.000E+04 -1.852E-01
   1   14   21     1    21    1.6691E+05 -3.7403E+03   1.7065E+05  0.000E+00  0.000E+00  0.000E+00  3.89139E+01  1.980E-01  2.000E+01  2.000E+04 -1.870E-01
   1   14   22     1    22    1.7065E+05  4.4445E+03   1.6621E+05  0.000E+00  0.000E+00  0.000E+00  3.84364E+01  1.978E-01  2.000E+01  2.000E+04  2.222E-01
   1    9   30     2     1    5.0000E+04 -1.5266E+03   5.1527E+04  0.000E+00  0.000E+00  0.000E+00  4.02419E+01  1.169E-01  2.000E+01  2.000E+04 -7.633E-02
   1    9   29     2     2    5.1527E+04 -1.7530E+03   5.3280E+04  0.000E+00  0.000E+00  0.000E+00  3.99942E+01  1.192E-01  2.000E+01  2.000E+04 -8.765E-02
   1    9   28     2     3    5.3280E+04 -1.8697E+03   5.5149E+04  0.000E+00  0.000E+00  0.000E+00  3.97466E+01  1.216E-01  2.000E+01  2.000E+04 -9.349E-02
   1    9   27     2     4    5.5149E+04 -3.1905E+03   5.8340E+04  0.000E+00  0.000E+00  0.000E+00  3.95000E+01  1.250E-01  2.000E+01  2.000E+04 -1.595E-01
   1   10   26     2     5    5.8340E+04 -2.8914E+03   6.1231E+04  0.000E+00  0.000E+00  0.000E+00  3.92540E+01  1.290E-01  2.000E+01  2.000E+04 -1.446E-01
   1   11   25     2     6    6.1231E+04 -2.9102E+03   6.4141E+04  0.000E+00  0.000E+00  0.000E+00  3.90077E+01  1.327E-01  2.000E+01  2.000E+04 -1.455E-01
   1   12   24     2     7    6.4141E+04 -2.9685E+03   6.7110E+04  0.000E+00  0.000E+00  0.000E+00  3.87614E+01  1.364E-01  2.000E+01  2.000E+04 -1.484E-01
   1   13   23     2     8    6.7110E+04 -5.8607E+02   6.7696E+04  0.000E+00  0.000E+00  0.000E+00  3.85136E+01  1.386E-01  2.000E+01  2.000E+04 -2.930E-02
   1   14   22     2     9    6.7696E+04  9.8342E+02   6.6713E+04  0.000E+00  0.000E+00  0.000E+00  3.82634E+01  1.384E-01  2.000E+01  2.000E+04  4.917E-02
   1   14   22     3     1    2.3292E+05 -9.1388E+03   2.4206E+05  0.000E+00  0.000E+00  0.000E+00  3.77572E+01  2.017E-01  2.000E+01  2.000E+04 -4.569E-01
   1   15   23     3     2    2.4206E+05 -1.0558E+03   2.4312E+05  0.000E+00  0.000E+00  0.000E+00  3.68709E+01  2.043E-01  2.000E+01  2.000E+04 -5.279E-02
   1   15   24     3     3    2.4312E+05 -6.6556E+02   2.4378E+05  0.000E+00  0.000E+00  0.000E+00  3.59825E+01  2.047E-01  2.000E+01  2.000E+04 -3.328E-02
   1   15   25     3     4    2.4378E+05 -6.7142E+02   2.4445E+05  0.000E+00  0.000E+00  0.000E+00  3.50939E+01  2.050E-01  2.000E+01  2.000E+04 -3.357E-02
   1   15   26     3     5    2.4445E+05 -7.7262E+02   2.4523E+05  0.000E+00  0.000E+00  0.000E+00  3.42054E+01  2.054E-01  2.000E+01  2.000E+04 -3.863E-02
   1   16   27     3     6    2.4523E+05 -8.9831E+02   2.4612E+05  0.000E+00  0.000E+00  0.000E+00  3.33169E+01  2.058E-01  2.000E+01  2.000E+04 -4.492E-02
   1   17   28     3     7    2.4612E+05 -3.2568E+03   2.4938E+05  0.000E+00  0.000E+00  0.000E+00  3.24291E+01  2.069E-01  2.000E+01  2.000E+04 -1.628E-01
   1   18   29     3     8    2.4938E+05 -5.0570E+03   2.5444E+05  0.000E+00  0.000E+00  0.000E+00  3.15423E+01  2.090E-01  2.000E+01  2.000E+04 -2.529E-01
   1   18   30     3     9    2.5444E+05 -4.6849E+03   2.5912E+05  0.000E+00  0.000E+00  0.000E+00  3.06558E+01  2.114E-01  2.000E+01  2.000E+04 -2.342E-01



1
              HEAD IN LAYER   1 AT END OF TIME STEP   1 IN STRESS PERIOD    2
  ---------------------------------------------------------------------------

          1      2      3      4      5      6      7      8      9     10
         11     12     13     14     15     16     17     18     19     20
         21     22     23     24     25     26     27     28     29     30
 .........................................................................
   1  ****** ****** ****** ****** ****** ****** ****** ****** ****** ******
      ****** ****** ****** ****** ****** ****** ****** ****** ****** ******
      ****** ****** ****** ****** ****** ****** ****** ****** ****** ******
   2  ****** ****** ****** ****** ****** ****** ****** ****** ****** ******
      ****** ****** ****** ****** ****** ****** ****** ****** ****** ******
      ****** ****** ****** ****** ****** ****** ****** ****** ****** ******
   3  ****** ****** ****** ****** ****** ****** ****** ****** ****** ******
      ****** ****** ****** ****** ****** ****** ****** ****** ****** ******
      ****** ****** ****** ****** ****** ****** ****** ****** ****** ******
   4  ****** ****** ****** ****** ****** ****** ****** ****** ****** ******
      ****** ****** ****** ****** ****** ****** ****** ****** ****** ******
      ****** ****** ****** ****** ****** ****** ****** ****** ****** ******
   5  ****** ****** ****** ****** ****** ****** ****** ****** ****** ******
      ****** ****** ****** ****** ****** ****** ****** ****** ****** ******
      ****** ****** ****** ****** ****** ****** ****** ****** ****** ******
   6  ****** ****** ****** ****** ****** ****** ****** ****** ****** ******
      ****** ****** ****** ****** ****** ****** ****** ****** ****** ******
      ****** ****** ****** ****** ****** ****** ****** ****** ****** ******
   7  ****** ****** ****** ****** ****** ****** ****** ****** ****** ******
      ****** ****** ****** ****** ****** ****** ****** ****** ****** ******
      ****** ****** ****** ****** ****** ****** ****** ****** ****** ******
   8  ****** ****** ****** ****** ****** ****** ****** ****** ****** ******
      ****** ****** ****** ****** ****** ****** ****** ****** ****** ******
      ****** ****** ****** ****** ****** ****** ****** ****** ****** ******
   9  ****** ****** ****** ****** ****** ****** ****** ****** ****** ******
      ****** ****** ****** ****** ****** ****** ****** ****** ****** ******
      ****** ****** ****** ****** ****** ****** ****** ****** ****** ******
  10  ****** ****** ****** ****** ****** ****** ****** ****** ****** ******
      ****** ****** ****** ****** ****** ****** ****** ****** ****** ******
      ****** ****** ****** ****** ****** ****** ****** ****** ****** ******
  11  ****** ****** ****** ****** ****** ****** ****** ****** ****** ******
      ****** ****** ****** ****** ****** ****** ****** ****** ****** ******
      ****** ****** ****** ****** ****** ****** ****** ****** ****** ******
  12  ****** ****** ****** ****** ****** ****** ****** ****** ****** ******
      ****** ****** ****** ****** ****** ****** ****** ****** ****** ******
      ****** ****** ****** ****** ****** ****** ****** ****** ****** ******
  13  ****** ****** ****** ****** ****** ****** ****** ****** ****** ******
      ****** ****** ****** ****** ****** ****** ****** ****** ****** ******
      ****** ****** ****** ****** ****** ****** ****** ****** ****** ******
  14  ****** ****** ****** ****** ****** ****** ****** ****** ****** ******
      ****** ****** ****** ****** ****** ****** ****** ****** ****** ******
      ****** ****** ****** ****** ****** ****** ****** ****** ****** ******
  15  ****** ****** ****** ****** ****** ****** ****** ****** ****** ******
      ****** ****** ****** ****** ****** ****** ****** ****** ****** ******
      ****** ****** ****** ****** ****** ****** ****** ****** ****** ******
  16  ****** ****** ****** ****** ****** ****** ****** ****** ****** ******
      ****** ****** ****** ****** ****** ****** ****** ****** ****** ******
      ****** ****** ****** ****** ****** ****** ****** ****** ****** ******
  17  ****** ****** ****** ****** ****** ****** ****** ****** ****** ******
      ****** ****** ****** ****** ****** ****** ****** ****** ****** ******
      ****** ****** ****** ****** ****** ****** ****** ****** ****** ******
  18  ****** ****** ****** ****** ****** ****** ****** ****** ****** ******
      ****** ****** ****** ****** ****** ****** ****** ****** ****** ******
      ****** ****** ****** ****** ****** ****** ****** ****** ****** ******
  19  ****** ****** ****** ****** ****** ****** ****** ****** ****** ******
      ****** ****** ****** ****** ****** ****** ****** ****** ****** ******
      ****** ****** ****** ****** ****** ****** ****** ****** ****** ******
  20  ****** ****** ****** ****** ****** ****** ****** ****** ****** ******
      ****** ****** ****** ****** ****** ****** ****** ****** ****** ******
      ****** ****** ****** ****** ****** ****** ****** ****** ****** ******
  21  ****** ****** ****** ****** ****** ****** ****** ****** ****** ******
      ****** ****** ****** ****** ****** ****** ****** ****** ****** ******
      ****** ****** ****** ****** ****** ****** ****** ****** ****** ******
  22  ****** ****** ****** ****** ****** ****** ****** ****** ****** ******
      ****** ****** ****** ****** ****** ****** ****** ****** ****** ******
      ****** ****** ****** ****** ****** ****** ****** ****** ****** ******
  23  ****** ****** ****** ****** ****** ****** ****** ****** ****** ******
      ****** ****** ****** ****** ****** ****** ****** ****** ****** ******
      ****** ****** ****** ****** ****** ****** ****** ****** ****** ******
  24  ****** ****** ****** ****** ****** ****** ****** ****** ****** ******
      ****** ****** ****** ****** ****** ****** ****** ****** ****** ******
      ****** ****** ****** ****** ****** ****** ****** ****** ****** ******
  25  ****** ****** ****** ****** ****** ****** ****** ****** ****** ******
      ****** ****** ****** ****** ****** ****** ****** ****** ****** ******
      ****** ****** ****** ****** ****** ****** ****** ****** ****** ******

 HEAD WILL BE SAVED ON UNIT   51 AT END OF TIME STEP    1, STRESS PERIOD    2
1
  VOLUMETRIC BUDGET FOR ENTIRE MODEL AT END OF TIME STEP    1, STRESS PERIOD   2
  ------------------------------------------------------------------------------

     CUMULATIVE VOLUMES      L**3       RATES FOR THIS TIME STEP      L**3/T
     ------------------                 ------------------------

           IN:                                      IN:
           ---                                      ---
             STORAGE =    22778757.7981               STORAGE =       55405.6429
       CONSTANT HEAD =     2876021.4911         CONSTANT HEAD =       18191.5501
               WELLS =           0.0000                 WELLS =           0.0000
            RECHARGE =     6292800.0000              RECHARGE =       55200.0000
      STREAM LEAKAGE =      842202.9839        STREAM LEAKAGE =        5427.9183

            TOTAL IN =    32789782.2731              TOTAL IN =      134225.1113

          OUT:                                     OUT:
          ----                                     ----
             STORAGE =           0.0000               STORAGE =           0.0000
       CONSTANT HEAD =           0.0000         CONSTANT HEAD =           0.0000
               WELLS =     3600467.7903                 WELLS =       19674.6874
            RECHARGE =           0.0000              RECHARGE =           0.0000
      STREAM LEAKAGE =    29189315.7078        STREAM LEAKAGE =      114550.4343

           TOTAL OUT =    32789783.4981             TOTAL OUT =      134225.1217

            IN - OUT =          -1.2250              IN - OUT =      -1.0419E-02

 PERCENT DISCREPANCY =          -0.00     PERCENT DISCREPANCY =          -0.00






         TIME SUMMARY AT END OF TIME STEP    1 IN STRESS PERIOD    2
                    SECONDS     MINUTES      HOURS       DAYS        YEARS
                    -----------------------------------------------------------
   TIME STEP LENGTH 7.86240E+06 1.31040E+05  2184.0      91.000     0.24914    
 STRESS PERIOD TIME 7.86240E+06 1.31040E+05  2184.0      91.000     0.24914    
         TOTAL TIME 1.58112E+07 2.63520E+05  4392.0      183.00     0.50103    
1
1
                            STRESS PERIOD NO.    3, LENGTH =   91.00000    
                            -----------------------------------------------

                              NUMBER OF TIME STEPS =     1

                               MULTIPLIER FOR DELT =     1.500

                            INITIAL TIME STEP SIZE =   91.00000    

 WELL NO.  LAYER   ROW   COL   STRESS RATE         
 --------------------------------------------------
      1      1     14      6       0.000    
      2      1      3      9       0.000    
      3      1     20     10       0.000    
      4      1     14     20       0.000    
      5      1      6     26      -9457.    
      6      1     23      4      -2056.    
      7      1     12     10      -1573.    
      8      1      4      5      -6588.    

      8 WELLS

                 RECHARGE =   0.00000    

 REUSING STREAM SEGMENT DATA FROM LAST STRESS PERIOD
 
 SOLVING FOR HEAD 


     7 CALLS TO PCG ROUTINE FOR TIME STEP   1 IN STRESS PERIOD    3
    27 TOTAL ITERATIONS

 OUTPUT CONTROL FOR STRESS PERIOD    3   TIME STEP    1
    SAVE BUDGET
    SAVE HEAD FOR ALL LAYERS
    PRINT HEAD FOR ALL LAYERS
 UBDSV2 SAVING "STREAMFLOW OUT  " ON UNIT  50 AT TIME STEP  1, STRESS PERIOD   3



 STREAM LISTING     PERIOD      3   STEP        1

 LAYER ROW COL. STREAM  RCH.  FLOW INTO     FLOW TO   FLOW OUT OF   OVRLND.     DIRECT     STREAM       STREAM     STREAM     STREAM   STREAMBED  STREAMBED
                SEG.NO.  NO.  STRM. RCH.    AQUIFER    STRM. RCH.    RUNOFF     PRECIP       ET          HEAD       DEPTH      WIDTH   CONDCTNC.   GRADIENT

   1   13    1     1     1    1.0000E+05 -2.2346E+03   1.0223E+05  0.000E+00  0.000E+00  0.000E+00  4.84070E+01  1.456E-01  2.000E+01  2.000E+04 -1.117E-01
   1   13    2     1     2    1.0223E+05 -3.3176E+03   1.0555E+05  0.000E+00  0.000E+00  0.000E+00  4.79321E+01  1.480E-01  2.000E+01  2.000E+04 -1.659E-01
   1   14    3     1     3    1.0555E+05 -6.0078E+02   1.0615E+05  0.000E+00  0.000E+00  0.000E+00  4.74565E+01  1.497E-01  2.000E+01  2.000E+04 -3.004E-02
   1   15    4     1     4    1.0615E+05 -5.8305E+02   1.0674E+05  0.000E+00  0.000E+00  0.000E+00  4.69797E+01  1.502E-01  2.000E+01  2.000E+04 -2.915E-02
   1   16    5     1     5    1.0674E+05 -2.1758E+03   1.0891E+05  0.000E+00  0.000E+00  0.000E+00  4.65036E+01  1.513E-01  2.000E+01  2.000E+04 -1.088E-01
   1   16    6     1     6    1.0891E+05 -1.3650E+03   1.1028E+05  0.000E+00  0.000E+00  0.000E+00  4.60278E+01  1.528E-01  2.000E+01  2.000E+04 -6.825E-02
   1   16    7     1     7    1.1028E+05 -1.3480E+03   1.1162E+05  0.000E+00  0.000E+00  0.000E+00  4.55517E+01  1.540E-01  2.000E+01  2.000E+04 -6.740E-02
   1   16    8     1     8    1.1162E+05 -1.3463E+03   1.1297E+05  0.000E+00  0.000E+00  0.000E+00  4.50755E+01  1.551E-01  2.000E+01  2.000E+04 -6.731E-02
   1   16    9     1     9    1.1297E+05 -1.3372E+03   1.1431E+05  0.000E+00  0.000E+00  0.000E+00  4.45994E+01  1.562E-01  2.000E+01  2.000E+04 -6.686E-02
   1   16   10     1    10    1.1431E+05 -1.3301E+03   1.1564E+05  0.000E+00  0.000E+00  0.000E+00  4.41232E+01  1.573E-01  2.000E+01  2.000E+04 -6.650E-02
   1   16   11     1    11    1.1564E+05 -1.3721E+03   1.1701E+05  0.000E+00  0.000E+00  0.000E+00  4.36470E+01  1.584E-01  2.000E+01  2.000E+04 -6.861E-02
   1   16   12     1    12    1.1701E+05 -2.4641E+03   1.1947E+05  0.000E+00  0.000E+00  0.000E+00  4.31713E+01  1.600E-01  2.000E+01  2.000E+04 -1.232E-01
   1   15   13     1    13    1.1947E+05 -2.3210E+03   1.2180E+05  0.000E+00  0.000E+00  0.000E+00  4.26960E+01  1.619E-01  2.000E+01  2.000E+04 -1.160E-01
   1   14   14     1    14    1.2180E+05 -2.6326E+03   1.2443E+05  0.000E+00  0.000E+00  0.000E+00  4.22207E+01  1.639E-01  2.000E+01  2.000E+04 -1.316E-01
   1   13   15     1    15    1.2443E+05 -2.9891E+03   1.2742E+05  0.000E+00  0.000E+00  0.000E+00  4.17457E+01  1.661E-01  2.000E+01  2.000E+04 -1.495E-01
   1   12   16     1    16    1.2742E+05 -3.7538E+03   1.3117E+05  0.000E+00  0.000E+00  0.000E+00  4.12710E+01  1.688E-01  2.000E+01  2.000E+04 -1.877E-01
   1   12   17     1    17    1.3117E+05 -2.4597E+03   1.3363E+05  0.000E+00  0.000E+00  0.000E+00  4.07962E+01  1.712E-01  2.000E+01  2.000E+04 -1.230E-01
   1   12   18     1    18    1.3363E+05 -2.3242E+03   1.3596E+05  0.000E+00  0.000E+00  0.000E+00  4.03208E+01  1.730E-01  2.000E+01  2.000E+04 -1.162E-01
   1   12   19     1    19    1.3596E+05 -2.8946E+03   1.3885E+05  0.000E+00  0.000E+00  0.000E+00  3.98455E+01  1.750E-01  2.000E+01  2.000E+04 -1.447E-01
   1   13   20     1    20    1.3885E+05 -2.2545E+03   1.4110E+05  0.000E+00  0.000E+00  0.000E+00  3.93702E+01  1.770E-01  2.000E+01  2.000E+04 -1.127E-01
   1   14   21     1    21    1.4110E+05 -2.2906E+03   1.4339E+05  0.000E+00  0.000E+00  0.000E+00  3.88946E+01  1.787E-01  2.000E+01  2.000E+04 -1.145E-01
   1   14   22     1    22    1.4339E+05  4.7993E+03   1.3860E+05  0.000E+00  0.000E+00  0.000E+00  3.84164E+01  1.778E-01  2.000E+01  2.000E+04  2.400E-01
   1    9   30     2     1    5.0000E+04 -2.6257E+02   5.0263E+04  0.000E+00  0.000E+00  0.000E+00  4.02410E+01  1.160E-01  2.000E+01  2.000E+04 -1.313E-02
   1    9   29     2     2    5.0263E+04 -4.8939E+02   5.0752E+04  0.000E+00  0.000E+00  0.000E+00  3.99916E+01  1.166E-01  2.000E+01  2.000E+04 -2.447E-02
   1    9   28     2     3    5.0752E+04 -5.8885E+02   5.1341E+04  0.000E+00  0.000E+00  0.000E+00  3.97423E+01  1.173E-01  2.000E+01  2.000E+04 -2.944E-02
   1    9   27     2     4    5.1341E+04 -1.3363E+03   5.2677E+04  0.000E+00  0.000E+00  0.000E+00  3.94936E+01  1.186E-01  2.000E+01  2.000E+04 -6.681E-02
   1   10   26     2     5    5.2677E+04 -1.1999E+03   5.3877E+04  0.000E+00  0.000E+00  0.000E+00  3.92454E+01  1.204E-01  2.000E+01  2.000E+04 -6.000E-02
   1   11   25     2     6    5.3877E+04 -1.3510E+03   5.5228E+04  0.000E+00  0.000E+00  0.000E+00  3.89971E+01  1.221E-01  2.000E+01  2.000E+04 -6.755E-02
   1   12   24     2     7    5.5228E+04 -1.5810E+03   5.6809E+04  0.000E+00  0.000E+00  0.000E+00  3.87490E+01  1.240E-01  2.000E+01  2.000E+04 -7.905E-02
   1   13   23     2     8    5.6809E+04 -2.4620E+02   5.7055E+04  0.000E+00  0.000E+00  0.000E+00  3.85003E+01  1.253E-01  2.000E+01  2.000E+04 -1.231E-02
   1   14   22     2     9    5.7055E+04  1.4603E+03   5.5595E+04  0.000E+00  0.000E+00  0.000E+00  3.82494E+01  1.244E-01  2.000E+01  2.000E+04  7.301E-02
   1   14   22     3     1    1.9419E+05 -8.7943E+03   2.0298E+05  0.000E+00  0.000E+00  0.000E+00  3.77367E+01  1.812E-01  2.000E+01  2.000E+04 -4.397E-01
   1   15   23     3     2    2.0298E+05 -6.7013E+02   2.0365E+05  0.000E+00  0.000E+00  0.000E+00  3.68504E+01  1.837E-01  2.000E+01  2.000E+04 -3.351E-02
   1   15   24     3     3    2.0365E+05 -3.4568E+02   2.0400E+05  0.000E+00  0.000E+00  0.000E+00  3.59618E+01  1.840E-01  2.000E+01  2.000E+04 -1.728E-02
   1   15   25     3     4    2.0400E+05 -3.3437E+02   2.0433E+05  0.000E+00  0.000E+00  0.000E+00  3.50731E+01  1.842E-01  2.000E+01  2.000E+04 -1.672E-02
   1   15   26     3     5    2.0433E+05 -3.7002E+02   2.0470E+05  0.000E+00  0.000E+00  0.000E+00  3.41844E+01  1.844E-01  2.000E+01  2.000E+04 -1.850E-02
   1   16   27     3     6    2.0470E+05 -4.3479E+02   2.0514E+05  0.000E+00  0.000E+00  0.000E+00  3.32957E+01  1.846E-01  2.000E+01  2.000E+04 -2.174E-02
   1   17   28     3     7    2.0514E+05 -1.8518E+03   2.0699E+05  0.000E+00  0.000E+00  0.000E+00  3.24074E+01  1.852E-01  2.000E+01  2.000E+04 -9.259E-02
   1   18   29     3     8    2.0699E+05 -3.5545E+03   2.1055E+05  0.000E+00  0.000E+00  0.000E+00  3.15200E+01  1.867E-01  2.000E+01  2.000E+04 -1.777E-01
   1   18   30     3     9    2.1055E+05 -3.5570E+03   2.1410E+05  0.000E+00  0.000E+00  0.000E+00  3.06330E+01  1.886E-01  2.000E+01  2.000E+04 -1.779E-01



1
              HEAD IN LAYER   1 AT END OF TIME STEP   1 IN STRESS PERIOD    3
  ---------------------------------------------------------------------------

          1      2      3      4      5      6      7      8      9     10
         11     12     13     14     15     16     17     18     19     20
         21     22     23     24     25     26     27     28     29     30
 .........................................................................
   1  ****** ****** ****** ****** ****** ****** ****** ****** ****** ******
      ****** ****** ****** ****** ****** ****** ****** ****** ****** ******
      ****** ****** ****** ****** ****** ****** ****** ****** ****** ******
   2  ****** ****** ****** ****** ****** ****** ****** ****** ****** ******
      ****** ****** ****** ****** ****** ****** ****** ****** ****** ******
      ****** ****** ****** ****** ****** ****** ****** ****** ****** ******
   3  ****** ****** ****** ****** ****** ****** ****** ****** ****** ******
      ****** ****** ****** ****** ****** ****** ****** ****** ****** ******
      ****** ****** ****** ****** ****** ****** ****** ****** ****** ******
   4  ****** ****** ****** ****** ****** ****** ****** ****** ****** ******
      ****** ****** ****** ****** ****** ****** ****** ****** ****** ******
      ****** ****** ****** ****** ****** ****** ****** ****** ****** ******
   5  ****** ****** ****** ****** ****** ****** ****** ****** ****** ******
      ****** ****** ****** ****** ****** ****** ****** ****** ****** ******
      ****** ****** ****** ****** ****** ****** ****** ****** ****** ******
   6  ****** ****** ****** ****** ****** ****** ****** ****** ****** ******
      ****** ****** ****** ****** ****** ****** ****** ****** ****** ******
      ****** ****** ****** ****** ****** ****** ****** ****** ****** ******
   7  ****** ****** ****** ****** ****** ****** ****** ****** ****** ******
      ****** ****** ****** ****** ****** ****** ****** ****** ****** ******
      ****** ****** ****** ****** ****** ****** ****** ****** ****** ******
   8  ****** ****** ****** ****** ****** ****** ****** ****** ****** ******
      ****** ****** ****** ****** ****** ****** ****** ****** ****** ******
      ****** ****** ****** ****** ****** ****** ****** ****** ****** ******
   9  ****** ****** ****** ****** ****** ****** ****** ****** ****** ******
      ****** ****** ****** ****** ****** ****** ****** ****** ****** ******
      ****** ****** ****** ****** ****** ****** ****** ****** ****** ******
  10  ****** ****** ****** ****** ****** ****** ****** ****** ****** ******
      ****** ****** ****** ****** ****** ****** ****** ****** ****** ******
      ****** ****** ****** ****** ****** ****** ****** ****** ****** ******
  11  ****** ****** ****** ****** ****** ****** ****** ****** ****** ******
      ****** ****** ****** ****** ****** ****** ****** ****** ****** ******
      ****** ****** ****** ****** ****** ****** ****** ****** ****** ******
  12  ****** ****** ****** ****** ****** ****** ****** ****** ****** ******
      ****** ****** ****** ****** ****** ****** ****** ****** ****** ******
      ****** ****** ****** ****** ****** ****** ****** ****** ****** ******
  13  ****** ****** ****** ****** ****** ****** ****** ****** ****** ******
      ****** ****** ****** ****** ****** ****** ****** ****** ****** ******
      ****** ****** ****** ****** ****** ****** ****** ****** ****** ******
  14  ****** ****** ****** ****** ****** ****** ****** ****** ****** ******
      ****** ****** ****** ****** ****** ****** ****** ****** ****** ******
      ****** ****** ****** ****** ****** ****** ****** ****** ****** ******
  15  ****** ****** ****** ****** ****** ****** ****** ****** ****** ******
      ****** ****** ****** ****** ****** ****** ****** ****** ****** ******
      ****** ****** ****** ****** ****** ****** ****** ****** ****** ******
  16  ****** ****** ****** ****** ****** ****** ****** ****** ****** ******
      ****** ****** ****** ****** ****** ****** ****** ****** ****** ******
      ****** ****** ****** ****** ****** ****** ****** ****** ****** ******
  17  ****** ****** ****** ****** ****** ****** ****** ****** ****** ******
      ****** ****** ****** ****** ****** ****** ****** ****** ****** ******
      ****** ****** ****** ****** ****** ****** ****** ****** ****** ******
  18  ****** ****** ****** ****** ****** ****** ****** ****** ****** ******
      ****** ****** ****** ****** ****** ****** ****** ****** ****** ******
      ****** ****** ****** ****** ****** ****** ****** ****** ****** ******
  19  ****** ****** ****** ****** ****** ****** ****** ****** ****** ******
      ****** ****** ****** ****** ****** ****** ****** ****** ****** ******
      ****** ****** ****** ****** ****** ****** ****** ****** ****** ******
  20  ****** ****** ****** ****** ****** ****** ****** ****** ****** ******
      ****** ****** ****** ****** ****** ****** ****** ****** ****** ******
      ****** ****** ****** ****** ****** ****** ****** ****** ****** ******
  21  ****** ****** ****** ****** ****** ****** ****** ****** ****** ******
      ****** ****** ****** ****** ****** ****** ****** ****** ****** ******
      ****** ****** ****** ****** ****** ****** ****** ****** ****** ******
  22  ****** ****** ****** ****** ****** ****** ****** ****** ****** ******
      ****** ****** ****** ****** ****** ****** ****** ****** ****** ******
      ****** ****** ****** ****** ****** ****** ****** ****** ****** ******
  23  ****** ****** ****** ****** ****** ****** ****** ****** ****** ******
      ****** ****** ****** ****** ****** ****** ****** ****** ****** ******
      ****** ****** ****** ****** ****** ****** ****** ****** ****** ******
  24  ****** ****** ****** ****** ****** ****** ****** ****** ****** ******
      ****** ****** ****** ****** ****** ****** ****** ****** ****** ******
      ****** ****** ****** ****** ****** ****** ****** ****** ****** ******
  25  ****** ****** ****** ****** ****** ****** ****** ****** ****** ******
      ****** ****** ****** ****** ****** ****** ****** ****** ****** ******
      ****** ****** ****** ****** ****** ****** ****** ****** ****** ******

 HEAD WILL BE SAVED ON UNIT   51 AT END OF TIME STEP    1, STRESS PERIOD    3
1
  VOLUMETRIC BUDGET FOR ENTIRE MODEL AT END OF TIME STEP    1, STRESS PERIOD   3
  ------------------------------------------------------------------------------

     CUMULATIVE VOLUMES      L**3       RATES FOR THIS TIME STEP      L**3/T
     ------------------                 ------------------------

           IN:                                      IN:
           ---                                      ---
             STORAGE =    27947121.4316               STORAGE =       56795.2048
       CONSTANT HEAD =     5331418.6651         CONSTANT HEAD =       26982.3865
               WELLS =           0.0000                 WELLS =           0.0000
            RECHARGE =     6292800.0000              RECHARGE =           0.0000
      STREAM LEAKAGE =     1411827.9711        STREAM LEAKAGE =        6259.6152

            TOTAL IN =    40983168.0677              TOTAL IN =       90037.2065

          OUT:                                     OUT:
          ----                                     ----
             STORAGE =           0.0000               STORAGE =           0.0000
       CONSTANT HEAD =           0.0000         CONSTANT HEAD =           0.0000
               WELLS =     5390864.3418                 WELLS =       19674.6874
            RECHARGE =           0.0000              RECHARGE =           0.0000
      STREAM LEAKAGE =    35592305.6208        STREAM LEAKAGE =       70362.5265

           TOTAL OUT =    40983169.9626             TOTAL OUT =       90037.2139

            IN - OUT =          -1.8949              IN - OUT =      -7.3613E-03

 PERCENT DISCREPANCY =          -0.00     PERCENT DISCREPANCY =          -0.00






         TIME SUMMARY AT END OF TIME STEP    1 IN STRESS PERIOD    3
                    SECONDS     MINUTES      HOURS       DAYS        YEARS
                    -----------------------------------------------------------
   TIME STEP LENGTH 7.86240E+06 1.31040E+05  2184.0      91.000     0.24914    
 STRESS PERIOD TIME 7.86240E+06 1.31040E+05  2184.0      91.000     0.24914    
         TOTAL TIME 2.36736E+07 3.94560E+05  6576.0      274.00     0.75017    
1
1
                            STRESS PERIOD NO.    4, LENGTH =   91.00000    
                            -----------------------------------------------

                              NUMBER OF TIME STEPS =     1

                               MULTIPLIER FOR DELT =     1.500

                            INITIAL TIME STEP SIZE =   91.00000    

 WELL NO.  LAYER   ROW   COL   STRESS RATE         
 --------------------------------------------------
      1      1     14      6       0.000    
      2      1      3      9       0.000    
      3      1     20     10       0.000    
      4      1     14     20       0.000    
      5      1      6     26      -9457.    
      6      1     23      4      -2056.    
      7      1     12     10      -1573.    
      8      1      4      5      -6588.    

      8 WELLS

                 RECHARGE =  1.000000E-03

 REUSING STREAM SEGMENT DATA FROM LAST STRESS PERIOD
 
 SOLVING FOR HEAD 


     6 CALLS TO PCG ROUTINE FOR TIME STEP   1 IN STRESS PERIOD    4
    23 TOTAL ITERATIONS

 OUTPUT CONTROL FOR STRESS PERIOD    4   TIME STEP    1
    SAVE BUDGET
    SAVE HEAD FOR ALL LAYERS
    PRINT HEAD FOR ALL LAYERS
 UBDSV2 SAVING "STREAMFLOW OUT  " ON UNIT  50 AT TIME STEP  1, STRESS PERIOD   4



 STREAM LISTING     PERIOD      4   STEP        1

 LAYER ROW COL. STREAM  RCH.  FLOW INTO     FLOW TO   FLOW OUT OF   OVRLND.     DIRECT     STREAM       STREAM     STREAM     STREAM   STREAMBED  STREAMBED
                SEG.NO.  NO.  STRM. RCH.    AQUIFER    STRM. RCH.    RUNOFF     PRECIP       ET          HEAD       DEPTH      WIDTH   CONDCTNC.   GRADIENT

   1   13    1     1     1    1.0000E+05 -1.9046E+03   1.0190E+05  0.000E+00  0.000E+00  0.000E+00  4.84068E+01  1.455E-01  2.000E+01  2.000E+04 -9.523E-02
   1   13    2     1     2    1.0190E+05 -2.9383E+03   1.0484E+05  0.000E+00  0.000E+00  0.000E+00  4.79317E+01  1.476E-01  2.000E+01  2.000E+04 -1.469E-01
   1   14    3     1     3    1.0484E+05 -5.5875E+02   1.0540E+05  0.000E+00  0.000E+00  0.000E+00  4.74559E+01  1.491E-01  2.000E+01  2.000E+04 -2.794E-02
   1   15    4     1     4    1.0540E+05 -5.3316E+02   1.0593E+05  0.000E+00  0.000E+00  0.000E+00  4.69791E+01  1.495E-01  2.000E+01  2.000E+04 -2.666E-02
   1   16    5     1     5    1.0593E+05 -1.8466E+03   1.0778E+05  0.000E+00  0.000E+00  0.000E+00  4.65028E+01  1.505E-01  2.000E+01  2.000E+04 -9.233E-02
   1   16    6     1     6    1.0778E+05 -1.2005E+03   1.0898E+05  0.000E+00  0.000E+00  0.000E+00  4.60268E+01  1.518E-01  2.000E+01  2.000E+04 -6.002E-02
   1   16    7     1     7    1.0898E+05 -1.1959E+03   1.1018E+05  0.000E+00  0.000E+00  0.000E+00  4.55505E+01  1.528E-01  2.000E+01  2.000E+04 -5.979E-02
   1   16    8     1     8    1.1018E+05 -1.1997E+03   1.1138E+05  0.000E+00  0.000E+00  0.000E+00  4.50743E+01  1.538E-01  2.000E+01  2.000E+04 -5.999E-02
   1   16    9     1     9    1.1138E+05 -1.1958E+03   1.1257E+05  0.000E+00  0.000E+00  0.000E+00  4.45980E+01  1.548E-01  2.000E+01  2.000E+04 -5.979E-02
   1   16   10     1    10    1.1257E+05 -1.1963E+03   1.1377E+05  0.000E+00  0.000E+00  0.000E+00  4.41217E+01  1.558E-01  2.000E+01  2.000E+04 -5.981E-02
   1   16   11     1    11    1.1377E+05 -1.2444E+03   1.1501E+05  0.000E+00  0.000E+00  0.000E+00  4.36454E+01  1.568E-01  2.000E+01  2.000E+04 -6.222E-02
   1   16   12     1    12    1.1501E+05 -2.2003E+03   1.1721E+05  0.000E+00  0.000E+00  0.000E+00  4.31696E+01  1.582E-01  2.000E+01  2.000E+04 -1.100E-01
   1   15   13     1    13    1.1721E+05 -2.0610E+03   1.1928E+05  0.000E+00  0.000E+00  0.000E+00  4.26940E+01  1.600E-01  2.000E+01  2.000E+04 -1.031E-01
   1   14   14     1    14    1.1928E+05 -2.3415E+03   1.2162E+05  0.000E+00  0.000E+00  0.000E+00  4.22186E+01  1.617E-01  2.000E+01  2.000E+04 -1.171E-01
   1   13   15     1    15    1.2162E+05 -2.6656E+03   1.2428E+05  0.000E+00  0.000E+00  0.000E+00  4.17433E+01  1.637E-01  2.000E+01  2.000E+04 -1.333E-01
   1   12   16     1    16    1.2428E+05 -3.3191E+03   1.2760E+05  0.000E+00  0.000E+00  0.000E+00  4.12684E+01  1.661E-01  2.000E+01  2.000E+04 -1.660E-01
   1   12   17     1    17    1.2760E+05 -2.2094E+03   1.2981E+05  0.000E+00  0.000E+00  0.000E+00  4.07933E+01  1.683E-01  2.000E+01  2.000E+04 -1.105E-01
   1   12   18     1    18    1.2981E+05 -2.0951E+03   1.3191E+05  0.000E+00  0.000E+00  0.000E+00  4.03177E+01  1.700E-01  2.000E+01  2.000E+04 -1.048E-01
   1   12   19     1    19    1.3191E+05 -2.6075E+03   1.3451E+05  0.000E+00  0.000E+00  0.000E+00  3.98423E+01  1.718E-01  2.000E+01  2.000E+04 -1.304E-01
   1   13   20     1    20    1.3451E+05 -2.0852E+03   1.3660E+05  0.000E+00  0.000E+00  0.000E+00  3.93668E+01  1.736E-01  2.000E+01  2.000E+04 -1.043E-01
   1   14   21     1    21    1.3660E+05 -2.0788E+03   1.3868E+05  0.000E+00  0.000E+00  0.000E+00  3.88911E+01  1.752E-01  2.000E+01  2.000E+04 -1.039E-01
   1   14   22     1    22    1.3868E+05  4.8304E+03   1.3385E+05  0.000E+00  0.000E+00  0.000E+00  3.84128E+01  1.742E-01  2.000E+01  2.000E+04  2.415E-01
   1    9   30     2     1    5.0000E+04 -1.5036E+02   5.0150E+04  0.000E+00  0.000E+00  0.000E+00  4.02410E+01  1.160E-01  2.000E+01  2.000E+04 -7.518E-03
   1    9   29     2     2    5.0150E+04 -3.6967E+02   5.0520E+04  0.000E+00  0.000E+00  0.000E+00  3.99913E+01  1.163E-01  2.000E+01  2.000E+04 -1.848E-02
   1    9   28     2     3    5.0520E+04 -4.4720E+02   5.0967E+04  0.000E+00  0.000E+00  0.000E+00  3.97419E+01  1.169E-01  2.000E+01  2.000E+04 -2.236E-02
   1    9   27     2     4    5.0967E+04 -1.0268E+03   5.1994E+04  0.000E+00  0.000E+00  0.000E+00  3.94929E+01  1.179E-01  2.000E+01  2.000E+04 -5.134E-02
   1   10   26     2     5    5.1994E+04 -1.0173E+03   5.3011E+04  0.000E+00  0.000E+00  0.000E+00  3.92443E+01  1.193E-01  2.000E+01  2.000E+04 -5.086E-02
   1   11   25     2     6    5.3011E+04 -1.2150E+03   5.4226E+04  0.000E+00  0.000E+00  0.000E+00  3.89958E+01  1.208E-01  2.000E+01  2.000E+04 -6.075E-02
   1   12   24     2     7    5.4226E+04 -1.4651E+03   5.5691E+04  0.000E+00  0.000E+00  0.000E+00  3.87476E+01  1.226E-01  2.000E+01  2.000E+04 -7.326E-02
   1   13   23     2     8    5.5691E+04 -2.6932E+02   5.5961E+04  0.000E+00  0.000E+00  0.000E+00  3.84988E+01  1.238E-01  2.000E+01  2.000E+04 -1.347E-02
   1   14   22     2     9    5.5961E+04  1.5334E+03   5.4427E+04  0.000E+00  0.000E+00  0.000E+00  3.82479E+01  1.229E-01  2.000E+01  2.000E+04  7.667E-02
   1   14   22     3     1    1.8827E+05 -8.7565E+03   1.9703E+05  0.000E+00  0.000E+00  0.000E+00  3.77335E+01  1.779E-01  2.000E+01  2.000E+04 -4.378E-01
   1   15   23     3     2    1.9703E+05 -6.5155E+02   1.9768E+05  0.000E+00  0.000E+00  0.000E+00  3.68472E+01  1.805E-01  2.000E+01  2.000E+04 -3.258E-02
   1   15   24     3     3    1.9768E+05 -3.4737E+02   1.9803E+05  0.000E+00  0.000E+00  0.000E+00  3.59585E+01  1.808E-01  2.000E+01  2.000E+04 -1.737E-02
   1   15   25     3     4    1.9803E+05 -3.3550E+02   1.9837E+05  0.000E+00  0.000E+00  0.000E+00  3.50698E+01  1.810E-01  2.000E+01  2.000E+04 -1.678E-02
   1   15   26     3     5    1.9837E+05 -3.8031E+02   1.9875E+05  0.000E+00  0.000E+00  0.000E+00  3.41811E+01  1.811E-01  2.000E+01  2.000E+04 -1.902E-02
   1   16   27     3     6    1.9875E+05 -4.3723E+02   1.9918E+05  0.000E+00  0.000E+00  0.000E+00  3.32925E+01  1.814E-01  2.000E+01  2.000E+04 -2.186E-02
   1   17   28     3     7    1.9918E+05 -1.7959E+03   2.0098E+05  0.000E+00  0.000E+00  0.000E+00  3.24042E+01  1.820E-01  2.000E+01  2.000E+04 -8.979E-02
   1   18   29     3     8    2.0098E+05 -3.3533E+03   2.0433E+05  0.000E+00  0.000E+00  0.000E+00  3.15167E+01  1.834E-01  2.000E+01  2.000E+04 -1.677E-01
   1   18   30     3     9    2.0433E+05 -3.4590E+03   2.0779E+05  0.000E+00  0.000E+00  0.000E+00  3.06297E+01  1.852E-01  2.000E+01  2.000E+04 -1.729E-01



1
              HEAD IN LAYER   1 AT END OF TIME STEP   1 IN STRESS PERIOD    4
  ---------------------------------------------------------------------------

          1      2      3      4      5      6      7      8      9     10
         11     12     13     14     15     16     17     18     19     20
         21     22     23     24     25     26     27     28     29     30
 .........................................................................
   1  ****** ****** ****** ****** ****** ****** ****** ****** ****** ******
      ****** ****** ****** ****** ****** ****** ****** ****** ****** ******
      ****** ****** ****** ****** ****** ****** ****** ****** ****** ******
   2  ****** ****** ****** ****** ****** ****** ****** ****** ****** ******
      ****** ****** ****** ****** ****** ****** ****** ****** ****** ******
      ****** ****** ****** ****** ****** ****** ****** ****** ****** ******
   3  ****** ****** ****** ****** ****** ****** ****** ****** ****** ******
      ****** ****** ****** ****** ****** ****** ****** ****** ****** ******
      ****** ****** ****** ****** ****** ****** ****** ****** ****** ******
   4  ****** ****** ****** ****** ****** ****** ****** ****** ****** ******
      ****** ****** ****** ****** ****** ****** ****** ****** ****** ******
      ****** ****** ****** ****** ****** ****** ****** ****** ****** ******
   5  ****** ****** ****** ****** ****** ****** ****** ****** ****** ******
      ****** ****** ****** ****** ****** ****** ****** ****** ****** ******
      ****** ****** ****** ****** ****** ****** ****** ****** ****** ******
   6  ****** ****** ****** ****** ****** ****** ****** ****** ****** ******
      ****** ****** ****** ****** ****** ****** ****** ****** ****** ******
      ****** ****** ****** ****** ****** ****** ****** ****** ****** ******
   7  ****** ****** ****** ****** ****** ****** ****** ****** ****** ******
      ****** ****** ****** ****** ****** ****** ****** ****** ****** ******
      ****** ****** ****** ****** ****** ****** ****** ****** ****** ******
   8  ****** ****** ****** ****** ****** ****** ****** ****** ****** ******
      ****** ****** ****** ****** ****** ****** ****** ****** ****** ******
      ****** ****** ****** ****** ****** ****** ****** ****** ****** ******
   9  ****** ****** ****** ****** ****** ****** ****** ****** ****** ******
      ****** ****** ****** ****** ****** ****** ****** ****** ****** ******
      ****** ****** ****** ****** ****** ****** ****** ****** ****** ******
  10  ****** ****** ****** ****** ****** ****** ****** ****** ****** ******
      ****** ****** ****** ****** ****** ****** ****** ****** ****** ******
      ****** ****** ****** ****** ****** ****** ****** ****** ****** ******
  11  ****** ****** ****** ****** ****** ****** ****** ****** ****** ******
      ****** ****** ****** ****** ****** ****** ****** ****** ****** ******
      ****** ****** ****** ****** ****** ****** ****** ****** ****** ******
  12  ****** ****** ****** ****** ****** ****** ****** ****** ****** ******
      ****** ****** ****** ****** ****** ****** ****** ****** ****** ******
      ****** ****** ****** ****** ****** ****** ****** ****** ****** ******
  13  ****** ****** ****** ****** ****** ****** ****** ****** ****** ******
      ****** ****** ****** ****** ****** ****** ****** ****** ****** ******
      ****** ****** ****** ****** ****** ****** ****** ****** ****** ******
  14  ****** ****** ****** ****** ****** ****** ****** ****** ****** ******
      ****** ****** ****** ****** ****** ****** ****** ****** ****** ******
      ****** ****** ****** ****** ****** ****** ****** ****** ****** ******
  15  ****** ****** ****** ****** ****** ****** ****** ****** ****** ******
      ****** ****** ****** ****** ****** ****** ****** ****** ****** ******
      ****** ****** ****** ****** ****** ****** ****** ****** ****** ******
  16  ****** ****** ****** ****** ****** ****** ****** ****** ****** ******
      ****** ****** ****** ****** ****** ****** ****** ****** ****** ******
      ****** ****** ****** ****** ****** ****** ****** ****** ****** ******
  17  ****** ****** ****** ****** ****** ****** ****** ****** ****** ******
      ****** ****** ****** ****** ****** ****** ****** ****** ****** ******
      ****** ****** ****** ****** ****** ****** ****** ****** ****** ******
  18  ****** ****** ****** ****** ****** ****** ****** ****** ****** ******
      ****** ****** ****** ****** ****** ****** ****** ****** ****** ******
      ****** ****** ****** ****** ****** ****** ****** ****** ****** ******
  19  ****** ****** ****** ****** ****** ****** ****** ****** ****** ******
      ****** ****** ****** ****** ****** ****** ****** ****** ****** ******
      ****** ****** ****** ****** ****** ****** ****** ****** ****** ******
  20  ****** ****** ****** ****** ****** ****** ****** ****** ****** ******
      ****** ****** ****** ****** ****** ****** ****** ****** ****** ******
      ****** ****** ****** ****** ****** ****** ****** ****** ****** ******
  21  ****** ****** ****** ****** ****** ****** ****** ****** ****** ******
      ****** ****** ****** ****** ****** ****** ****** ****** ****** ******
      ****** ****** ****** ****** ****** ****** ****** ****** ****** ******
  22  ****** ****** ****** ****** ****** ****** ****** ****** ****** ******
      ****** ****** ****** ****** ****** ****** ****** ****** ****** ******
      ****** ****** ****** ****** ****** ****** ****** ****** ****** ******
  23  ****** ****** ****** ****** ****** ****** ****** ****** ****** ******
      ****** ****** ****** ****** ****** ****** ****** ****** ****** ******
      ****** ****** ****** ****** ****** ****** ****** ****** ****** ******
  24  ****** ****** ****** ****** ****** ****** ****** ****** ****** ******
      ****** ****** ****** ****** ****** ****** ****** ****** ****** ******
      ****** ****** ****** ****** ****** ****** ****** ****** ****** ******
  25  ****** ****** ****** ****** ****** ****** ****** ****** ****** ******
      ****** ****** ****** ****** ****** ****** ****** ****** ****** ******
      ****** ****** ****** ****** ****** ****** ****** ****** ****** ******

 HEAD WILL BE SAVED ON UNIT   51 AT END OF TIME STEP    1, STRESS PERIOD    4
1
  VOLUMETRIC BUDGET FOR ENTIRE MODEL AT END OF TIME STEP    1, STRESS PERIOD   4
  ------------------------------------------------------------------------------

     CUMULATIVE VOLUMES      L**3       RATES FOR THIS TIME STEP      L**3/T
     ------------------                 ------------------------

           IN:                                      IN:
           ---                                      ---
             STORAGE =    29778355.2294               STORAGE =       20123.4483
       CONSTANT HEAD =     8039135.2358         CONSTANT HEAD =       29755.1272
               WELLS =           0.0000                 WELLS =           0.0000
            RECHARGE =     8804400.0000              RECHARGE =       27600.0000
      STREAM LEAKAGE =     1990936.8578        STREAM LEAKAGE =        6363.8339

            TOTAL IN =    48612827.3230              TOTAL IN =       83842.4094

          OUT:                                     OUT:
          ----                                     ----
             STORAGE =        1186.7598               STORAGE =          13.0413
       CONSTANT HEAD =           0.0000         CONSTANT HEAD =           0.0000
               WELLS =     7181260.8933                 WELLS =       19674.6874
            RECHARGE =           0.0000              RECHARGE =           0.0000
      STREAM LEAKAGE =    41430381.6534        STREAM LEAKAGE =       64154.6817

           TOTAL OUT =    48612829.3065             TOTAL OUT =       83842.4104

            IN - OUT =          -1.9835              IN - OUT =      -9.7431E-04

 PERCENT DISCREPANCY =          -0.00     PERCENT DISCREPANCY =          -0.00






         TIME SUMMARY AT END OF TIME STEP    1 IN STRESS PERIOD    4
                    SECONDS     MINUTES      HOURS       DAYS        YEARS
                    -----------------------------------------------------------
   TIME STEP LENGTH 7.86240E+06 1.31040E+05  2184.0      91.000     0.24914    
 STRESS PERIOD TIME 7.86240E+06 1.31040E+05  2184.0      91.000     0.24914    
         TOTAL TIME 3.15360E+07 5.25600E+05  8760.0      365.00     0.99932    
1
1
                            STRESS PERIOD NO.    5, LENGTH =   92.00000    
                            -----------------------------------------------

                              NUMBER OF TIME STEPS =     1

                               MULTIPLIER FOR DELT =     1.500

                            INITIAL TIME STEP SIZE =   92.00000    

 WELL NO.  LAYER   ROW   COL   STRESS RATE         
 --------------------------------------------------
      1      1     14      6       0.000    
      2      1      3      9       0.000    
      3      1     20     10       0.000    
      4      1     14     20       0.000    
      5      1      6     26      -9457.    
      6      1     23      4      -2056.    
      7      1     12     10      -1573.    
      8      1      4      5      -6588.    

      8 WELLS

                 RECHARGE =  5.000000E-04

 REUSING STREAM SEGMENT DATA FROM LAST STRESS PERIOD
 
 SOLVING FOR HEAD 


     7 CALLS TO PCG ROUTINE FOR TIME STEP   1 IN STRESS PERIOD    5
    26 TOTAL ITERATIONS

 OUTPUT CONTROL FOR STRESS PERIOD    5   TIME STEP    1
    SAVE BUDGET
    SAVE HEAD FOR ALL LAYERS
    PRINT HEAD FOR ALL LAYERS
 UBDSV2 SAVING "STREAMFLOW OUT  " ON UNIT  50 AT TIME STEP  1, STRESS PERIOD   5



 STREAM LISTING     PERIOD      5   STEP        1

 LAYER ROW COL. STREAM  RCH.  FLOW INTO     FLOW TO   FLOW OUT OF   OVRLND.     DIRECT     STREAM       STREAM     STREAM     STREAM   STREAMBED  STREAMBED
                SEG.NO.  NO.  STRM. RCH.    AQUIFER    STRM. RCH.    RUNOFF     PRECIP       ET          HEAD       DEPTH      WIDTH   CONDCTNC.   GRADIENT

   1   13    1     1     1    1.0000E+05 -1.4248E+03   1.0142E+05  0.000E+00  0.000E+00  0.000E+00  4.84066E+01  1.453E-01  2.000E+01  2.000E+04 -7.124E-02
   1   13    2     1     2    1.0142E+05 -2.3951E+03   1.0382E+05  0.000E+00  0.000E+00  0.000E+00  4.79310E+01  1.469E-01  2.000E+01  2.000E+04 -1.198E-01
   1   14    3     1     3    1.0382E+05 -4.2633E+02   1.0425E+05  0.000E+00  0.000E+00  0.000E+00  4.74549E+01  1.481E-01  2.000E+01  2.000E+04 -2.132E-02
   1   15    4     1     4    1.0425E+05 -3.9598E+02   1.0464E+05  0.000E+00  0.000E+00  0.000E+00  4.69780E+01  1.485E-01  2.000E+01  2.000E+04 -1.980E-02
   1   16    5     1     5    1.0464E+05 -1.4023E+03   1.0604E+05  0.000E+00  0.000E+00  0.000E+00  4.65015E+01  1.492E-01  2.000E+01  2.000E+04 -7.011E-02
   1   16    6     1     6    1.0604E+05 -9.3883E+02   1.0698E+05  0.000E+00  0.000E+00  0.000E+00  4.60252E+01  1.502E-01  2.000E+01  2.000E+04 -4.694E-02
   1   16    7     1     7    1.0698E+05 -9.4492E+02   1.0793E+05  0.000E+00  0.000E+00  0.000E+00  4.55488E+01  1.510E-01  2.000E+01  2.000E+04 -4.725E-02
   1   16    8     1     8    1.0793E+05 -9.5330E+02   1.0888E+05  0.000E+00  0.000E+00  0.000E+00  4.50723E+01  1.518E-01  2.000E+01  2.000E+04 -4.767E-02
   1   16    9     1     9    1.0888E+05 -9.5402E+02   1.0984E+05  0.000E+00  0.000E+00  0.000E+00  4.45958E+01  1.526E-01  2.000E+01  2.000E+04 -4.770E-02
   1   16   10     1    10    1.0984E+05 -9.6062E+02   1.1080E+05  0.000E+00  0.000E+00  0.000E+00  4.41193E+01  1.534E-01  2.000E+01  2.000E+04 -4.803E-02
   1   16   11     1    11    1.1080E+05 -1.0120E+03   1.1181E+05  0.000E+00  0.000E+00  0.000E+00  4.36429E+01  1.543E-01  2.000E+01  2.000E+04 -5.060E-02
   1   16   12     1    12    1.1181E+05 -1.7857E+03   1.1359E+05  0.000E+00  0.000E+00  0.000E+00  4.31668E+01  1.554E-01  2.000E+01  2.000E+04 -8.928E-02
   1   15   13     1    13    1.1359E+05 -1.6126E+03   1.1521E+05  0.000E+00  0.000E+00  0.000E+00  4.26909E+01  1.568E-01  2.000E+01  2.000E+04 -8.063E-02
   1   14   14     1    14    1.1521E+05 -1.8579E+03   1.1706E+05  0.000E+00  0.000E+00  0.000E+00  4.22151E+01  1.582E-01  2.000E+01  2.000E+04 -9.289E-02
   1   13   15     1    15    1.1706E+05 -2.1581E+03   1.1922E+05  0.000E+00  0.000E+00  0.000E+00  4.17394E+01  1.599E-01  2.000E+01  2.000E+04 -1.079E-01
   1   12   16     1    16    1.1922E+05 -2.7536E+03   1.2198E+05  0.000E+00  0.000E+00  0.000E+00  4.12641E+01  1.619E-01  2.000E+01  2.000E+04 -1.377E-01
   1   12   17     1    17    1.2198E+05 -1.8392E+03   1.2382E+05  0.000E+00  0.000E+00  0.000E+00  4.07887E+01  1.637E-01  2.000E+01  2.000E+04 -9.196E-02
   1   12   18     1    18    1.2382E+05 -1.7458E+03   1.2556E+05  0.000E+00  0.000E+00  0.000E+00  4.03129E+01  1.651E-01  2.000E+01  2.000E+04 -8.729E-02
   1   12   19     1    19    1.2556E+05 -2.1833E+03   1.2774E+05  0.000E+00  0.000E+00  0.000E+00  3.98371E+01  1.667E-01  2.000E+01  2.000E+04 -1.092E-01
   1   13   20     1    20    1.2774E+05 -1.7287E+03   1.2947E+05  0.000E+00  0.000E+00  0.000E+00  3.93614E+01  1.682E-01  2.000E+01  2.000E+04 -8.643E-02
   1   14   21     1    21    1.2947E+05 -1.7095E+03   1.3118E+05  0.000E+00  0.000E+00  0.000E+00  3.88855E+01  1.696E-01  2.000E+01  2.000E+04 -8.548E-02
   1   14   22     1    22    1.3118E+05  4.9078E+03   1.2627E+05  0.000E+00  0.000E+00  0.000E+00  3.84070E+01  1.683E-01  2.000E+01  2.000E+04  2.454E-01
   1    9   30     2     1    5.0000E+04  9.0794E+01   4.9909E+04  0.000E+00  0.000E+00  0.000E+00  4.02408E+01  1.158E-01  2.000E+01  2.000E+04  4.540E-03
   1    9   29     2     2    4.9909E+04 -1.2467E+02   5.0034E+04  0.000E+00  0.000E+00  0.000E+00  3.99908E+01  1.158E-01  2.000E+01  2.000E+04 -6.234E-03
   1    9   28     2     3    5.0034E+04 -1.8942E+02   5.0223E+04  0.000E+00  0.000E+00  0.000E+00  3.97410E+01  1.160E-01  2.000E+01  2.000E+04 -9.471E-03
   1    9   27     2     4    5.0223E+04 -6.1837E+02   5.0842E+04  0.000E+00  0.000E+00  0.000E+00  3.94916E+01  1.166E-01  2.000E+01  2.000E+04 -3.092E-02
   1   10   26     2     5    5.0842E+04 -6.6432E+02   5.1506E+04  0.000E+00  0.000E+00  0.000E+00  3.92425E+01  1.175E-01  2.000E+01  2.000E+04 -3.322E-02
   1   11   25     2     6    5.1506E+04 -8.9213E+02   5.2398E+04  0.000E+00  0.000E+00  0.000E+00  3.89936E+01  1.186E-01  2.000E+01  2.000E+04 -4.461E-02
   1   12   24     2     7    5.2398E+04 -1.1701E+03   5.3568E+04  0.000E+00  0.000E+00  0.000E+00  3.87450E+01  1.200E-01  2.000E+01  2.000E+04 -5.850E-02
   1   13   23     2     8    5.3568E+04 -1.9927E+02   5.3767E+04  0.000E+00  0.000E+00  0.000E+00  3.84959E+01  1.209E-01  2.000E+01  2.000E+04 -9.963E-03
   1   14   22     2     9    5.3767E+04  1.6667E+03   5.2101E+04  0.000E+00  0.000E+00  0.000E+00  3.82449E+01  1.199E-01  2.000E+01  2.000E+04  8.333E-02
   1   14   22     3     1    1.7838E+05 -8.6736E+03   1.8705E+05  0.000E+00  0.000E+00  0.000E+00  3.77279E+01  1.723E-01  2.000E+01  2.000E+04 -4.337E-01
   1   15   23     3     2    1.8705E+05 -5.5550E+02   1.8760E+05  0.000E+00  0.000E+00  0.000E+00  3.68416E+01  1.749E-01  2.000E+01  2.000E+04 -2.777E-02
   1   15   24     3     3    1.8760E+05 -2.7647E+02   1.8788E+05  0.000E+00  0.000E+00  0.000E+00  3.59529E+01  1.752E-01  2.000E+01  2.000E+04 -1.382E-02
   1   15   25     3     4    1.8788E+05 -2.6503E+02   1.8815E+05  0.000E+00  0.000E+00  0.000E+00  3.50642E+01  1.753E-01  2.000E+01  2.000E+04 -1.325E-02
   1   15   26     3     5    1.8815E+05 -3.0871E+02   1.8845E+05  0.000E+00  0.000E+00  0.000E+00  3.41755E+01  1.755E-01  2.000E+01  2.000E+04 -1.544E-02
   1   16   27     3     6    1.8845E+05 -3.4763E+02   1.8880E+05  0.000E+00  0.000E+00  0.000E+00  3.32868E+01  1.757E-01  2.000E+01  2.000E+04 -1.738E-02
   1   17   28     3     7    1.8880E+05 -1.5313E+03   1.9033E+05  0.000E+00  0.000E+00  0.000E+00  3.23984E+01  1.762E-01  2.000E+01  2.000E+04 -7.656E-02
   1   18   29     3     8    1.9033E+05 -2.9864E+03   1.9332E+05  0.000E+00  0.000E+00  0.000E+00  3.15108E+01  1.774E-01  2.000E+01  2.000E+04 -1.493E-01
   1   18   30     3     9    1.9332E+05 -3.2057E+03   1.9653E+05  0.000E+00  0.000E+00  0.000E+00  3.06236E+01  1.792E-01  2.000E+01  2.000E+04 -1.603E-01



1
              HEAD IN LAYER   1 AT END OF TIME STEP   1 IN STRESS PERIOD    5
  ---------------------------------------------------------------------------

          1      2      3      4      5      6      7      8      9     10
         11     12     13     14     15     16     17     18     19     20
         21     22     23     24     25     26     27     28     29     30
 .........................................................................
   1  ****** ****** ****** ****** ****** ****** ****** ****** ****** ******
      ****** ****** ****** ****** ****** ****** ****** ****** ****** ******
      ****** ****** ****** ****** ****** ****** ****** ****** ****** ******
   2  ****** ****** ****** ****** ****** ****** ****** ****** ****** ******
      ****** ****** ****** ****** ****** ****** ****** ****** ****** ******
      ****** ****** ****** ****** ****** ****** ****** ****** ****** ******
   3  ****** ****** ****** ****** ****** ****** ****** ****** ****** ******
      ****** ****** ****** ****** ****** ****** ****** ****** ****** ******
      ****** ****** ****** ****** ****** ****** ****** ****** ****** ******
   4  ****** ****** ****** ****** ****** ****** ****** ****** ****** ******
      ****** ****** ****** ****** ****** ****** ****** ****** ****** ******
      ****** ****** ****** ****** ****** ****** ****** ****** ****** ******
   5  ****** ****** ****** ****** ****** ****** ****** ****** ****** ******
      ****** ****** ****** ****** ****** ****** ****** ****** ****** ******
      ****** ****** ****** ****** ****** ****** ****** ****** ****** ******
   6  ****** ****** ****** ****** ****** ****** ****** ****** ****** ******
      ****** ****** ****** ****** ****** ****** ****** ****** ****** ******
      ****** ****** ****** ****** ****** ****** ****** ****** ****** ******
   7  ****** ****** ****** ****** ****** ****** ****** ****** ****** ******
      ****** ****** ****** ****** ****** ****** ****** ****** ****** ******
      ****** ****** ****** ****** ****** ****** ****** ****** ****** ******
   8  ****** ****** ****** ****** ****** ****** ****** ****** ****** ******
      ****** ****** ****** ****** ****** ****** ****** ****** ****** ******
      ****** ****** ****** ****** ****** ****** ****** ****** ****** ******
   9  ****** ****** ****** ****** ****** ****** ****** ****** ****** ******
      ****** ****** ****** ****** ****** ****** ****** ****** ****** ******
      ****** ****** ****** ****** ****** ****** ****** ****** ****** ******
  10  ****** ****** ****** ****** ****** ****** ****** ****** ****** ******
      ****** ****** ****** ****** ****** ****** ****** ****** ****** ******
      ****** ****** ****** ****** ****** ****** ****** ****** ****** ******
  11  ****** ****** ****** ****** ****** ****** ****** ****** ****** ******
      ****** ****** ****** ****** ****** ****** ****** ****** ****** ******
      ****** ****** ****** ****** ****** ****** ****** ****** ****** ******
  12  ****** ****** ****** ****** ****** ****** ****** ****** ****** ******
      ****** ****** ****** ****** ****** ****** ****** ****** ****** ******
      ****** ****** ****** ****** ****** ****** ****** ****** ****** ******
  13  ****** ****** ****** ****** ****** ****** ****** ****** ****** ******
      ****** ****** ****** ****** ****** ****** ****** ****** ****** ******
      ****** ****** ****** ****** ****** ****** ****** ****** ****** ******
  14  ****** ****** ****** ****** ****** ****** ****** ****** ****** ******
      ****** ****** ****** ****** ****** ****** ****** ****** ****** ******
      ****** ****** ****** ****** ****** ****** ****** ****** ****** ******
  15  ****** ****** ****** ****** ****** ****** ****** ****** ****** ******
      ****** ****** ****** ****** ****** ****** ****** ****** ****** ******
      ****** ****** ****** ****** ****** ****** ****** ****** ****** ******
  16  ****** ****** ****** ****** ****** ****** ****** ****** ****** ******
      ****** ****** ****** ****** ****** ****** ****** ****** ****** ******
      ****** ****** ****** ****** ****** ****** ****** ****** ****** ******
  17  ****** ****** ****** ****** ****** ****** ****** ****** ****** ******
      ****** ****** ****** ****** ****** ****** ****** ****** ****** ******
      ****** ****** ****** ****** ****** ****** ****** ****** ****** ******
  18  ****** ****** ****** ****** ****** ****** ****** ****** ****** ******
      ****** ****** ****** ****** ****** ****** ****** ****** ****** ******
      ****** ****** ****** ****** ****** ****** ****** ****** ****** ******
  19  ****** ****** ****** ****** ****** ****** ****** ****** ****** ******
      ****** ****** ****** ****** ****** ****** ****** ****** ****** ******
      ****** ****** ****** ****** ****** ****** ****** ****** ****** ******
  20  ****** ****** ****** ****** ****** ****** ****** ****** ****** ******
      ****** ****** ****** ****** ****** ****** ****** ****** ****** ******
      ****** ****** ****** ****** ****** ****** ****** ****** ****** ******
  21  ****** ****** ****** ****** ****** ****** ****** ****** ****** ******
      ****** ****** ****** ****** ****** ****** ****** ****** ****** ******
      ****** ****** ****** ****** ****** ****** ****** ****** ****** ******
  22  ****** ****** ****** ****** ****** ****** ****** ****** ****** ******
      ****** ****** ****** ****** ****** ****** ****** ****** ****** ******
      ****** ****** ****** ****** ****** ****** ****** ****** ****** ******
  23  ****** ****** ****** ****** ****** ****** ****** ****** ****** ******
      ****** ****** ****** ****** ****** ****** ****** ****** ****** ******
      ****** ****** ****** ****** ****** ****** ****** ****** ****** ******
  24  ****** ****** ****** ****** ****** ****** ****** ****** ****** ******
      ****** ****** ****** ****** ****** ****** ****** ****** ****** ******
      ****** ****** ****** ****** ****** ****** ****** ****** ****** ******
  25  ****** ****** ****** ****** ****** ****** ****** ****** ****** ******
      ****** ****** ****** ****** ****** ****** ****** ****** ****** ******
      ****** ****** ****** ****** ****** ****** ****** ****** ****** ******

 HEAD WILL BE SAVED ON UNIT   51 AT END OF TIME STEP    1, STRESS PERIOD    5
1
  VOLUMETRIC BUDGET FOR ENTIRE MODEL AT END OF TIME STEP    1, STRESS PERIOD   5
  ------------------------------------------------------------------------------

     CUMULATIVE VOLUMES      L**3       RATES FOR THIS TIME STEP      L**3/T
     ------------------                 ------------------------

           IN:                                      IN:
           ---                                      ---
             STORAGE =    31580774.2804               STORAGE =       19591.5114
       CONSTANT HEAD =    11057552.7653         CONSTANT HEAD =       32808.8862
               WELLS =           0.0000                 WELLS =           0.0000
            RECHARGE =    10074000.0000              RECHARGE =       13800.0000
      STREAM LEAKAGE =     2604143.2564        STREAM LEAKAGE =        6665.2869

            TOTAL IN =    55316470.3021              TOTAL IN =       72865.6846

          OUT:                                     OUT:
          ----                                     ----
             STORAGE =        1186.7598               STORAGE =           0.0000
       CONSTANT HEAD =           0.0000         CONSTANT HEAD =           0.0000
               WELLS =     8991332.1321                 WELLS =       19674.6874
            RECHARGE =           0.0000              RECHARGE =           0.0000
      STREAM LEAKAGE =    46323953.6908        STREAM LEAKAGE =       53191.0004

           TOTAL OUT =    55316472.5827             TOTAL OUT =       72865.6878

            IN - OUT =          -2.2807              IN - OUT =      -3.2297E-03

 PERCENT DISCREPANCY =          -0.00     PERCENT DISCREPANCY =          -0.00






         TIME SUMMARY AT END OF TIME STEP    1 IN STRESS PERIOD    5
                    SECONDS     MINUTES      HOURS       DAYS        YEARS
                    -----------------------------------------------------------
   TIME STEP LENGTH 7.94880E+06 1.32480E+05  2208.0      92.000     0.25188    
 STRESS PERIOD TIME 7.94880E+06 1.32480E+05  2208.0      92.000     0.25188    
         TOTAL TIME 3.94848E+07 6.58080E+05  10968.      457.00      1.2512    
1
1
                            STRESS PERIOD NO.    6, LENGTH =   91.00000    
                            -----------------------------------------------

                              NUMBER OF TIME STEPS =     1

                               MULTIPLIER FOR DELT =     1.500

                            INITIAL TIME STEP SIZE =   91.00000    

 WELL NO.  LAYER   ROW   COL   STRESS RATE         
 --------------------------------------------------
      1      1     14      6       0.000    
      2      1      3      9       0.000    
      3      1     20     10       0.000    
      4      1     14     20       0.000    
      5      1      6     26      -9457.    
      6      1     23      4      -2056.    
      7      1     12     10      -1573.    
      8      1      4      5      -6588.    

      8 WELLS

                 RECHARGE =  2.000000E-03

 REUSING STREAM SEGMENT DATA FROM LAST STRESS PERIOD
 
 SOLVING FOR HEAD 


     7 CALLS TO PCG ROUTINE FOR TIME STEP   1 IN STRESS PERIOD    6
    26 TOTAL ITERATIONS

 OUTPUT CONTROL FOR STRESS PERIOD    6   TIME STEP    1
    SAVE BUDGET
    SAVE HEAD FOR ALL LAYERS
    PRINT HEAD FOR ALL LAYERS
 UBDSV2 SAVING "STREAMFLOW OUT  " ON UNIT  50 AT TIME STEP  1, STRESS PERIOD   6



 STREAM LISTING     PERIOD      6   STEP        1

 LAYER ROW COL. STREAM  RCH.  FLOW INTO     FLOW TO   FLOW OUT OF   OVRLND.     DIRECT     STREAM       STREAM     STREAM     STREAM   STREAMBED  STREAMBED
                SEG.NO.  NO.  STRM. RCH.    AQUIFER    STRM. RCH.    RUNOFF     PRECIP       ET          HEAD       DEPTH      WIDTH   CONDCTNC.   GRADIENT

   1   13    1     1     1    1.0000E+05 -1.6957E+03   1.0170E+05  0.000E+00  0.000E+00  0.000E+00  4.84068E+01  1.454E-01  2.000E+01  2.000E+04 -8.478E-02
   1   13    2     1     2    1.0170E+05 -2.6888E+03   1.0438E+05  0.000E+00  0.000E+00  0.000E+00  4.79314E+01  1.473E-01  2.000E+01  2.000E+04 -1.344E-01
   1   14    3     1     3    1.0438E+05 -5.7383E+02   1.0496E+05  0.000E+00  0.000E+00  0.000E+00  4.74555E+01  1.487E-01  2.000E+01  2.000E+04 -2.869E-02
   1   15    4     1     4    1.0496E+05 -5.5633E+02   1.0551E+05  0.000E+00  0.000E+00  0.000E+00  4.69787E+01  1.492E-01  2.000E+01  2.000E+04 -2.782E-02
   1   16    5     1     5    1.0551E+05 -1.8918E+03   1.0741E+05  0.000E+00  0.000E+00  0.000E+00  4.65025E+01  1.502E-01  2.000E+01  2.000E+04 -9.459E-02
   1   16    6     1     6    1.0741E+05 -1.2241E+03   1.0863E+05  0.000E+00  0.000E+00  0.000E+00  4.60265E+01  1.515E-01  2.000E+01  2.000E+04 -6.121E-02
   1   16    7     1     7    1.0863E+05 -1.2149E+03   1.0985E+05  0.000E+00  0.000E+00  0.000E+00  4.55503E+01  1.525E-01  2.000E+01  2.000E+04 -6.075E-02
   1   16    8     1     8    1.0985E+05 -1.2193E+03   1.1106E+05  0.000E+00  0.000E+00  0.000E+00  4.50740E+01  1.535E-01  2.000E+01  2.000E+04 -6.096E-02
   1   16    9     1     9    1.1106E+05 -1.2207E+03   1.1229E+05  0.000E+00  0.000E+00  0.000E+00  4.45977E+01  1.546E-01  2.000E+01  2.000E+04 -6.103E-02
   1   16   10     1    10    1.1229E+05 -1.2306E+03   1.1352E+05  0.000E+00  0.000E+00  0.000E+00  4.41215E+01  1.556E-01  2.000E+01  2.000E+04 -6.153E-02
   1   16   11     1    11    1.1352E+05 -1.2876E+03   1.1480E+05  0.000E+00  0.000E+00  0.000E+00  4.36453E+01  1.566E-01  2.000E+01  2.000E+04 -6.438E-02
   1   16   12     1    12    1.1480E+05 -2.2309E+03   1.1703E+05  0.000E+00  0.000E+00  0.000E+00  4.31694E+01  1.581E-01  2.000E+01  2.000E+04 -1.115E-01
   1   15   13     1    13    1.1703E+05 -2.0590E+03   1.1909E+05  0.000E+00  0.000E+00  0.000E+00  4.26939E+01  1.598E-01  2.000E+01  2.000E+04 -1.030E-01
   1   14   14     1    14    1.1909E+05 -2.2936E+03   1.2139E+05  0.000E+00  0.000E+00  0.000E+00  4.22184E+01  1.616E-01  2.000E+01  2.000E+04 -1.147E-01
   1   13   15     1    15    1.2139E+05 -2.5695E+03   1.2396E+05  0.000E+00  0.000E+00  0.000E+00  4.17431E+01  1.635E-01  2.000E+01  2.000E+04 -1.285E-01
   1   12   16     1    16    1.2396E+05 -3.1102E+03   1.2707E+05  0.000E+00  0.000E+00  0.000E+00  4.12681E+01  1.658E-01  2.000E+01  2.000E+04 -1.555E-01
   1   12   17     1    17    1.2707E+05 -2.1406E+03   1.2921E+05  0.000E+00  0.000E+00  0.000E+00  4.07929E+01  1.679E-01  2.000E+01  2.000E+04 -1.070E-01
   1   12   18     1    18    1.2921E+05 -2.0538E+03   1.3126E+05  0.000E+00  0.000E+00  0.000E+00  4.03172E+01  1.695E-01  2.000E+01  2.000E+04 -1.027E-01
   1   12   19     1    19    1.3126E+05 -2.5663E+03   1.3383E+05  0.000E+00  0.000E+00  0.000E+00  3.98417E+01  1.713E-01  2.000E+01  2.000E+04 -1.283E-01
   1   13   20     1    20    1.3383E+05 -2.1493E+03   1.3598E+05  0.000E+00  0.000E+00  0.000E+00  3.93663E+01  1.731E-01  2.000E+01  2.000E+04 -1.075E-01
   1   14   21     1    21    1.3598E+05 -2.1269E+03   1.3810E+05  0.000E+00  0.000E+00  0.000E+00  3.88907E+01  1.748E-01  2.000E+01  2.000E+04 -1.063E-01
   1   14   22     1    22    1.3810E+05  4.7973E+03   1.3331E+05  0.000E+00  0.000E+00  0.000E+00  3.84124E+01  1.737E-01  2.000E+01  2.000E+04  2.399E-01
   1    9   30     2     1    5.0000E+04 -2.6856E+02   5.0269E+04  0.000E+00  0.000E+00  0.000E+00  4.02411E+01  1.161E-01  2.000E+01  2.000E+04 -1.343E-02
   1    9   29     2     2    5.0269E+04 -4.7946E+02   5.0748E+04  0.000E+00  0.000E+00  0.000E+00  3.99916E+01  1.166E-01  2.000E+01  2.000E+04 -2.397E-02
   1    9   28     2     3    5.0748E+04 -5.3685E+02   5.1285E+04  0.000E+00  0.000E+00  0.000E+00  3.97423E+01  1.173E-01  2.000E+01  2.000E+04 -2.684E-02
   1    9   27     2     4    5.1285E+04 -1.0543E+03   5.2339E+04  0.000E+00  0.000E+00  0.000E+00  3.94934E+01  1.184E-01  2.000E+01  2.000E+04 -5.272E-02
   1   10   26     2     5    5.2339E+04 -1.1268E+03   5.3466E+04  0.000E+00  0.000E+00  0.000E+00  3.92449E+01  1.199E-01  2.000E+01  2.000E+04 -5.634E-02
   1   11   25     2     6    5.3466E+04 -1.3408E+03   5.4807E+04  0.000E+00  0.000E+00  0.000E+00  3.89965E+01  1.215E-01  2.000E+01  2.000E+04 -6.704E-02
   1   12   24     2     7    5.4807E+04 -1.5741E+03   5.6381E+04  0.000E+00  0.000E+00  0.000E+00  3.87485E+01  1.235E-01  2.000E+01  2.000E+04 -7.870E-02
   1   13   23     2     8    5.6381E+04 -3.3621E+02   5.6717E+04  0.000E+00  0.000E+00  0.000E+00  3.84997E+01  1.247E-01  2.000E+01  2.000E+04 -1.681E-02
   1   14   22     2     9    5.6717E+04  1.5290E+03   5.5188E+04  0.000E+00  0.000E+00  0.000E+00  3.82490E+01  1.240E-01  2.000E+01  2.000E+04  7.645E-02
   1   14   22     3     1    1.8849E+05 -8.7785E+03   1.9727E+05  0.000E+00  0.000E+00  0.000E+00  3.77336E+01  1.780E-01  2.000E+01  2.000E+04 -4.389E-01
   1   15   23     3     2    1.9727E+05 -6.9463E+02   1.9797E+05  0.000E+00  0.000E+00  0.000E+00  3.68473E+01  1.806E-01  2.000E+01  2.000E+04 -3.473E-02
   1   15   24     3     3    1.9797E+05 -3.9945E+02   1.9837E+05  0.000E+00  0.000E+00  0.000E+00  3.59587E+01  1.809E-01  2.000E+01  2.000E+04 -1.997E-02
   1   15   25     3     4    1.9837E+05 -3.9236E+02   1.9876E+05  0.000E+00  0.000E+00  0.000E+00  3.50700E+01  1.812E-01  2.000E+01  2.000E+04 -1.962E-02
   1   15   26     3     5    1.9876E+05 -4.6071E+02   1.9922E+05  0.000E+00  0.000E+00  0.000E+00  3.41814E+01  1.814E-01  2.000E+01  2.000E+04 -2.304E-02
   1   16   27     3     6    1.9922E+05 -5.1745E+02   1.9974E+05  0.000E+00  0.000E+00  0.000E+00  3.32928E+01  1.817E-01  2.000E+01  2.000E+04 -2.587E-02
   1   17   28     3     7    1.9974E+05 -1.9981E+03   2.0174E+05  0.000E+00  0.000E+00  0.000E+00  3.24046E+01  1.823E-01  2.000E+01  2.000E+04 -9.990E-02
   1   18   29     3     8    2.0174E+05 -3.4346E+03   2.0517E+05  0.000E+00  0.000E+00  0.000E+00  3.15171E+01  1.838E-01  2.000E+01  2.000E+04 -1.717E-01
   1   18   30     3     9    2.0517E+05 -3.5673E+03   2.0874E+05  0.000E+00  0.000E+00  0.000E+00  3.06301E+01  1.857E-01  2.000E+01  2.000E+04 -1.784E-01



1
              HEAD IN LAYER   1 AT END OF TIME STEP   1 IN STRESS PERIOD    6
  ---------------------------------------------------------------------------

          1      2      3      4      5      6      7      8      9     10
         11     12     13     14     15     16     17     18     19     20
         21     22     23     24     25     26     27     28     29     30
 .........................................................................
   1  ****** ****** ****** ****** ****** ****** ****** ****** ****** ******
      ****** ****** ****** ****** ****** ****** ****** ****** ****** ******
      ****** ****** ****** ****** ****** ****** ****** ****** ****** ******
   2  ****** ****** ****** ****** ****** ****** ****** ****** ****** ******
      ****** ****** ****** ****** ****** ****** ****** ****** ****** ******
      ****** ****** ****** ****** ****** ****** ****** ****** ****** ******
   3  ****** ****** ****** ****** ****** ****** ****** ****** ****** ******
      ****** ****** ****** ****** ****** ****** ****** ****** ****** ******
      ****** ****** ****** ****** ****** ****** ****** ****** ****** ******
   4  ****** ****** ****** ****** ****** ****** ****** ****** ****** ******
      ****** ****** ****** ****** ****** ****** ****** ****** ****** ******
      ****** ****** ****** ****** ****** ****** ****** ****** ****** ******
   5  ****** ****** ****** ****** ****** ****** ****** ****** ****** ******
      ****** ****** ****** ****** ****** ****** ****** ****** ****** ******
      ****** ****** ****** ****** ****** ****** ****** ****** ****** ******
   6  ****** ****** ****** ****** ****** ****** ****** ****** ****** ******
      ****** ****** ****** ****** ****** ****** ****** ****** ****** ******
      ****** ****** ****** ****** ****** ****** ****** ****** ****** ******
   7  ****** ****** ****** ****** ****** ****** ****** ****** ****** ******
      ****** ****** ****** ****** ****** ****** ****** ****** ****** ******
      ****** ****** ****** ****** ****** ****** ****** ****** ****** ******
   8  ****** ****** ****** ****** ****** ****** ****** ****** ****** ******
      ****** ****** ****** ****** ****** ****** ****** ****** ****** ******
      ****** ****** ****** ****** ****** ****** ****** ****** ****** ******
   9  ****** ****** ****** ****** ****** ****** ****** ****** ****** ******
      ****** ****** ****** ****** ****** ****** ****** ****** ****** ******
      ****** ****** ****** ****** ****** ****** ****** ****** ****** ******
  10  ****** ****** ****** ****** ****** ****** ****** ****** ****** ******
      ****** ****** ****** ****** ****** ****** ****** ****** ****** ******
      ****** ****** ****** ****** ****** ****** ****** ****** ****** ******
  11  ****** ****** ****** ****** ****** ****** ****** ****** ****** ******
      ****** ****** ****** ****** ****** ****** ****** ****** ****** ******
      ****** ****** ****** ****** ****** ****** ****** ****** ****** ******
  12  ****** ****** ****** ****** ****** ****** ****** ****** ****** ******
      ****** ****** ****** ****** ****** ****** ****** ****** ****** ******
      ****** ****** ****** ****** ****** ****** ****** ****** ****** ******
  13  ****** ****** ****** ****** ****** ****** ****** ****** ****** ******
      ****** ****** ****** ****** ****** ****** ****** ****** ****** ******
      ****** ****** ****** ****** ****** ****** ****** ****** ****** ******
  14  ****** ****** ****** ****** ****** ****** ****** ****** ****** ******
      ****** ****** ****** ****** ****** ****** ****** ****** ****** ******
      ****** ****** ****** ****** ****** ****** ****** ****** ****** ******
  15  ****** ****** ****** ****** ****** ****** ****** ****** ****** ******
      ****** ****** ****** ****** ****** ****** ****** ****** ****** ******
      ****** ****** ****** ****** ****** ****** ****** ****** ****** ******
  16  ****** ****** ****** ****** ****** ****** ****** ****** ****** ******
      ****** ****** ****** ****** ****** ****** ****** ****** ****** ******
      ****** ****** ****** ****** ****** ****** ****** ****** ****** ******
  17  ****** ****** ****** ****** ****** ****** ****** ****** ****** ******
      ****** ****** ****** ****** ****** ****** ****** ****** ****** ******
      ****** ****** ****** ****** ****** ****** ****** ****** ****** ******
  18  ****** ****** ****** ****** ****** ****** ****** ****** ****** ******
      ****** ****** ****** ****** ****** ****** ****** ****** ****** ******
      ****** ****** ****** ****** ****** ****** ****** ****** ****** ******
  19  ****** ****** ****** ****** ****** ****** ****** ****** ****** ******
      ****** ****** ****** ****** ****** ****** ****** ****** ****** ******
      ****** ****** ****** ****** ****** ****** ****** ****** ****** ******
  20  ****** ****** ****** ****** ****** ****** ****** ****** ****** ******
      ****** ****** ****** ****** ****** ****** ****** ****** ****** ******
      ****** ****** ****** ****** ****** ****** ****** ****** ****** ******
  21  ****** ****** ****** ****** ****** ****** ****** ****** ****** ******
      ****** ****** ****** ****** ****** ****** ****** ****** ****** ******
      ****** ****** ****** ****** ****** ****** ****** ****** ****** ******
  22  ****** ****** ****** ****** ****** ****** ****** ****** ****** ******
      ****** ****** ****** ****** ****** ****** ****** ****** ****** ******
      ****** ****** ****** ****** ****** ****** ****** ****** ****** ******
  23  ****** ****** ****** ****** ****** ****** ****** ****** ****** ******
      ****** ****** ****** ****** ****** ****** ****** ****** ****** ******
      ****** ****** ****** ****** ****** ****** ****** ****** ****** ******
  24  ****** ****** ****** ****** ****** ****** ****** ****** ****** ******
      ****** ****** ****** ****** ****** ****** ****** ****** ****** ******
      ****** ****** ****** ****** ****** ****** ****** ****** ****** ******
  25  ****** ****** ****** ****** ****** ****** ****** ****** ****** ******
      ****** ****** ****** ****** ****** ****** ****** ****** ****** ******
      ****** ****** ****** ****** ****** ****** ****** ****** ****** ******

 HEAD WILL BE SAVED ON UNIT   51 AT END OF TIME STEP    1, STRESS PERIOD    6
1
  VOLUMETRIC BUDGET FOR ENTIRE MODEL AT END OF TIME STEP    1, STRESS PERIOD   6
  ------------------------------------------------------------------------------

     CUMULATIVE VOLUMES      L**3       RATES FOR THIS TIME STEP      L**3/T
     ------------------                 ------------------------

           IN:                                      IN:
           ---                                      ---
             STORAGE =    31594855.0102               STORAGE =         154.7333
       CONSTANT HEAD =    13878682.8446         CONSTANT HEAD =       31001.4294
               WELLS =           0.0000                 WELLS =           0.0000
            RECHARGE =    15097200.0000              RECHARGE =       55200.0000
      STREAM LEAKAGE =     3179843.8619        STREAM LEAKAGE =        6326.3803

            TOTAL IN =    63750581.7167              TOTAL IN =       92682.5430

          OUT:                                     OUT:
          ----                                     ----
             STORAGE =      724087.5746               STORAGE =        7943.9650
       CONSTANT HEAD =           0.0000         CONSTANT HEAD =           0.0000
               WELLS =    10781728.6836                 WELLS =       19674.6874
            RECHARGE =           0.0000              RECHARGE =           0.0000
      STREAM LEAKAGE =    52244767.4940        STREAM LEAKAGE =       65063.8879

           TOTAL OUT =    63750583.7521             TOTAL OUT =       92682.5403

            IN - OUT =          -2.0354              IN - OUT =       2.6950E-03

 PERCENT DISCREPANCY =          -0.00     PERCENT DISCREPANCY =           0.00






         TIME SUMMARY AT END OF TIME STEP    1 IN STRESS PERIOD    6
                    SECONDS     MINUTES      HOURS       DAYS        YEARS
                    -----------------------------------------------------------
   TIME STEP LENGTH 7.86240E+06 1.31040E+05  2184.0      91.000     0.24914    
 STRESS PERIOD TIME 7.86240E+06 1.31040E+05  2184.0      91.000     0.24914    
         TOTAL TIME 4.73472E+07 7.89120E+05  13152.      548.00      1.5003    
1
1
                            STRESS PERIOD NO.    7, LENGTH =   91.00000    
                            -----------------------------------------------

                              NUMBER OF TIME STEPS =     1

                               MULTIPLIER FOR DELT =     1.500

                            INITIAL TIME STEP SIZE =   91.00000    

 WELL NO.  LAYER   ROW   COL   STRESS RATE         
 --------------------------------------------------
      1      1     14      6       0.000    
      2      1      3      9       0.000    
      3      1     20     10       0.000    
      4      1     14     20       0.000    
      5      1      6     26      -9457.    
      6      1     23      4      -2056.    
      7      1     12     10      -1573.    
      8      1      4      5      -6588.    

      8 WELLS

                 RECHARGE =   0.00000    

 REUSING STREAM SEGMENT DATA FROM LAST STRESS PERIOD
 
 SOLVING FOR HEAD 


     7 CALLS TO PCG ROUTINE FOR TIME STEP   1 IN STRESS PERIOD    7
    26 TOTAL ITERATIONS

 OUTPUT CONTROL FOR STRESS PERIOD    7   TIME STEP    1
    SAVE BUDGET
    SAVE HEAD FOR ALL LAYERS
    PRINT HEAD FOR ALL LAYERS
 UBDSV2 SAVING "STREAMFLOW OUT  " ON UNIT  50 AT TIME STEP  1, STRESS PERIOD   7



 STREAM LISTING     PERIOD      7   STEP        1

 LAYER ROW COL. STREAM  RCH.  FLOW INTO     FLOW TO   FLOW OUT OF   OVRLND.     DIRECT     STREAM       STREAM     STREAM     STREAM   STREAMBED  STREAMBED
                SEG.NO.  NO.  STRM. RCH.    AQUIFER    STRM. RCH.    RUNOFF     PRECIP       ET          HEAD       DEPTH      WIDTH   CONDCTNC.   GRADIENT

   1   13    1     1     1    1.0000E+05 -9.9935E+02   1.0100E+05  0.000E+00  0.000E+00  0.000E+00  4.84064E+01  1.451E-01  2.000E+01  2.000E+04 -4.997E-02
   1   13    2     1     2    1.0100E+05 -1.9081E+03   1.0291E+05  0.000E+00  0.000E+00  0.000E+00  4.79304E+01  1.463E-01  2.000E+01  2.000E+04 -9.540E-02
   1   14    3     1     3    1.0291E+05 -3.1654E+02   1.0322E+05  0.000E+00  0.000E+00  0.000E+00  4.74541E+01  1.473E-01  2.000E+01  2.000E+04 -1.583E-02
   1   15    4     1     4    1.0322E+05 -2.8929E+02   1.0351E+05  0.000E+00  0.000E+00  0.000E+00  4.69771E+01  1.476E-01  2.000E+01  2.000E+04 -1.446E-02
   1   16    5     1     5    1.0351E+05 -1.1346E+03   1.0465E+05  0.000E+00  0.000E+00  0.000E+00  4.65004E+01  1.482E-01  2.000E+01  2.000E+04 -5.673E-02
   1   16    6     1     6    1.0465E+05 -7.6577E+02   1.0541E+05  0.000E+00  0.000E+00  0.000E+00  4.60240E+01  1.490E-01  2.000E+01  2.000E+04 -3.829E-02
   1   16    7     1     7    1.0541E+05 -7.7481E+02   1.0619E+05  0.000E+00  0.000E+00  0.000E+00  4.55474E+01  1.496E-01  2.000E+01  2.000E+04 -3.874E-02
   1   16    8     1     8    1.0619E+05 -7.8539E+02   1.0697E+05  0.000E+00  0.000E+00  0.000E+00  4.50707E+01  1.503E-01  2.000E+01  2.000E+04 -3.927E-02
   1   16    9     1     9    1.0697E+05 -7.9063E+02   1.0776E+05  0.000E+00  0.000E+00  0.000E+00  4.45941E+01  1.510E-01  2.000E+01  2.000E+04 -3.953E-02
   1   16   10     1    10    1.0776E+05 -8.0418E+02   1.0857E+05  0.000E+00  0.000E+00  0.000E+00  4.41175E+01  1.516E-01  2.000E+01  2.000E+04 -4.021E-02
   1   16   11     1    11    1.0857E+05 -8.6142E+02   1.0943E+05  0.000E+00  0.000E+00  0.000E+00  4.36410E+01  1.523E-01  2.000E+01  2.000E+04 -4.307E-02
   1   16   12     1    12    1.0943E+05 -1.5142E+03   1.1094E+05  0.000E+00  0.000E+00  0.000E+00  4.31647E+01  1.533E-01  2.000E+01  2.000E+04 -7.571E-02
   1   15   13     1    13    1.1094E+05 -1.2842E+03   1.1223E+05  0.000E+00  0.000E+00  0.000E+00  4.26886E+01  1.545E-01  2.000E+01  2.000E+04 -6.421E-02
   1   14   14     1    14    1.1223E+05 -1.4869E+03   1.1372E+05  0.000E+00  0.000E+00  0.000E+00  4.22125E+01  1.556E-01  2.000E+01  2.000E+04 -7.434E-02
   1   13   15     1    15    1.1372E+05 -1.7574E+03   1.1547E+05  0.000E+00  0.000E+00  0.000E+00  4.17365E+01  1.570E-01  2.000E+01  2.000E+04 -8.787E-02
   1   12   16     1    16    1.1547E+05 -2.2984E+03   1.1777E+05  0.000E+00  0.000E+00  0.000E+00  4.12609E+01  1.586E-01  2.000E+01  2.000E+04 -1.149E-01
   1   12   17     1    17    1.1777E+05 -1.5557E+03   1.1933E+05  0.000E+00  0.000E+00  0.000E+00  4.07852E+01  1.602E-01  2.000E+01  2.000E+04 -7.779E-02
   1   12   18     1    18    1.1933E+05 -1.4849E+03   1.2081E+05  0.000E+00  0.000E+00  0.000E+00  4.03092E+01  1.614E-01  2.000E+01  2.000E+04 -7.424E-02
   1   12   19     1    19    1.2081E+05 -1.8714E+03   1.2268E+05  0.000E+00  0.000E+00  0.000E+00  3.98332E+01  1.628E-01  2.000E+01  2.000E+04 -9.357E-02
   1   13   20     1    20    1.2268E+05 -1.4788E+03   1.2416E+05  0.000E+00  0.000E+00  0.000E+00  3.93573E+01  1.641E-01  2.000E+01  2.000E+04 -7.394E-02
   1   14   21     1    21    1.2416E+05 -1.4694E+03   1.2563E+05  0.000E+00  0.000E+00  0.000E+00  3.88812E+01  1.653E-01  2.000E+01  2.000E+04 -7.347E-02
   1   14   22     1    22    1.2563E+05  4.9560E+03   1.2068E+05  0.000E+00  0.000E+00  0.000E+00  3.84025E+01  1.639E-01  2.000E+01  2.000E+04  2.478E-01
   1    9   30     2     1    5.0000E+04  2.4734E+02   4.9753E+04  0.000E+00  0.000E+00  0.000E+00  4.02407E+01  1.157E-01  2.000E+01  2.000E+04  1.237E-02
   1    9   29     2     2    4.9753E+04  3.4815E+01   4.9718E+04  0.000E+00  0.000E+00  0.000E+00  3.99905E+01  1.155E-01  2.000E+01  2.000E+04  1.741E-03
   1    9   28     2     3    4.9718E+04 -2.0818E+01   4.9739E+04  0.000E+00  0.000E+00  0.000E+00  3.97405E+01  1.155E-01  2.000E+01  2.000E+04 -1.041E-03
   1    9   27     2     4    4.9739E+04 -3.5130E+02   5.0090E+04  0.000E+00  0.000E+00  0.000E+00  3.94907E+01  1.157E-01  2.000E+01  2.000E+04 -1.756E-02
   1   10   26     2     5    5.0090E+04 -4.2302E+02   5.0513E+04  0.000E+00  0.000E+00  0.000E+00  3.92413E+01  1.163E-01  2.000E+01  2.000E+04 -2.115E-02
   1   11   25     2     6    5.0513E+04 -6.6599E+02   5.1179E+04  0.000E+00  0.000E+00  0.000E+00  3.89920E+01  1.170E-01  2.000E+01  2.000E+04 -3.330E-02
   1   12   24     2     7    5.1179E+04 -9.5851E+02   5.2137E+04  0.000E+00  0.000E+00  0.000E+00  3.87432E+01  1.182E-01  2.000E+01  2.000E+04 -4.793E-02
   1   13   23     2     8    5.2137E+04 -1.4372E+02   5.2281E+04  0.000E+00  0.000E+00  0.000E+00  3.84939E+01  1.189E-01  2.000E+01  2.000E+04 -7.186E-03
   1   14   22     2     9    5.2281E+04  1.7612E+03   5.0520E+04  0.000E+00  0.000E+00  0.000E+00  3.82428E+01  1.178E-01  2.000E+01  2.000E+04  8.806E-02
   1   14   22     3     1    1.7120E+05 -8.6194E+03   1.7981E+05  0.000E+00  0.000E+00  0.000E+00  3.77238E+01  1.682E-01  2.000E+01  2.000E+04 -4.310E-01
   1   15   23     3     2    1.7981E+05 -4.8962E+02   1.8030E+05  0.000E+00  0.000E+00  0.000E+00  3.68375E+01  1.708E-01  2.000E+01  2.000E+04 -2.448E-02
   1   15   24     3     3    1.8030E+05 -2.2665E+02   1.8053E+05  0.000E+00  0.000E+00  0.000E+00  3.59488E+01  1.710E-01  2.000E+01  2.000E+04 -1.133E-02
   1   15   25     3     4    1.8053E+05 -2.1640E+02   1.8075E+05  0.000E+00  0.000E+00  0.000E+00  3.50600E+01  1.712E-01  2.000E+01  2.000E+04 -1.082E-02
   1   15   26     3     5    1.8075E+05 -2.6000E+02   1.8101E+05  0.000E+00  0.000E+00  0.000E+00  3.41713E+01  1.713E-01  2.000E+01  2.000E+04 -1.300E-02
   1   16   27     3     6    1.8101E+05 -2.8602E+02   1.8129E+05  0.000E+00  0.000E+00  0.000E+00  3.32826E+01  1.714E-01  2.000E+01  2.000E+04 -1.430E-02
   1   17   28     3     7    1.8129E+05 -1.3598E+03   1.8265E+05  0.000E+00  0.000E+00  0.000E+00  3.23941E+01  1.719E-01  2.000E+01  2.000E+04 -6.799E-02
   1   18   29     3     8    1.8265E+05 -2.7552E+03   1.8541E+05  0.000E+00  0.000E+00  0.000E+00  3.15064E+01  1.731E-01  2.000E+01  2.000E+04 -1.378E-01
   1   18   30     3     9    1.8541E+05 -3.0428E+03   1.8845E+05  0.000E+00  0.000E+00  0.000E+00  3.06192E+01  1.747E-01  2.000E+01  2.000E+04 -1.521E-01



1
              HEAD IN LAYER   1 AT END OF TIME STEP   1 IN STRESS PERIOD    7
  ---------------------------------------------------------------------------

          1      2      3      4      5      6      7      8      9     10
         11     12     13     14     15     16     17     18     19     20
         21     22     23     24     25     26     27     28     29     30
 .........................................................................
   1  ****** ****** ****** ****** ****** ****** ****** ****** ****** ******
      ****** ****** ****** ****** ****** ****** ****** ****** ****** ******
      ****** ****** ****** ****** ****** ****** ****** ****** ****** ******
   2  ****** ****** ****** ****** ****** ****** ****** ****** ****** ******
      ****** ****** ****** ****** ****** ****** ****** ****** ****** ******
      ****** ****** ****** ****** ****** ****** ****** ****** ****** ******
   3  ****** ****** ****** ****** ****** ****** ****** ****** ****** ******
      ****** ****** ****** ****** ****** ****** ****** ****** ****** ******
      ****** ****** ****** ****** ****** ****** ****** ****** ****** ******
   4  ****** ****** ****** ****** ****** ****** ****** ****** ****** ******
      ****** ****** ****** ****** ****** ****** ****** ****** ****** ******
      ****** ****** ****** ****** ****** ****** ****** ****** ****** ******
   5  ****** ****** ****** ****** ****** ****** ****** ****** ****** ******
      ****** ****** ****** ****** ****** ****** ****** ****** ****** ******
      ****** ****** ****** ****** ****** ****** ****** ****** ****** ******
   6  ****** ****** ****** ****** ****** ****** ****** ****** ****** ******
      ****** ****** ****** ****** ****** ****** ****** ****** ****** ******
      ****** ****** ****** ****** ****** ****** ****** ****** ****** ******
   7  ****** ****** ****** ****** ****** ****** ****** ****** ****** ******
      ****** ****** ****** ****** ****** ****** ****** ****** ****** ******
      ****** ****** ****** ****** ****** ****** ****** ****** ****** ******
   8  ****** ****** ****** ****** ****** ****** ****** ****** ****** ******
      ****** ****** ****** ****** ****** ****** ****** ****** ****** ******
      ****** ****** ****** ****** ****** ****** ****** ****** ****** ******
   9  ****** ****** ****** ****** ****** ****** ****** ****** ****** ******
      ****** ****** ****** ****** ****** ****** ****** ****** ****** ******
      ****** ****** ****** ****** ****** ****** ****** ****** ****** ******
  10  ****** ****** ****** ****** ****** ****** ****** ****** ****** ******
      ****** ****** ****** ****** ****** ****** ****** ****** ****** ******
      ****** ****** ****** ****** ****** ****** ****** ****** ****** ******
  11  ****** ****** ****** ****** ****** ****** ****** ****** ****** ******
      ****** ****** ****** ****** ****** ****** ****** ****** ****** ******
      ****** ****** ****** ****** ****** ****** ****** ****** ****** ******
  12  ****** ****** ****** ****** ****** ****** ****** ****** ****** ******
      ****** ****** ****** ****** ****** ****** ****** ****** ****** ******
      ****** ****** ****** ****** ****** ****** ****** ****** ****** ******
  13  ****** ****** ****** ****** ****** ****** ****** ****** ****** ******
      ****** ****** ****** ****** ****** ****** ****** ****** ****** ******
      ****** ****** ****** ****** ****** ****** ****** ****** ****** ******
  14  ****** ****** ****** ****** ****** ****** ****** ****** ****** ******
      ****** ****** ****** ****** ****** ****** ****** ****** ****** ******
      ****** ****** ****** ****** ****** ****** ****** ****** ****** ******
  15  ****** ****** ****** ****** ****** ****** ****** ****** ****** ******
      ****** ****** ****** ****** ****** ****** ****** ****** ****** ******
      ****** ****** ****** ****** ****** ****** ****** ****** ****** ******
  16  ****** ****** ****** ****** ****** ****** ****** ****** ****** ******
      ****** ****** ****** ****** ****** ****** ****** ****** ****** ******
      ****** ****** ****** ****** ****** ****** ****** ****** ****** ******
  17  ****** ****** ****** ****** ****** ****** ****** ****** ****** ******
      ****** ****** ****** ****** ****** ****** ****** ****** ****** ******
      ****** ****** ****** ****** ****** ****** ****** ****** ****** ******
  18  ****** ****** ****** ****** ****** ****** ****** ****** ****** ******
      ****** ****** ****** ****** ****** ****** ****** ****** ****** ******
      ****** ****** ****** ****** ****** ****** ****** ****** ****** ******
  19  ****** ****** ****** ****** ****** ****** ****** ****** ****** ******
      ****** ****** ****** ****** ****** ****** ****** ****** ****** ******
      ****** ****** ****** ****** ****** ****** ****** ****** ****** ******
  20  ****** ****** ****** ****** ****** ****** ****** ****** ****** ******
      ****** ****** ****** ****** ****** ****** ****** ****** ****** ******
      ****** ****** ****** ****** ****** ****** ****** ****** ****** ******
  21  ****** ****** ****** ****** ****** ****** ****** ****** ****** ******
      ****** ****** ****** ****** ****** ****** ****** ****** ****** ******
      ****** ****** ****** ****** ****** ****** ****** ****** ****** ******
  22  ****** ****** ****** ****** ****** ****** ****** ****** ****** ******
      ****** ****** ****** ****** ****** ****** ****** ****** ****** ******
      ****** ****** ****** ****** ****** ****** ****** ****** ****** ******
  23  ****** ****** ****** ****** ****** ****** ****** ****** ****** ******
      ****** ****** ****** ****** ****** ****** ****** ****** ****** ******
      ****** ****** ****** ****** ****** ****** ****** ****** ****** ******
  24  ****** ****** ****** ****** ****** ****** ****** ****** ****** ******
      ****** ****** ****** ****** ****** ****** ****** ****** ****** ******
      ****** ****** ****** ****** ****** ****** ****** ****** ****** ******
  25  ****** ****** ****** ****** ****** ****** ****** ****** ****** ******
      ****** ****** ****** ****** ****** ****** ****** ****** ****** ******
      ****** ****** ****** ****** ****** ****** ****** ****** ****** ******

 HEAD WILL BE SAVED ON UNIT   51 AT END OF TIME STEP    1, STRESS PERIOD    7
1
  VOLUMETRIC BUDGET FOR ENTIRE MODEL AT END OF TIME STEP    1, STRESS PERIOD   7
  ------------------------------------------------------------------------------

     CUMULATIVE VOLUMES      L**3       RATES FOR THIS TIME STEP      L**3/T
     ------------------                 ------------------------

           IN:                                      IN:
           ---                                      ---
             STORAGE =    33699007.0209               STORAGE =       23122.5496
       CONSTANT HEAD =    17064012.5508         CONSTANT HEAD =       35003.6231
               WELLS =           0.0000                 WELLS =           0.0000
            RECHARGE =    15097200.0000              RECHARGE =           0.0000
      STREAM LEAKAGE =     3816778.0844        STREAM LEAKAGE =        6999.2772

            TOTAL IN =    69676997.6561              TOTAL IN =       65125.4499

          OUT:                                     OUT:
          ----                                     ----
             STORAGE =      724087.5746               STORAGE =           0.0000
       CONSTANT HEAD =           0.0000         CONSTANT HEAD =           0.0000
               WELLS =    12572125.2351                 WELLS =       19674.6874
            RECHARGE =           0.0000              RECHARGE =           0.0000
      STREAM LEAKAGE =    56380787.3635        STREAM LEAKAGE =       45450.7678

           TOTAL OUT =    69677000.1731             TOTAL OUT =       65125.4552

            IN - OUT =          -2.5171              IN - OUT =      -5.2927E-03

 PERCENT DISCREPANCY =          -0.00     PERCENT DISCREPANCY =          -0.00






         TIME SUMMARY AT END OF TIME STEP    1 IN STRESS PERIOD    7
                    SECONDS     MINUTES      HOURS       DAYS        YEARS
                    -----------------------------------------------------------
   TIME STEP LENGTH 7.86240E+06 1.31040E+05  2184.0      91.000     0.24914    
 STRESS PERIOD TIME 7.86240E+06 1.31040E+05  2184.0      91.000     0.24914    
         TOTAL TIME 5.52096E+07 9.20160E+05  15336.      639.00      1.7495    
1
1
                            STRESS PERIOD NO.    8, LENGTH =   91.00000    
                            -----------------------------------------------

                              NUMBER OF TIME STEPS =     1

                               MULTIPLIER FOR DELT =     1.500

                            INITIAL TIME STEP SIZE =   91.00000    

 WELL NO.  LAYER   ROW   COL   STRESS RATE         
 --------------------------------------------------
      1      1     14      6       0.000    
      2      1      3      9       0.000    
      3      1     20     10       0.000    
      4      1     14     20       0.000    
      5      1      6     26      -9457.    
      6      1     23      4      -2056.    
      7      1     12     10      -1573.    
      8      1      4      5      -6588.    

      8 WELLS

                 RECHARGE =  1.000000E-03

 REUSING STREAM SEGMENT DATA FROM LAST STRESS PERIOD
 
 SOLVING FOR HEAD 


     6 CALLS TO PCG ROUTINE FOR TIME STEP   1 IN STRESS PERIOD    8
    22 TOTAL ITERATIONS

 OUTPUT CONTROL FOR STRESS PERIOD    8   TIME STEP    1
    SAVE BUDGET
    SAVE HEAD FOR ALL LAYERS
    PRINT HEAD FOR ALL LAYERS
 UBDSV2 SAVING "STREAMFLOW OUT  " ON UNIT  50 AT TIME STEP  1, STRESS PERIOD   8



 STREAM LISTING     PERIOD      8   STEP        1

 LAYER ROW COL. STREAM  RCH.  FLOW INTO     FLOW TO   FLOW OUT OF   OVRLND.     DIRECT     STREAM       STREAM     STREAM     STREAM   STREAMBED  STREAMBED
                SEG.NO.  NO.  STRM. RCH.    AQUIFER    STRM. RCH.    RUNOFF     PRECIP       ET          HEAD       DEPTH      WIDTH   CONDCTNC.   GRADIENT

   1   13    1     1     1    1.0000E+05 -1.0515E+03   1.0105E+05  0.000E+00  0.000E+00  0.000E+00  4.84065E+01  1.451E-01  2.000E+01  2.000E+04 -5.257E-02
   1   13    2     1     2    1.0105E+05 -1.9559E+03   1.0301E+05  0.000E+00  0.000E+00  0.000E+00  4.79305E+01  1.464E-01  2.000E+01  2.000E+04 -9.780E-02
   1   14    3     1     3    1.0301E+05 -3.7666E+02   1.0338E+05  0.000E+00  0.000E+00  0.000E+00  4.74542E+01  1.474E-01  2.000E+01  2.000E+04 -1.883E-02
   1   15    4     1     4    1.0338E+05 -3.5481E+02   1.0374E+05  0.000E+00  0.000E+00  0.000E+00  4.69773E+01  1.477E-01  2.000E+01  2.000E+04 -1.774E-02
   1   16    5     1     5    1.0374E+05 -1.3061E+03   1.0504E+05  0.000E+00  0.000E+00  0.000E+00  4.65007E+01  1.484E-01  2.000E+01  2.000E+04 -6.530E-02
   1   16    6     1     6    1.0504E+05 -8.6992E+02   1.0591E+05  0.000E+00  0.000E+00  0.000E+00  4.60244E+01  1.494E-01  2.000E+01  2.000E+04 -4.350E-02
   1   16    7     1     7    1.0591E+05 -8.7379E+02   1.0679E+05  0.000E+00  0.000E+00  0.000E+00  4.55478E+01  1.501E-01  2.000E+01  2.000E+04 -4.369E-02
   1   16    8     1     8    1.0679E+05 -8.8373E+02   1.0767E+05  0.000E+00  0.000E+00  0.000E+00  4.50713E+01  1.508E-01  2.000E+01  2.000E+04 -4.419E-02
   1   16    9     1     9    1.0767E+05 -8.9064E+02   1.0856E+05  0.000E+00  0.000E+00  0.000E+00  4.45948E+01  1.516E-01  2.000E+01  2.000E+04 -4.453E-02
   1   16   10     1    10    1.0856E+05 -9.0751E+02   1.0947E+05  0.000E+00  0.000E+00  0.000E+00  4.41183E+01  1.523E-01  2.000E+01  2.000E+04 -4.538E-02
   1   16   11     1    11    1.0947E+05 -9.6884E+02   1.1044E+05  0.000E+00  0.000E+00  0.000E+00  4.36418E+01  1.531E-01  2.000E+01  2.000E+04 -4.844E-02
   1   16   12     1    12    1.1044E+05 -1.6744E+03   1.1211E+05  0.000E+00  0.000E+00  0.000E+00  4.31656E+01  1.542E-01  2.000E+01  2.000E+04 -8.372E-02
   1   15   13     1    13    1.1211E+05 -1.4465E+03   1.1356E+05  0.000E+00  0.000E+00  0.000E+00  4.26896E+01  1.555E-01  2.000E+01  2.000E+04 -7.232E-02
   1   14   14     1    14    1.1356E+05 -1.6389E+03   1.1520E+05  0.000E+00  0.000E+00  0.000E+00  4.22136E+01  1.568E-01  2.000E+01  2.000E+04 -8.194E-02
   1   13   15     1    15    1.1520E+05 -1.8939E+03   1.1709E+05  0.000E+00  0.000E+00  0.000E+00  4.17378E+01  1.582E-01  2.000E+01  2.000E+04 -9.469E-02
   1   12   16     1    16    1.1709E+05 -2.3920E+03   1.1948E+05  0.000E+00  0.000E+00  0.000E+00  4.12623E+01  1.600E-01  2.000E+01  2.000E+04 -1.196E-01
   1   12   17     1    17    1.1948E+05 -1.6588E+03   1.2114E+05  0.000E+00  0.000E+00  0.000E+00  4.07866E+01  1.616E-01  2.000E+01  2.000E+04 -8.294E-02
   1   12   18     1    18    1.2114E+05 -1.5963E+03   1.2274E+05  0.000E+00  0.000E+00  0.000E+00  4.03107E+01  1.629E-01  2.000E+01  2.000E+04 -7.982E-02
   1   12   19     1    19    1.2274E+05 -2.0124E+03   1.2475E+05  0.000E+00  0.000E+00  0.000E+00  3.98348E+01  1.644E-01  2.000E+01  2.000E+04 -1.006E-01
   1   13   20     1    20    1.2475E+05 -1.6547E+03   1.2641E+05  0.000E+00  0.000E+00  0.000E+00  3.93590E+01  1.658E-01  2.000E+01  2.000E+04 -8.274E-02
   1   14   21     1    21    1.2641E+05 -1.6293E+03   1.2804E+05  0.000E+00  0.000E+00  0.000E+00  3.88830E+01  1.671E-01  2.000E+01  2.000E+04 -8.147E-02
   1   14   22     1    22    1.2804E+05  4.9068E+03   1.2313E+05  0.000E+00  0.000E+00  0.000E+00  3.84045E+01  1.658E-01  2.000E+01  2.000E+04  2.453E-01
   1    9   30     2     1    5.0000E+04  8.6005E+01   4.9914E+04  0.000E+00  0.000E+00  0.000E+00  4.02408E+01  1.158E-01  2.000E+01  2.000E+04  4.300E-03
   1    9   29     2     2    4.9914E+04 -1.2358E+02   5.0038E+04  0.000E+00  0.000E+00  0.000E+00  3.99908E+01  1.158E-01  2.000E+01  2.000E+04 -6.179E-03
   1    9   28     2     3    5.0038E+04 -1.7325E+02   5.0211E+04  0.000E+00  0.000E+00  0.000E+00  3.97410E+01  1.160E-01  2.000E+01  2.000E+04 -8.663E-03
   1    9   27     2     4    5.0211E+04 -5.2423E+02   5.0735E+04  0.000E+00  0.000E+00  0.000E+00  3.94915E+01  1.165E-01  2.000E+01  2.000E+04 -2.621E-02
   1   10   26     2     5    5.0735E+04 -6.2387E+02   5.1359E+04  0.000E+00  0.000E+00  0.000E+00  3.92423E+01  1.173E-01  2.000E+01  2.000E+04 -3.119E-02
   1   11   25     2     6    5.1359E+04 -8.6553E+02   5.2224E+04  0.000E+00  0.000E+00  0.000E+00  3.89933E+01  1.183E-01  2.000E+01  2.000E+04 -4.328E-02
   1   12   24     2     7    5.2224E+04 -1.1392E+03   5.3364E+04  0.000E+00  0.000E+00  0.000E+00  3.87447E+01  1.197E-01  2.000E+01  2.000E+04 -5.696E-02
   1   13   23     2     8    5.3364E+04 -2.1733E+02   5.3581E+04  0.000E+00  0.000E+00  0.000E+00  3.84956E+01  1.206E-01  2.000E+01  2.000E+04 -1.087E-02
   1   14   22     2     9    5.3581E+04  1.7097E+03   5.1871E+04  0.000E+00  0.000E+00  0.000E+00  3.82446E+01  1.196E-01  2.000E+01  2.000E+04  8.548E-02
   1   14   22     3     1    1.7500E+05 -8.6633E+03   1.8366E+05  0.000E+00  0.000E+00  0.000E+00  3.77260E+01  1.704E-01  2.000E+01  2.000E+04 -4.332E-01
   1   15   23     3     2    1.8366E+05 -5.5446E+02   1.8422E+05  0.000E+00  0.000E+00  0.000E+00  3.68397E+01  1.730E-01  2.000E+01  2.000E+04 -2.772E-02
   1   15   24     3     3    1.8422E+05 -2.8755E+02   1.8451E+05  0.000E+00  0.000E+00  0.000E+00  3.59510E+01  1.733E-01  2.000E+01  2.000E+04 -1.438E-02
   1   15   25     3     4    1.8451E+05 -2.7898E+02   1.8479E+05  0.000E+00  0.000E+00  0.000E+00  3.50623E+01  1.734E-01  2.000E+01  2.000E+04 -1.395E-02
   1   15   26     3     5    1.8479E+05 -3.3489E+02   1.8512E+05  0.000E+00  0.000E+00  0.000E+00  3.41736E+01  1.736E-01  2.000E+01  2.000E+04 -1.674E-02
   1   16   27     3     6    1.8512E+05 -3.6827E+02   1.8549E+05  0.000E+00  0.000E+00  0.000E+00  3.32849E+01  1.738E-01  2.000E+01  2.000E+04 -1.841E-02
   1   17   28     3     7    1.8549E+05 -1.5650E+03   1.8705E+05  0.000E+00  0.000E+00  0.000E+00  3.23966E+01  1.743E-01  2.000E+01  2.000E+04 -7.825E-02
   1   18   29     3     8    1.8705E+05 -2.9237E+03   1.8998E+05  0.000E+00  0.000E+00  0.000E+00  3.15089E+01  1.756E-01  2.000E+01  2.000E+04 -1.462E-01
   1   18   30     3     9    1.8998E+05 -3.1914E+03   1.9317E+05  0.000E+00  0.000E+00  0.000E+00  3.06217E+01  1.773E-01  2.000E+01  2.000E+04 -1.596E-01



1
              HEAD IN LAYER   1 AT END OF TIME STEP   1 IN STRESS PERIOD    8
  ---------------------------------------------------------------------------

          1      2      3      4      5      6      7      8      9     10
         11     12     13     14     15     16     17     18     19     20
         21     22     23     24     25     26     27     28     29     30
 .........................................................................
   1  ****** ****** ****** ****** ****** ****** ****** ****** ****** ******
      ****** ****** ****** ****** ****** ****** ****** ****** ****** ******
      ****** ****** ****** ****** ****** ****** ****** ****** ****** ******
   2  ****** ****** ****** ****** ****** ****** ****** ****** ****** ******
      ****** ****** ****** ****** ****** ****** ****** ****** ****** ******
      ****** ****** ****** ****** ****** ****** ****** ****** ****** ******
   3  ****** ****** ****** ****** ****** ****** ****** ****** ****** ******
      ****** ****** ****** ****** ****** ****** ****** ****** ****** ******
      ****** ****** ****** ****** ****** ****** ****** ****** ****** ******
   4  ****** ****** ****** ****** ****** ****** ****** ****** ****** ******
      ****** ****** ****** ****** ****** ****** ****** ****** ****** ******
      ****** ****** ****** ****** ****** ****** ****** ****** ****** ******
   5  ****** ****** ****** ****** ****** ****** ****** ****** ****** ******
      ****** ****** ****** ****** ****** ****** ****** ****** ****** ******
      ****** ****** ****** ****** ****** ****** ****** ****** ****** ******
   6  ****** ****** ****** ****** ****** ****** ****** ****** ****** ******
      ****** ****** ****** ****** ****** ****** ****** ****** ****** ******
      ****** ****** ****** ****** ****** ****** ****** ****** ****** ******
   7  ****** ****** ****** ****** ****** ****** ****** ****** ****** ******
      ****** ****** ****** ****** ****** ****** ****** ****** ****** ******
      ****** ****** ****** ****** ****** ****** ****** ****** ****** ******
   8  ****** ****** ****** ****** ****** ****** ****** ****** ****** ******
      ****** ****** ****** ****** ****** ****** ****** ****** ****** ******
      ****** ****** ****** ****** ****** ****** ****** ****** ****** ******
   9  ****** ****** ****** ****** ****** ****** ****** ****** ****** ******
      ****** ****** ****** ****** ****** ****** ****** ****** ****** ******
      ****** ****** ****** ****** ****** ****** ****** ****** ****** ******
  10  ****** ****** ****** ****** ****** ****** ****** ****** ****** ******
      ****** ****** ****** ****** ****** ****** ****** ****** ****** ******
      ****** ****** ****** ****** ****** ****** ****** ****** ****** ******
  11  ****** ****** ****** ****** ****** ****** ****** ****** ****** ******
      ****** ****** ****** ****** ****** ****** ****** ****** ****** ******
      ****** ****** ****** ****** ****** ****** ****** ****** ****** ******
  12  ****** ****** ****** ****** ****** ****** ****** ****** ****** ******
      ****** ****** ****** ****** ****** ****** ****** ****** ****** ******
      ****** ****** ****** ****** ****** ****** ****** ****** ****** ******
  13  ****** ****** ****** ****** ****** ****** ****** ****** ****** ******
      ****** ****** ****** ****** ****** ****** ****** ****** ****** ******
      ****** ****** ****** ****** ****** ****** ****** ****** ****** ******
  14  ****** ****** ****** ****** ****** ****** ****** ****** ****** ******
      ****** ****** ****** ****** ****** ****** ****** ****** ****** ******
      ****** ****** ****** ****** ****** ****** ****** ****** ****** ******
  15  ****** ****** ****** ****** ****** ****** ****** ****** ****** ******
      ****** ****** ****** ****** ****** ****** ****** ****** ****** ******
      ****** ****** ****** ****** ****** ****** ****** ****** ****** ******
  16  ****** ****** ****** ****** ****** ****** ****** ****** ****** ******
      ****** ****** ****** ****** ****** ****** ****** ****** ****** ******
      ****** ****** ****** ****** ****** ****** ****** ****** ****** ******
  17  ****** ****** ****** ****** ****** ****** ****** ****** ****** ******
      ****** ****** ****** ****** ****** ****** ****** ****** ****** ******
      ****** ****** ****** ****** ****** ****** ****** ****** ****** ******
  18  ****** ****** ****** ****** ****** ****** ****** ****** ****** ******
      ****** ****** ****** ****** ****** ****** ****** ****** ****** ******
      ****** ****** ****** ****** ****** ****** ****** ****** ****** ******
  19  ****** ****** ****** ****** ****** ****** ****** ****** ****** ******
      ****** ****** ****** ****** ****** ****** ****** ****** ****** ******
      ****** ****** ****** ****** ****** ****** ****** ****** ****** ******
  20  ****** ****** ****** ****** ****** ****** ****** ****** ****** ******
      ****** ****** ****** ****** ****** ****** ****** ****** ****** ******
      ****** ****** ****** ****** ****** ****** ****** ****** ****** ******
  21  ****** ****** ****** ****** ****** ****** ****** ****** ****** ******
      ****** ****** ****** ****** ****** ****** ****** ****** ****** ******
      ****** ****** ****** ****** ****** ****** ****** ****** ****** ******
  22  ****** ****** ****** ****** ****** ****** ****** ****** ****** ******
      ****** ****** ****** ****** ****** ****** ****** ****** ****** ******
      ****** ****** ****** ****** ****** ****** ****** ****** ****** ******
  23  ****** ****** ****** ****** ****** ****** ****** ****** ****** ******
      ****** ****** ****** ****** ****** ****** ****** ****** ****** ******
      ****** ****** ****** ****** ****** ****** ****** ****** ****** ******
  24  ****** ****** ****** ****** ****** ****** ****** ****** ****** ******
      ****** ****** ****** ****** ****** ****** ****** ****** ****** ******
      ****** ****** ****** ****** ****** ****** ****** ****** ****** ******
  25  ****** ****** ****** ****** ****** ****** ****** ****** ****** ******
      ****** ****** ****** ****** ****** ****** ****** ****** ****** ******
      ****** ****** ****** ****** ****** ****** ****** ****** ****** ******

 HEAD WILL BE SAVED ON UNIT   51 AT END OF TIME STEP    1, STRESS PERIOD    8
1
  VOLUMETRIC BUDGET FOR ENTIRE MODEL AT END OF TIME STEP    1, STRESS PERIOD   8
  ------------------------------------------------------------------------------

     CUMULATIVE VOLUMES      L**3       RATES FOR THIS TIME STEP      L**3/T
     ------------------                 ------------------------

           IN:                                      IN:
           ---                                      ---
             STORAGE =    33883741.4178               STORAGE =        2030.0483
       CONSTANT HEAD =    20227724.5932         CONSTANT HEAD =       34766.0664
               WELLS =           0.0000                 WELLS =           0.0000
            RECHARGE =    17608800.0000              RECHARGE =       27600.0000
      STREAM LEAKAGE =     4426709.0365        STREAM LEAKAGE =        6702.5379

            TOTAL IN =    76146975.0475              TOTAL IN =       71098.6527

          OUT:                                     OUT:
          ----                                     ----
             STORAGE =      865390.0543               STORAGE =        1552.7745
       CONSTANT HEAD =           0.0000         CONSTANT HEAD =           0.0000
               WELLS =    14362521.7865                 WELLS =       19674.6874
            RECHARGE =           0.0000              RECHARGE =           0.0000
      STREAM LEAKAGE =    60919065.0757        STREAM LEAKAGE =       49871.1837

           TOTAL OUT =    76146976.9165             TOTAL OUT =       71098.6455

            IN - OUT =          -1.8690              IN - OUT =       7.1214E-03

 PERCENT DISCREPANCY =          -0.00     PERCENT DISCREPANCY =           0.00






         TIME SUMMARY AT END OF TIME STEP    1 IN STRESS PERIOD    8
                    SECONDS     MINUTES      HOURS       DAYS        YEARS
                    -----------------------------------------------------------
   TIME STEP LENGTH 7.86240E+06 1.31040E+05  2184.0      91.000     0.24914    
 STRESS PERIOD TIME 7.86240E+06 1.31040E+05  2184.0      91.000     0.24914    
         TOTAL TIME 6.30720E+07 1.05120E+06  17520.      730.00      1.9986    
1
1
                            STRESS PERIOD NO.    9, LENGTH =   92.00000    
                            -----------------------------------------------

                              NUMBER OF TIME STEPS =     1

                               MULTIPLIER FOR DELT =     1.500

                            INITIAL TIME STEP SIZE =   92.00000    

 WELL NO.  LAYER   ROW   COL   STRESS RATE         
 --------------------------------------------------
      1      1     14      6       0.000    
      2      1      3      9       0.000    
      3      1     20     10       0.000    
      4      1     14     20       0.000    
      5      1      6     26      -9457.    
      6      1     23      4      -2056.    
      7      1     12     10      -1573.    
      8      1      4      5      -6588.    

      8 WELLS

                 RECHARGE =  5.000000E-04

 REUSING STREAM SEGMENT DATA FROM LAST STRESS PERIOD
 
 SOLVING FOR HEAD 


     7 CALLS TO PCG ROUTINE FOR TIME STEP   1 IN STRESS PERIOD    9
    25 TOTAL ITERATIONS

 OUTPUT CONTROL FOR STRESS PERIOD    9   TIME STEP    1
    SAVE BUDGET
    SAVE HEAD FOR ALL LAYERS
    PRINT HEAD FOR ALL LAYERS
 UBDSV2 SAVING "STREAMFLOW OUT  " ON UNIT  50 AT TIME STEP  1, STRESS PERIOD   9



 STREAM LISTING     PERIOD      9   STEP        1

 LAYER ROW COL. STREAM  RCH.  FLOW INTO     FLOW TO   FLOW OUT OF   OVRLND.     DIRECT     STREAM       STREAM     STREAM     STREAM   STREAMBED  STREAMBED
                SEG.NO.  NO.  STRM. RCH.    AQUIFER    STRM. RCH.    RUNOFF     PRECIP       ET          HEAD       DEPTH      WIDTH   CONDCTNC.   GRADIENT

   1   13    1     1     1    1.0000E+05 -8.2172E+02   1.0082E+05  0.000E+00  0.000E+00  0.000E+00  4.84064E+01  1.450E-01  2.000E+01  2.000E+04 -4.109E-02
   1   13    2     1     2    1.0082E+05 -1.6949E+03   1.0252E+05  0.000E+00  0.000E+00  0.000E+00  4.79302E+01  1.461E-01  2.000E+01  2.000E+04 -8.474E-02
   1   14    3     1     3    1.0252E+05 -3.0297E+02   1.0282E+05  0.000E+00  0.000E+00  0.000E+00  4.74538E+01  1.470E-01  2.000E+01  2.000E+04 -1.515E-02
   1   15    4     1     4    1.0282E+05 -2.8065E+02   1.0310E+05  0.000E+00  0.000E+00  0.000E+00  4.69768E+01  1.472E-01  2.000E+01  2.000E+04 -1.403E-02
   1   16    5     1     5    1.0310E+05 -1.1122E+03   1.0421E+05  0.000E+00  0.000E+00  0.000E+00  4.65001E+01  1.478E-01  2.000E+01  2.000E+04 -5.561E-02
   1   16    6     1     6    1.0421E+05 -7.4799E+02   1.0496E+05  0.000E+00  0.000E+00  0.000E+00  4.60236E+01  1.486E-01  2.000E+01  2.000E+04 -3.740E-02
   1   16    7     1     7    1.0496E+05 -7.5541E+02   1.0572E+05  0.000E+00  0.000E+00  0.000E+00  4.55470E+01  1.492E-01  2.000E+01  2.000E+04 -3.777E-02
   1   16    8     1     8    1.0572E+05 -7.6701E+02   1.0648E+05  0.000E+00  0.000E+00  0.000E+00  4.50703E+01  1.499E-01  2.000E+01  2.000E+04 -3.835E-02
   1   16    9     1     9    1.0648E+05 -7.7589E+02   1.0726E+05  0.000E+00  0.000E+00  0.000E+00  4.45937E+01  1.505E-01  2.000E+01  2.000E+04 -3.879E-02
   1   16   10     1    10    1.0726E+05 -7.9534E+02   1.0805E+05  0.000E+00  0.000E+00  0.000E+00  4.41171E+01  1.512E-01  2.000E+01  2.000E+04 -3.977E-02
   1   16   11     1    11    1.0805E+05 -8.5839E+02   1.0891E+05  0.000E+00  0.000E+00  0.000E+00  4.36405E+01  1.519E-01  2.000E+01  2.000E+04 -4.292E-02
   1   16   12     1    12    1.0891E+05 -1.4851E+03   1.1040E+05  0.000E+00  0.000E+00  0.000E+00  4.31642E+01  1.529E-01  2.000E+01  2.000E+04 -7.425E-02
   1   15   13     1    13    1.1040E+05 -1.2325E+03   1.1163E+05  0.000E+00  0.000E+00  0.000E+00  4.26881E+01  1.540E-01  2.000E+01  2.000E+04 -6.162E-02
   1   14   14     1    14    1.1163E+05 -1.4092E+03   1.1304E+05  0.000E+00  0.000E+00  0.000E+00  4.22119E+01  1.551E-01  2.000E+01  2.000E+04 -7.046E-02
   1   13   15     1    15    1.1304E+05 -1.6565E+03   1.1470E+05  0.000E+00  0.000E+00  0.000E+00  4.17359E+01  1.564E-01  2.000E+01  2.000E+04 -8.283E-02
   1   12   16     1    16    1.1470E+05 -2.1433E+03   1.1684E+05  0.000E+00  0.000E+00  0.000E+00  4.12602E+01  1.579E-01  2.000E+01  2.000E+04 -1.072E-01
   1   12   17     1    17    1.1684E+05 -1.4906E+03   1.1833E+05  0.000E+00  0.000E+00  0.000E+00  4.07844E+01  1.594E-01  2.000E+01  2.000E+04 -7.453E-02
   1   12   18     1    18    1.1833E+05 -1.4367E+03   1.1977E+05  0.000E+00  0.000E+00  0.000E+00  4.03083E+01  1.606E-01  2.000E+01  2.000E+04 -7.183E-02
   1   12   19     1    19    1.1977E+05 -1.8204E+03   1.2159E+05  0.000E+00  0.000E+00  0.000E+00  3.98324E+01  1.619E-01  2.000E+01  2.000E+04 -9.102E-02
   1   13   20     1    20    1.2159E+05 -1.4798E+03   1.2307E+05  0.000E+00  0.000E+00  0.000E+00  3.93564E+01  1.632E-01  2.000E+01  2.000E+04 -7.399E-02
   1   14   21     1    21    1.2307E+05 -1.4585E+03   1.2452E+05  0.000E+00  0.000E+00  0.000E+00  3.88803E+01  1.644E-01  2.000E+01  2.000E+04 -7.293E-02
   1   14   22     1    22    1.2452E+05  4.9452E+03   1.1958E+05  0.000E+00  0.000E+00  0.000E+00  3.84017E+01  1.630E-01  2.000E+01  2.000E+04  2.473E-01
   1    9   30     2     1    5.0000E+04  2.1040E+02   4.9790E+04  0.000E+00  0.000E+00  0.000E+00  4.02407E+01  1.157E-01  2.000E+01  2.000E+04  1.052E-02
   1    9   29     2     2    4.9790E+04  1.1331E+00   4.9788E+04  0.000E+00  0.000E+00  0.000E+00  3.99906E+01  1.156E-01  2.000E+01  2.000E+04  5.665E-05
   1    9   28     2     3    4.9788E+04 -4.6387E+01   4.9835E+04  0.000E+00  0.000E+00  0.000E+00  3.97406E+01  1.156E-01  2.000E+01  2.000E+04 -2.319E-03
   1    9   27     2     4    4.9835E+04 -3.4464E+02   5.0179E+04  0.000E+00  0.000E+00  0.000E+00  3.94909E+01  1.159E-01  2.000E+01  2.000E+04 -1.723E-02
   1   10   26     2     5    5.0179E+04 -4.4758E+02   5.0627E+04  0.000E+00  0.000E+00  0.000E+00  3.92414E+01  1.164E-01  2.000E+01  2.000E+04 -2.238E-02
   1   11   25     2     6    5.0627E+04 -6.9682E+02   5.1324E+04  0.000E+00  0.000E+00  0.000E+00  3.89922E+01  1.172E-01  2.000E+01  2.000E+04 -3.484E-02
   1   12   24     2     7    5.1324E+04 -9.8390E+02   5.2308E+04  0.000E+00  0.000E+00  0.000E+00  3.87434E+01  1.184E-01  2.000E+01  2.000E+04 -4.919E-02
   1   13   23     2     8    5.2308E+04 -1.6982E+02   5.2478E+04  0.000E+00  0.000E+00  0.000E+00  3.84942E+01  1.192E-01  2.000E+01  2.000E+04 -8.491E-03
   1   14   22     2     9    5.2478E+04  1.7732E+03   5.0704E+04  0.000E+00  0.000E+00  0.000E+00  3.82431E+01  1.181E-01  2.000E+01  2.000E+04  8.866E-02
   1   14   22     3     1    1.7028E+05 -8.6230E+03   1.7891E+05  0.000E+00  0.000E+00  0.000E+00  3.77233E+01  1.677E-01  2.000E+01  2.000E+04 -4.312E-01
   1   15   23     3     2    1.7891E+05 -5.0231E+02   1.7941E+05  0.000E+00  0.000E+00  0.000E+00  3.68370E+01  1.703E-01  2.000E+01  2.000E+04 -2.512E-02
   1   15   24     3     3    1.7941E+05 -2.4479E+02   1.7965E+05  0.000E+00  0.000E+00  0.000E+00  3.59483E+01  1.705E-01  2.000E+01  2.000E+04 -1.224E-02
   1   15   25     3     4    1.7965E+05 -2.3594E+02   1.7989E+05  0.000E+00  0.000E+00  0.000E+00  3.50595E+01  1.707E-01  2.000E+01  2.000E+04 -1.180E-02
   1   15   26     3     5    1.7989E+05 -2.8745E+02   1.8018E+05  0.000E+00  0.000E+00  0.000E+00  3.41708E+01  1.708E-01  2.000E+01  2.000E+04 -1.437E-02
   1   16   27     3     6    1.8018E+05 -3.1255E+02   1.8049E+05  0.000E+00  0.000E+00  0.000E+00  3.32821E+01  1.710E-01  2.000E+01  2.000E+04 -1.563E-02
   1   17   28     3     7    1.8049E+05 -1.4124E+03   1.8190E+05  0.000E+00  0.000E+00  0.000E+00  3.23937E+01  1.715E-01  2.000E+01  2.000E+04 -7.062E-02
   1   18   29     3     8    1.8190E+05 -2.7499E+03   1.8465E+05  0.000E+00  0.000E+00  0.000E+00  3.15060E+01  1.726E-01  2.000E+01  2.000E+04 -1.375E-01
   1   18   30     3     9    1.8465E+05 -3.0605E+03   1.8771E+05  0.000E+00  0.000E+00  0.000E+00  3.06187E+01  1.743E-01  2.000E+01  2.000E+04 -1.530E-01



1
              HEAD IN LAYER   1 AT END OF TIME STEP   1 IN STRESS PERIOD    9
  ---------------------------------------------------------------------------

          1      2      3      4      5      6      7      8      9     10
         11     12     13     14     15     16     17     18     19     20
         21     22     23     24     25     26     27     28     29     30
 .........................................................................
   1  ****** ****** ****** ****** ****** ****** ****** ****** ****** ******
      ****** ****** ****** ****** ****** ****** ****** ****** ****** ******
      ****** ****** ****** ****** ****** ****** ****** ****** ****** ******
   2  ****** ****** ****** ****** ****** ****** ****** ****** ****** ******
      ****** ****** ****** ****** ****** ****** ****** ****** ****** ******
      ****** ****** ****** ****** ****** ****** ****** ****** ****** ******
   3  ****** ****** ****** ****** ****** ****** ****** ****** ****** ******
      ****** ****** ****** ****** ****** ****** ****** ****** ****** ******
      ****** ****** ****** ****** ****** ****** ****** ****** ****** ******
   4  ****** ****** ****** ****** ****** ****** ****** ****** ****** ******
      ****** ****** ****** ****** ****** ****** ****** ****** ****** ******
      ****** ****** ****** ****** ****** ****** ****** ****** ****** ******
   5  ****** ****** ****** ****** ****** ****** ****** ****** ****** ******
      ****** ****** ****** ****** ****** ****** ****** ****** ****** ******
      ****** ****** ****** ****** ****** ****** ****** ****** ****** ******
   6  ****** ****** ****** ****** ****** ****** ****** ****** ****** ******
      ****** ****** ****** ****** ****** ****** ****** ****** ****** ******
      ****** ****** ****** ****** ****** ****** ****** ****** ****** ******
   7  ****** ****** ****** ****** ****** ****** ****** ****** ****** ******
      ****** ****** ****** ****** ****** ****** ****** ****** ****** ******
      ****** ****** ****** ****** ****** ****** ****** ****** ****** ******
   8  ****** ****** ****** ****** ****** ****** ****** ****** ****** ******
      ****** ****** ****** ****** ****** ****** ****** ****** ****** ******
      ****** ****** ****** ****** ****** ****** ****** ****** ****** ******
   9  ****** ****** ****** ****** ****** ****** ****** ****** ****** ******
      ****** ****** ****** ****** ****** ****** ****** ****** ****** ******
      ****** ****** ****** ****** ****** ****** ****** ****** ****** ******
  10  ****** ****** ****** ****** ****** ****** ****** ****** ****** ******
      ****** ****** ****** ****** ****** ****** ****** ****** ****** ******
      ****** ****** ****** ****** ****** ****** ****** ****** ****** ******
  11  ****** ****** ****** ****** ****** ****** ****** ****** ****** ******
      ****** ****** ****** ****** ****** ****** ****** ****** ****** ******
      ****** ****** ****** ****** ****** ****** ****** ****** ****** ******
  12  ****** ****** ****** ****** ****** ****** ****** ****** ****** ******
      ****** ****** ****** ****** ****** ****** ****** ****** ****** ******
      ****** ****** ****** ****** ****** ****** ****** ****** ****** ******
  13  ****** ****** ****** ****** ****** ****** ****** ****** ****** ******
      ****** ****** ****** ****** ****** ****** ****** ****** ****** ******
      ****** ****** ****** ****** ****** ****** ****** ****** ****** ******
  14  ****** ****** ****** ****** ****** ****** ****** ****** ****** ******
      ****** ****** ****** ****** ****** ****** ****** ****** ****** ******
      ****** ****** ****** ****** ****** ****** ****** ****** ****** ******
  15  ****** ****** ****** ****** ****** ****** ****** ****** ****** ******
      ****** ****** ****** ****** ****** ****** ****** ****** ****** ******
      ****** ****** ****** ****** ****** ****** ****** ****** ****** ******
  16  ****** ****** ****** ****** ****** ****** ****** ****** ****** ******
      ****** ****** ****** ****** ****** ****** ****** ****** ****** ******
      ****** ****** ****** ****** ****** ****** ****** ****** ****** ******
  17  ****** ****** ****** ****** ****** ****** ****** ****** ****** ******
      ****** ****** ****** ****** ****** ****** ****** ****** ****** ******
      ****** ****** ****** ****** ****** ****** ****** ****** ****** ******
  18  ****** ****** ****** ****** ****** ****** ****** ****** ****** ******
      ****** ****** ****** ****** ****** ****** ****** ****** ****** ******
      ****** ****** ****** ****** ****** ****** ****** ****** ****** ******
  19  ****** ****** ****** ****** ****** ****** ****** ****** ****** ******
      ****** ****** ****** ****** ****** ****** ****** ****** ****** ******
      ****** ****** ****** ****** ****** ****** ****** ****** ****** ******
  20  ****** ****** ****** ****** ****** ****** ****** ****** ****** ******
      ****** ****** ****** ****** ****** ****** ****** ****** ****** ******
      ****** ****** ****** ****** ****** ****** ****** ****** ****** ******
  21  ****** ****** ****** ****** ****** ****** ****** ****** ****** ******
      ****** ****** ****** ****** ****** ****** ****** ****** ****** ******
      ****** ****** ****** ****** ****** ****** ****** ****** ****** ******
  22  ****** ****** ****** ****** ****** ****** ****** ****** ****** ******
      ****** ****** ****** ****** ****** ****** ****** ****** ****** ******
      ****** ****** ****** ****** ****** ****** ****** ****** ****** ******
  23  ****** ****** ****** ****** ****** ****** ****** ****** ****** ******
      ****** ****** ****** ****** ****** ****** ****** ****** ****** ******
      ****** ****** ****** ****** ****** ****** ****** ****** ****** ******
  24  ****** ****** ****** ****** ****** ****** ****** ****** ****** ******
      ****** ****** ****** ****** ****** ****** ****** ****** ****** ******
      ****** ****** ****** ****** ****** ****** ****** ****** ****** ******
  25  ****** ****** ****** ****** ****** ****** ****** ****** ****** ******
      ****** ****** ****** ****** ****** ****** ****** ****** ****** ******
      ****** ****** ****** ****** ****** ****** ****** ****** ****** ******

 HEAD WILL BE SAVED ON UNIT   51 AT END OF TIME STEP    1, STRESS PERIOD    9
1
  VOLUMETRIC BUDGET FOR ENTIRE MODEL AT END OF TIME STEP    1, STRESS PERIOD   9
  ------------------------------------------------------------------------------

     CUMULATIVE VOLUMES      L**3       RATES FOR THIS TIME STEP      L**3/T
     ------------------                 ------------------------

           IN:                                      IN:
           ---                                      ---
             STORAGE =    34584098.3986               STORAGE =        7612.5759
       CONSTANT HEAD =    23537430.8324         CONSTANT HEAD =       35975.0678
               WELLS =           0.0000                 WELLS =           0.0000
            RECHARGE =    18878400.0000              RECHARGE =       13800.0000
      STREAM LEAKAGE =     5064264.8997        STREAM LEAKAGE =        6929.9550

            TOTAL IN =    82064194.1307              TOTAL IN =       64317.5987

          OUT:                                     OUT:
          ----                                     ----
             STORAGE =      865390.0543               STORAGE =           0.0000
       CONSTANT HEAD =           0.0000         CONSTANT HEAD =           0.0000
               WELLS =    16172593.0254                 WELLS =       19674.6874
            RECHARGE =           0.0000              RECHARGE =           0.0000
      STREAM LEAKAGE =    65026212.9498        STREAM LEAKAGE =       44642.9117

           TOTAL OUT =    82064196.0295             TOTAL OUT =       64317.5991

            IN - OUT =          -1.8988              IN - OUT =      -3.2383E-04

 PERCENT DISCREPANCY =          -0.00     PERCENT DISCREPANCY =          -0.00






         TIME SUMMARY AT END OF TIME STEP    1 IN STRESS PERIOD    9
                    SECONDS     MINUTES      HOURS       DAYS        YEARS
                    -----------------------------------------------------------
   TIME STEP LENGTH 7.94880E+06 1.32480E+05  2208.0      92.000     0.25188    
 STRESS PERIOD TIME 7.94880E+06 1.32480E+05  2208.0      92.000     0.25188    
         TOTAL TIME 7.10208E+07 1.18368E+06  19728.      822.00      2.2505    
1
1
                            STRESS PERIOD NO.   10, LENGTH =   91.00000    
                            -----------------------------------------------

                              NUMBER OF TIME STEPS =     1

                               MULTIPLIER FOR DELT =     1.500

                            INITIAL TIME STEP SIZE =   91.00000    

 WELL NO.  LAYER   ROW   COL   STRESS RATE         
 --------------------------------------------------
      1      1     14      6       0.000    
      2      1      3      9       0.000    
      3      1     20     10       0.000    
      4      1     14     20       0.000    
      5      1      6     26      -9457.    
      6      1     23      4      -2056.    
      7      1     12     10      -1573.    
      8      1      4      5      -6588.    

      8 WELLS

                 RECHARGE =  2.000000E-03

 REUSING STREAM SEGMENT DATA FROM LAST STRESS PERIOD
 
 SOLVING FOR HEAD 


     7 CALLS TO PCG ROUTINE FOR TIME STEP   1 IN STRESS PERIOD   10
    26 TOTAL ITERATIONS

 OUTPUT CONTROL FOR STRESS PERIOD   10   TIME STEP    1
    SAVE BUDGET
    SAVE HEAD FOR ALL LAYERS
    PRINT HEAD FOR ALL LAYERS
 UBDSV2 SAVING "STREAMFLOW OUT  " ON UNIT  50 AT TIME STEP  1, STRESS PERIOD  10



 STREAM LISTING     PERIOD     10   STEP        1

 LAYER ROW COL. STREAM  RCH.  FLOW INTO     FLOW TO   FLOW OUT OF   OVRLND.     DIRECT     STREAM       STREAM     STREAM     STREAM   STREAMBED  STREAMBED
                SEG.NO.  NO.  STRM. RCH.    AQUIFER    STRM. RCH.    RUNOFF     PRECIP       ET          HEAD       DEPTH      WIDTH   CONDCTNC.   GRADIENT

   1   13    1     1     1    1.0000E+05 -1.2633E+03   1.0126E+05  0.000E+00  0.000E+00  0.000E+00  4.84066E+01  1.452E-01  2.000E+01  2.000E+04 -6.316E-02
   1   13    2     1     2    1.0126E+05 -2.1834E+03   1.0345E+05  0.000E+00  0.000E+00  0.000E+00  4.79308E+01  1.467E-01  2.000E+01  2.000E+04 -1.092E-01
   1   14    3     1     3    1.0345E+05 -4.8742E+02   1.0393E+05  0.000E+00  0.000E+00  0.000E+00  4.74546E+01  1.478E-01  2.000E+01  2.000E+04 -2.437E-02
   1   15    4     1     4    1.0393E+05 -4.7841E+02   1.0441E+05  0.000E+00  0.000E+00  0.000E+00  4.69778E+01  1.482E-01  2.000E+01  2.000E+04 -2.392E-02
   1   16    5     1     5    1.0441E+05 -1.7301E+03   1.0614E+05  0.000E+00  0.000E+00  0.000E+00  4.65015E+01  1.492E-01  2.000E+01  2.000E+04 -8.651E-02
   1   16    6     1     6    1.0614E+05 -1.1088E+03   1.0725E+05  0.000E+00  0.000E+00  0.000E+00  4.60254E+01  1.504E-01  2.000E+01  2.000E+04 -5.544E-02
   1   16    7     1     7    1.0725E+05 -1.0983E+03   1.0835E+05  0.000E+00  0.000E+00  0.000E+00  4.55490E+01  1.513E-01  2.000E+01  2.000E+04 -5.492E-02
   1   16    8     1     8    1.0835E+05 -1.1045E+03   1.0945E+05  0.000E+00  0.000E+00  0.000E+00  4.50727E+01  1.522E-01  2.000E+01  2.000E+04 -5.523E-02
   1   16    9     1     9    1.0945E+05 -1.1121E+03   1.1057E+05  0.000E+00  0.000E+00  0.000E+00  4.45964E+01  1.532E-01  2.000E+01  2.000E+04 -5.561E-02
   1   16   10     1    10    1.1057E+05 -1.1321E+03   1.1170E+05  0.000E+00  0.000E+00  0.000E+00  4.41200E+01  1.541E-01  2.000E+01  2.000E+04 -5.661E-02
   1   16   11     1    11    1.1170E+05 -1.1991E+03   1.1290E+05  0.000E+00  0.000E+00  0.000E+00  4.36437E+01  1.551E-01  2.000E+01  2.000E+04 -5.996E-02
   1   16   12     1    12    1.1290E+05 -2.0536E+03   1.1495E+05  0.000E+00  0.000E+00  0.000E+00  4.31678E+01  1.564E-01  2.000E+01  2.000E+04 -1.027E-01
   1   15   13     1    13    1.1495E+05 -1.8156E+03   1.1677E+05  0.000E+00  0.000E+00  0.000E+00  4.26921E+01  1.580E-01  2.000E+01  2.000E+04 -9.078E-02
   1   14   14     1    14    1.1677E+05 -1.9980E+03   1.1876E+05  0.000E+00  0.000E+00  0.000E+00  4.22164E+01  1.596E-01  2.000E+01  2.000E+04 -9.990E-02
   1   13   15     1    15    1.1876E+05 -2.2341E+03   1.2100E+05  0.000E+00  0.000E+00  0.000E+00  4.17408E+01  1.613E-01  2.000E+01  2.000E+04 -1.117E-01
   1   12   16     1    16    1.2100E+05 -2.6972E+03   1.2370E+05  0.000E+00  0.000E+00  0.000E+00  4.12655E+01  1.633E-01  2.000E+01  2.000E+04 -1.349E-01
   1   12   17     1    17    1.2370E+05 -1.9123E+03   1.2561E+05  0.000E+00  0.000E+00  0.000E+00  4.07901E+01  1.651E-01  2.000E+01  2.000E+04 -9.562E-02
   1   12   18     1    18    1.2561E+05 -1.8551E+03   1.2746E+05  0.000E+00  0.000E+00  0.000E+00  4.03143E+01  1.666E-01  2.000E+01  2.000E+04 -9.275E-02
   1   12   19     1    19    1.2746E+05 -2.3355E+03   1.2980E+05  0.000E+00  0.000E+00  0.000E+00  3.98387E+01  1.682E-01  2.000E+01  2.000E+04 -1.168E-01
   1   13   20     1    20    1.2980E+05 -2.0000E+03   1.3180E+05  0.000E+00  0.000E+00  0.000E+00  3.93631E+01  1.699E-01  2.000E+01  2.000E+04 -1.000E-01
   1   14   21     1    21    1.3180E+05 -1.9840E+03   1.3378E+05  0.000E+00  0.000E+00  0.000E+00  3.88874E+01  1.715E-01  2.000E+01  2.000E+04 -9.920E-02
   1   14   22     1    22    1.3378E+05  4.8162E+03   1.2897E+05  0.000E+00  0.000E+00  0.000E+00  3.84090E+01  1.704E-01  2.000E+01  2.000E+04  2.408E-01
   1    9   30     2     1    5.0000E+04 -2.0313E+02   5.0203E+04  0.000E+00  0.000E+00  0.000E+00  4.02410E+01  1.160E-01  2.000E+01  2.000E+04 -1.016E-02
   1    9   29     2     2    5.0203E+04 -4.1004E+02   5.0613E+04  0.000E+00  0.000E+00  0.000E+00  3.99914E+01  1.164E-01  2.000E+01  2.000E+04 -2.050E-02
   1    9   28     2     3    5.0613E+04 -4.5658E+02   5.1070E+04  0.000E+00  0.000E+00  0.000E+00  3.97420E+01  1.170E-01  2.000E+01  2.000E+04 -2.283E-02
   1    9   27     2     4    5.1070E+04 -8.9551E+02   5.1965E+04  0.000E+00  0.000E+00  0.000E+00  3.94930E+01  1.180E-01  2.000E+01  2.000E+04 -4.478E-02
   1   10   26     2     5    5.1965E+04 -9.9871E+02   5.2964E+04  0.000E+00  0.000E+00  0.000E+00  3.92443E+01  1.193E-01  2.000E+01  2.000E+04 -4.994E-02
   1   11   25     2     6    5.2964E+04 -1.2235E+03   5.4187E+04  0.000E+00  0.000E+00  0.000E+00  3.89958E+01  1.208E-01  2.000E+01  2.000E+04 -6.117E-02
   1   12   24     2     7    5.4187E+04 -1.4604E+03   5.5648E+04  0.000E+00  0.000E+00  0.000E+00  3.87476E+01  1.226E-01  2.000E+01  2.000E+04 -7.302E-02
   1   13   23     2     8    5.5648E+04 -3.1823E+02   5.5966E+04  0.000E+00  0.000E+00  0.000E+00  3.84988E+01  1.238E-01  2.000E+01  2.000E+04 -1.591E-02
   1   14   22     2     9    5.5966E+04  1.5940E+03   5.4372E+04  0.000E+00  0.000E+00  0.000E+00  3.82479E+01  1.229E-01  2.000E+01  2.000E+04  7.970E-02
   1   14   22     3     1    1.8334E+05 -8.7502E+03   1.9209E+05  0.000E+00  0.000E+00  0.000E+00  3.77307E+01  1.751E-01  2.000E+01  2.000E+04 -4.375E-01
   1   15   23     3     2    1.9209E+05 -6.6508E+02   1.9275E+05  0.000E+00  0.000E+00  0.000E+00  3.68444E+01  1.778E-01  2.000E+01  2.000E+04 -3.325E-02
   1   15   24     3     3    1.9275E+05 -3.8212E+02   1.9314E+05  0.000E+00  0.000E+00  0.000E+00  3.59558E+01  1.781E-01  2.000E+01  2.000E+04 -1.911E-02
   1   15   25     3     4    1.9314E+05 -3.7667E+02   1.9351E+05  0.000E+00  0.000E+00  0.000E+00  3.50672E+01  1.783E-01  2.000E+01  2.000E+04 -1.883E-02
   1   15   26     3     5    1.9351E+05 -4.4979E+02   1.9396E+05  0.000E+00  0.000E+00  0.000E+00  3.41785E+01  1.785E-01  2.000E+01  2.000E+04 -2.249E-02
   1   16   27     3     6    1.9396E+05 -4.9858E+02   1.9446E+05  0.000E+00  0.000E+00  0.000E+00  3.32899E+01  1.788E-01  2.000E+01  2.000E+04 -2.493E-02
   1   17   28     3     7    1.9446E+05 -1.9337E+03   1.9639E+05  0.000E+00  0.000E+00  0.000E+00  3.24017E+01  1.794E-01  2.000E+01  2.000E+04 -9.668E-02
   1   18   29     3     8    1.9639E+05 -3.3025E+03   1.9970E+05  0.000E+00  0.000E+00  0.000E+00  3.15142E+01  1.809E-01  2.000E+01  2.000E+04 -1.651E-01
   1   18   30     3     9    1.9970E+05 -3.4866E+03   2.0318E+05  0.000E+00  0.000E+00  0.000E+00  3.06272E+01  1.827E-01  2.000E+01  2.000E+04 -1.743E-01



1
              HEAD IN LAYER   1 AT END OF TIME STEP   1 IN STRESS PERIOD   10
  ---------------------------------------------------------------------------

          1      2      3      4      5      6      7      8      9     10
         11     12     13     14     15     16     17     18     19     20
         21     22     23     24     25     26     27     28     29     30
 .........................................................................
   1  ****** ****** ****** ****** ****** ****** ****** ****** ****** ******
      ****** ****** ****** ****** ****** ****** ****** ****** ****** ******
      ****** ****** ****** ****** ****** ****** ****** ****** ****** ******
   2  ****** ****** ****** ****** ****** ****** ****** ****** ****** ******
      ****** ****** ****** ****** ****** ****** ****** ****** ****** ******
      ****** ****** ****** ****** ****** ****** ****** ****** ****** ******
   3  ****** ****** ****** ****** ****** ****** ****** ****** ****** ******
      ****** ****** ****** ****** ****** ****** ****** ****** ****** ******
      ****** ****** ****** ****** ****** ****** ****** ****** ****** ******
   4  ****** ****** ****** ****** ****** ****** ****** ****** ****** ******
      ****** ****** ****** ****** ****** ****** ****** ****** ****** ******
      ****** ****** ****** ****** ****** ****** ****** ****** ****** ******
   5  ****** ****** ****** ****** ****** ****** ****** ****** ****** ******
      ****** ****** ****** ****** ****** ****** ****** ****** ****** ******
      ****** ****** ****** ****** ****** ****** ****** ****** ****** ******
   6  ****** ****** ****** ****** ****** ****** ****** ****** ****** ******
      ****** ****** ****** ****** ****** ****** ****** ****** ****** ******
      ****** ****** ****** ****** ****** ****** ****** ****** ****** ******
   7  ****** ****** ****** ****** ****** ****** ****** ****** ****** ******
      ****** ****** ****** ****** ****** ****** ****** ****** ****** ******
      ****** ****** ****** ****** ****** ****** ****** ****** ****** ******
   8  ****** ****** ****** ****** ****** ****** ****** ****** ****** ******
      ****** ****** ****** ****** ****** ****** ****** ****** ****** ******
      ****** ****** ****** ****** ****** ****** ****** ****** ****** ******
   9  ****** ****** ****** ****** ****** ****** ****** ****** ****** ******
      ****** ****** ****** ****** ****** ****** ****** ****** ****** ******
      ****** ****** ****** ****** ****** ****** ****** ****** ****** ******
  10  ****** ****** ****** ****** ****** ****** ****** ****** ****** ******
      ****** ****** ****** ****** ****** ****** ****** ****** ****** ******
      ****** ****** ****** ****** ****** ****** ****** ****** ****** ******
  11  ****** ****** ****** ****** ****** ****** ****** ****** ****** ******
      ****** ****** ****** ****** ****** ****** ****** ****** ****** ******
      ****** ****** ****** ****** ****** ****** ****** ****** ****** ******
  12  ****** ****** ****** ****** ****** ****** ****** ****** ****** ******
      ****** ****** ****** ****** ****** ****** ****** ****** ****** ******
      ****** ****** ****** ****** ****** ****** ****** ****** ****** ******
  13  ****** ****** ****** ****** ****** ****** ****** ****** ****** ******
      ****** ****** ****** ****** ****** ****** ****** ****** ****** ******
      ****** ****** ****** ****** ****** ****** ****** ****** ****** ******
  14  ****** ****** ****** ****** ****** ****** ****** ****** ****** ******
      ****** ****** ****** ****** ****** ****** ****** ****** ****** ******
      ****** ****** ****** ****** ****** ****** ****** ****** ****** ******
  15  ****** ****** ****** ****** ****** ****** ****** ****** ****** ******
      ****** ****** ****** ****** ****** ****** ****** ****** ****** ******
      ****** ****** ****** ****** ****** ****** ****** ****** ****** ******
  16  ****** ****** ****** ****** ****** ****** ****** ****** ****** ******
      ****** ****** ****** ****** ****** ****** ****** ****** ****** ******
      ****** ****** ****** ****** ****** ****** ****** ****** ****** ******
  17  ****** ****** ****** ****** ****** ****** ****** ****** ****** ******
      ****** ****** ****** ****** ****** ****** ****** ****** ****** ******
      ****** ****** ****** ****** ****** ****** ****** ****** ****** ******
  18  ****** ****** ****** ****** ****** ****** ****** ****** ****** ******
      ****** ****** ****** ****** ****** ****** ****** ****** ****** ******
      ****** ****** ****** ****** ****** ****** ****** ****** ****** ******
  19  ****** ****** ****** ****** ****** ****** ****** ****** ****** ******
      ****** ****** ****** ****** ****** ****** ****** ****** ****** ******
      ****** ****** ****** ****** ****** ****** ****** ****** ****** ******
  20  ****** ****** ****** ****** ****** ****** ****** ****** ****** ******
      ****** ****** ****** ****** ****** ****** ****** ****** ****** ******
      ****** ****** ****** ****** ****** ****** ****** ****** ****** ******
  21  ****** ****** ****** ****** ****** ****** ****** ****** ****** ******
      ****** ****** ****** ****** ****** ****** ****** ****** ****** ******
      ****** ****** ****** ****** ****** ****** ****** ****** ****** ******
  22  ****** ****** ****** ****** ****** ****** ****** ****** ****** ******
      ****** ****** ****** ****** ****** ****** ****** ****** ****** ******
      ****** ****** ****** ****** ****** ****** ****** ****** ****** ******
  23  ****** ****** ****** ****** ****** ****** ****** ****** ****** ******
      ****** ****** ****** ****** ****** ****** ****** ****** ****** ******
      ****** ****** ****** ****** ****** ****** ****** ****** ****** ******
  24  ****** ****** ****** ****** ****** ****** ****** ****** ****** ******
      ****** ****** ****** ****** ****** ****** ****** ****** ****** ******
      ****** ****** ****** ****** ****** ****** ****** ****** ****** ******
  25  ****** ****** ****** ****** ****** ****** ****** ****** ****** ******
      ****** ****** ****** ****** ****** ****** ****** ****** ****** ******
      ****** ****** ****** ****** ****** ****** ****** ****** ****** ******

 HEAD WILL BE SAVED ON UNIT   51 AT END OF TIME STEP    1, STRESS PERIOD   10
1
  VOLUMETRIC BUDGET FOR ENTIRE MODEL AT END OF TIME STEP    1, STRESS PERIOD  10
  ------------------------------------------------------------------------------

     CUMULATIVE VOLUMES      L**3       RATES FOR THIS TIME STEP      L**3/T
     ------------------                 ------------------------

           IN:                                      IN:
           ---                                      ---
             STORAGE =    34584098.3986               STORAGE =           0.0000
       CONSTANT HEAD =    26545225.8288         CONSTANT HEAD =       33052.6923
               WELLS =           0.0000                 WELLS =           0.0000
            RECHARGE =    23901600.0000              RECHARGE =       55200.0000
      STREAM LEAKAGE =     5647594.9284        STREAM LEAKAGE =        6410.2201

            TOTAL IN =    90678519.1558              TOTAL IN =       94662.9124

          OUT:                                     OUT:
          ----                                     ----
             STORAGE =     2266245.1839               STORAGE =       15394.0124
       CONSTANT HEAD =           0.0000         CONSTANT HEAD =           0.0000
               WELLS =    17962989.5769                 WELLS =       19674.6874
            RECHARGE =           0.0000              RECHARGE =           0.0000
      STREAM LEAKAGE =    70449285.9623        STREAM LEAKAGE =       59594.2089

           TOTAL OUT =    90678520.7230             TOTAL OUT =       94662.9087

            IN - OUT =          -1.5672              IN - OUT =       3.6442E-03

 PERCENT DISCREPANCY =          -0.00     PERCENT DISCREPANCY =           0.00






         TIME SUMMARY AT END OF TIME STEP    1 IN STRESS PERIOD   10
                    SECONDS     MINUTES      HOURS       DAYS        YEARS
                    -----------------------------------------------------------
   TIME STEP LENGTH 7.86240E+06 1.31040E+05  2184.0      91.000     0.24914    
 STRESS PERIOD TIME 7.86240E+06 1.31040E+05  2184.0      91.000     0.24914    
         TOTAL TIME 7.88832E+07 1.31472E+06  21912.      913.00      2.4997    
1
1
                            STRESS PERIOD NO.   11, LENGTH =   91.00000    
                            -----------------------------------------------

                              NUMBER OF TIME STEPS =     1

                               MULTIPLIER FOR DELT =     1.500

                            INITIAL TIME STEP SIZE =   91.00000    

 WELL NO.  LAYER   ROW   COL   STRESS RATE         
 --------------------------------------------------
      1      1     14      6       0.000    
      2      1      3      9       0.000    
      3      1     20     10       0.000    
      4      1     14     20       0.000    
      5      1      6     26      -9457.    
      6      1     23      4      -2056.    
      7      1     12     10      -1573.    
      8      1      4      5      -6588.    

      8 WELLS

                 RECHARGE =   0.00000    

 REUSING STREAM SEGMENT DATA FROM LAST STRESS PERIOD
 
 SOLVING FOR HEAD 


     7 CALLS TO PCG ROUTINE FOR TIME STEP   1 IN STRESS PERIOD   11
    26 TOTAL ITERATIONS

 OUTPUT CONTROL FOR STRESS PERIOD   11   TIME STEP    1
    SAVE BUDGET
    SAVE HEAD FOR ALL LAYERS
    PRINT HEAD FOR ALL LAYERS
 UBDSV2 SAVING "STREAMFLOW OUT  " ON UNIT  50 AT TIME STEP  1, STRESS PERIOD  11



 STREAM LISTING     PERIOD     11   STEP        1

 LAYER ROW COL. STREAM  RCH.  FLOW INTO     FLOW TO   FLOW OUT OF   OVRLND.     DIRECT     STREAM       STREAM     STREAM     STREAM   STREAMBED  STREAMBED
                SEG.NO.  NO.  STRM. RCH.    AQUIFER    STRM. RCH.    RUNOFF     PRECIP       ET          HEAD       DEPTH      WIDTH   CONDCTNC.   GRADIENT

   1   13    1     1     1    1.0000E+05 -6.8771E+02   1.0069E+05  0.000E+00  0.000E+00  0.000E+00  4.84063E+01  1.450E-01  2.000E+01  2.000E+04 -3.439E-02
   1   13    2     1     2    1.0069E+05 -1.5418E+03   1.0223E+05  0.000E+00  0.000E+00  0.000E+00  4.79300E+01  1.459E-01  2.000E+01  2.000E+04 -7.709E-02
   1   14    3     1     3    1.0223E+05 -2.5503E+02   1.0248E+05  0.000E+00  0.000E+00  0.000E+00  4.74535E+01  1.467E-01  2.000E+01  2.000E+04 -1.275E-02
   1   15    4     1     4    1.0248E+05 -2.3529E+02   1.0272E+05  0.000E+00  0.000E+00  0.000E+00  4.69764E+01  1.469E-01  2.000E+01  2.000E+04 -1.176E-02
   1   16    5     1     5    1.0272E+05 -1.0416E+03   1.0376E+05  0.000E+00  0.000E+00  0.000E+00  4.64997E+01  1.474E-01  2.000E+01  2.000E+04 -5.208E-02
   1   16    6     1     6    1.0376E+05 -6.9349E+02   1.0445E+05  0.000E+00  0.000E+00  0.000E+00  4.60232E+01  1.482E-01  2.000E+01  2.000E+04 -3.467E-02
   1   16    7     1     7    1.0445E+05 -7.0049E+02   1.0516E+05  0.000E+00  0.000E+00  0.000E+00  4.55465E+01  1.488E-01  2.000E+01  2.000E+04 -3.502E-02
   1   16    8     1     8    1.0516E+05 -7.1228E+02   1.0587E+05  0.000E+00  0.000E+00  0.000E+00  4.50698E+01  1.494E-01  2.000E+01  2.000E+04 -3.561E-02
   1   16    9     1     9    1.0587E+05 -7.2228E+02   1.0659E+05  0.000E+00  0.000E+00  0.000E+00  4.45932E+01  1.500E-01  2.000E+01  2.000E+04 -3.611E-02
   1   16   10     1    10    1.0659E+05 -7.4365E+02   1.0733E+05  0.000E+00  0.000E+00  0.000E+00  4.41165E+01  1.506E-01  2.000E+01  2.000E+04 -3.718E-02
   1   16   11     1    11    1.0733E+05 -8.0920E+02   1.0814E+05  0.000E+00  0.000E+00  0.000E+00  4.36399E+01  1.513E-01  2.000E+01  2.000E+04 -4.046E-02
   1   16   12     1    12    1.0814E+05 -1.4072E+03   1.0955E+05  0.000E+00  0.000E+00  0.000E+00  4.31636E+01  1.522E-01  2.000E+01  2.000E+04 -7.036E-02
   1   15   13     1    13    1.0955E+05 -1.1246E+03   1.1067E+05  0.000E+00  0.000E+00  0.000E+00  4.26873E+01  1.533E-01  2.000E+01  2.000E+04 -5.623E-02
   1   14   14     1    14    1.1067E+05 -1.2882E+03   1.1196E+05  0.000E+00  0.000E+00  0.000E+00  4.22111E+01  1.543E-01  2.000E+01  2.000E+04 -6.441E-02
   1   13   15     1    15    1.1196E+05 -1.5289E+03   1.1349E+05  0.000E+00  0.000E+00  0.000E+00  4.17350E+01  1.554E-01  2.000E+01  2.000E+04 -7.645E-02
   1   12   16     1    16    1.1349E+05 -2.0139E+03   1.1551E+05  0.000E+00  0.000E+00  0.000E+00  4.12592E+01  1.569E-01  2.000E+01  2.000E+04 -1.007E-01
   1   12   17     1    17    1.1551E+05 -1.4028E+03   1.1691E+05  0.000E+00  0.000E+00  0.000E+00  4.07833E+01  1.583E-01  2.000E+01  2.000E+04 -7.014E-02
   1   12   18     1    18    1.1691E+05 -1.3538E+03   1.1826E+05  0.000E+00  0.000E+00  0.000E+00  4.03071E+01  1.594E-01  2.000E+01  2.000E+04 -6.769E-02
   1   12   19     1    19    1.1826E+05 -1.7202E+03   1.1998E+05  0.000E+00  0.000E+00  0.000E+00  3.98311E+01  1.607E-01  2.000E+01  2.000E+04 -8.601E-02
   1   13   20     1    20    1.1998E+05 -1.3868E+03   1.2137E+05  0.000E+00  0.000E+00  0.000E+00  3.93551E+01  1.619E-01  2.000E+01  2.000E+04 -6.934E-02
   1   14   21     1    21    1.2137E+05 -1.3872E+03   1.2276E+05  0.000E+00  0.000E+00  0.000E+00  3.88789E+01  1.630E-01  2.000E+01  2.000E+04 -6.936E-02
   1   14   22     1    22    1.2276E+05  4.9646E+03   1.1779E+05  0.000E+00  0.000E+00  0.000E+00  3.84002E+01  1.616E-01  2.000E+01  2.000E+04  2.482E-01
   1    9   30     2     1    5.0000E+04  2.8539E+02   4.9715E+04  0.000E+00  0.000E+00  0.000E+00  4.02407E+01  1.157E-01  2.000E+01  2.000E+04  1.427E-02
   1    9   29     2     2    4.9715E+04  7.5469E+01   4.9639E+04  0.000E+00  0.000E+00  0.000E+00  3.99904E+01  1.154E-01  2.000E+01  2.000E+04  3.773E-03
   1    9   28     2     3    4.9639E+04  2.6866E+01   4.9612E+04  0.000E+00  0.000E+00  0.000E+00  3.97403E+01  1.153E-01  2.000E+01  2.000E+04  1.343E-03
   1    9   27     2     4    4.9612E+04 -2.5439E+02   4.9867E+04  0.000E+00  0.000E+00  0.000E+00  3.94905E+01  1.155E-01  2.000E+01  2.000E+04 -1.272E-02
   1   10   26     2     5    4.9867E+04 -3.4336E+02   5.0210E+04  0.000E+00  0.000E+00  0.000E+00  3.92409E+01  1.159E-01  2.000E+01  2.000E+04 -1.717E-02
   1   11   25     2     6    5.0210E+04 -5.9198E+02   5.0802E+04  0.000E+00  0.000E+00  0.000E+00  3.89916E+01  1.166E-01  2.000E+01  2.000E+04 -2.960E-02
   1   12   24     2     7    5.0802E+04 -8.8584E+02   5.1688E+04  0.000E+00  0.000E+00  0.000E+00  3.87426E+01  1.176E-01  2.000E+01  2.000E+04 -4.429E-02
   1   13   23     2     8    5.1688E+04 -1.3220E+02   5.1820E+04  0.000E+00  0.000E+00  0.000E+00  3.84933E+01  1.183E-01  2.000E+01  2.000E+04 -6.610E-03
   1   14   22     2     9    5.1820E+04  1.8027E+03   5.0017E+04  0.000E+00  0.000E+00  0.000E+00  3.82421E+01  1.171E-01  2.000E+01  2.000E+04  9.013E-02
   1   14   22     3     1    1.6781E+05 -8.6038E+03   1.7641E+05  0.000E+00  0.000E+00  0.000E+00  3.77218E+01  1.663E-01  2.000E+01  2.000E+04 -4.302E-01
   1   15   23     3     2    1.7641E+05 -4.7316E+02   1.7689E+05  0.000E+00  0.000E+00  0.000E+00  3.68355E+01  1.689E-01  2.000E+01  2.000E+04 -2.366E-02
   1   15   24     3     3    1.7689E+05 -2.1706E+02   1.7710E+05  0.000E+00  0.000E+00  0.000E+00  3.59469E+01  1.691E-01  2.000E+01  2.000E+04 -1.085E-02
   1   15   25     3     4    1.7710E+05 -2.0777E+02   1.7731E+05  0.000E+00  0.000E+00  0.000E+00  3.50581E+01  1.692E-01  2.000E+01  2.000E+04 -1.039E-02
   1   15   26     3     5    1.7731E+05 -2.5414E+02   1.7757E+05  0.000E+00  0.000E+00  0.000E+00  3.41693E+01  1.693E-01  2.000E+01  2.000E+04 -1.271E-02
   1   16   27     3     6    1.7757E+05 -2.7565E+02   1.7784E+05  0.000E+00  0.000E+00  0.000E+00  3.32806E+01  1.695E-01  2.000E+01  2.000E+04 -1.378E-02
   1   17   28     3     7    1.7784E+05 -1.3242E+03   1.7917E+05  0.000E+00  0.000E+00  0.000E+00  3.23922E+01  1.699E-01  2.000E+01  2.000E+04 -6.621E-02
   1   18   29     3     8    1.7917E+05 -2.6812E+03   1.8185E+05  0.000E+00  0.000E+00  0.000E+00  3.15044E+01  1.711E-01  2.000E+01  2.000E+04 -1.341E-01
   1   18   30     3     9    1.8185E+05 -2.9978E+03   1.8484E+05  0.000E+00  0.000E+00  0.000E+00  3.06171E+01  1.727E-01  2.000E+01  2.000E+04 -1.499E-01



1
              HEAD IN LAYER   1 AT END OF TIME STEP   1 IN STRESS PERIOD   11
  ---------------------------------------------------------------------------

          1      2      3      4      5      6      7      8      9     10
         11     12     13     14     15     16     17     18     19     20
         21     22     23     24     25     26     27     28     29     30
 .........................................................................
   1  ****** ****** ****** ****** ****** ****** ****** ****** ****** ******
      ****** ****** ****** ****** ****** ****** ****** ****** ****** ******
      ****** ****** ****** ****** ****** ****** ****** ****** ****** ******
   2  ****** ****** ****** ****** ****** ****** ****** ****** ****** ******
      ****** ****** ****** ****** ****** ****** ****** ****** ****** ******
      ****** ****** ****** ****** ****** ****** ****** ****** ****** ******
   3  ****** ****** ****** ****** ****** ****** ****** ****** ****** ******
      ****** ****** ****** ****** ****** ****** ****** ****** ****** ******
      ****** ****** ****** ****** ****** ****** ****** ****** ****** ******
   4  ****** ****** ****** ****** ****** ****** ****** ****** ****** ******
      ****** ****** ****** ****** ****** ****** ****** ****** ****** ******
      ****** ****** ****** ****** ****** ****** ****** ****** ****** ******
   5  ****** ****** ****** ****** ****** ****** ****** ****** ****** ******
      ****** ****** ****** ****** ****** ****** ****** ****** ****** ******
      ****** ****** ****** ****** ****** ****** ****** ****** ****** ******
   6  ****** ****** ****** ****** ****** ****** ****** ****** ****** ******
      ****** ****** ****** ****** ****** ****** ****** ****** ****** ******
      ****** ****** ****** ****** ****** ****** ****** ****** ****** ******
   7  ****** ****** ****** ****** ****** ****** ****** ****** ****** ******
      ****** ****** ****** ****** ****** ****** ****** ****** ****** ******
      ****** ****** ****** ****** ****** ****** ****** ****** ****** ******
   8  ****** ****** ****** ****** ****** ****** ****** ****** ****** ******
      ****** ****** ****** ****** ****** ****** ****** ****** ****** ******
      ****** ****** ****** ****** ****** ****** ****** ****** ****** ******
   9  ****** ****** ****** ****** ****** ****** ****** ****** ****** ******
      ****** ****** ****** ****** ****** ****** ****** ****** ****** ******
      ****** ****** ****** ****** ****** ****** ****** ****** ****** ******
  10  ****** ****** ****** ****** ****** ****** ****** ****** ****** ******
      ****** ****** ****** ****** ****** ****** ****** ****** ****** ******
      ****** ****** ****** ****** ****** ****** ****** ****** ****** ******
  11  ****** ****** ****** ****** ****** ****** ****** ****** ****** ******
      ****** ****** ****** ****** ****** ****** ****** ****** ****** ******
      ****** ****** ****** ****** ****** ****** ****** ****** ****** ******
  12  ****** ****** ****** ****** ****** ****** ****** ****** ****** ******
      ****** ****** ****** ****** ****** ****** ****** ****** ****** ******
      ****** ****** ****** ****** ****** ****** ****** ****** ****** ******
  13  ****** ****** ****** ****** ****** ****** ****** ****** ****** ******
      ****** ****** ****** ****** ****** ****** ****** ****** ****** ******
      ****** ****** ****** ****** ****** ****** ****** ****** ****** ******
  14  ****** ****** ****** ****** ****** ****** ****** ****** ****** ******
      ****** ****** ****** ****** ****** ****** ****** ****** ****** ******
      ****** ****** ****** ****** ****** ****** ****** ****** ****** ******
  15  ****** ****** ****** ****** ****** ****** ****** ****** ****** ******
      ****** ****** ****** ****** ****** ****** ****** ****** ****** ******
      ****** ****** ****** ****** ****** ****** ****** ****** ****** ******
  16  ****** ****** ****** ****** ****** ****** ****** ****** ****** ******
      ****** ****** ****** ****** ****** ****** ****** ****** ****** ******
      ****** ****** ****** ****** ****** ****** ****** ****** ****** ******
  17  ****** ****** ****** ****** ****** ****** ****** ****** ****** ******
      ****** ****** ****** ****** ****** ****** ****** ****** ****** ******
      ****** ****** ****** ****** ****** ****** ****** ****** ****** ******
  18  ****** ****** ****** ****** ****** ****** ****** ****** ****** ******
      ****** ****** ****** ****** ****** ****** ****** ****** ****** ******
      ****** ****** ****** ****** ****** ****** ****** ****** ****** ******
  19  ****** ****** ****** ****** ****** ****** ****** ****** ****** ******
      ****** ****** ****** ****** ****** ****** ****** ****** ****** ******
      ****** ****** ****** ****** ****** ****** ****** ****** ****** ******
  20  ****** ****** ****** ****** ****** ****** ****** ****** ****** ******
      ****** ****** ****** ****** ****** ****** ****** ****** ****** ******
      ****** ****** ****** ****** ****** ****** ****** ****** ****** ******
  21  ****** ****** ****** ****** ****** ****** ****** ****** ****** ******
      ****** ****** ****** ****** ****** ****** ****** ****** ****** ******
      ****** ****** ****** ****** ****** ****** ****** ****** ****** ******
  22  ****** ****** ****** ****** ****** ****** ****** ****** ****** ******
      ****** ****** ****** ****** ****** ****** ****** ****** ****** ******
      ****** ****** ****** ****** ****** ****** ****** ****** ****** ******
  23  ****** ****** ****** ****** ****** ****** ****** ****** ****** ******
      ****** ****** ****** ****** ****** ****** ****** ****** ****** ******
      ****** ****** ****** ****** ****** ****** ****** ****** ****** ******
  24  ****** ****** ****** ****** ****** ****** ****** ****** ****** ******
      ****** ****** ****** ****** ****** ****** ****** ****** ****** ******
      ****** ****** ****** ****** ****** ****** ****** ****** ****** ******
  25  ****** ****** ****** ****** ****** ****** ****** ****** ****** ******
      ****** ****** ****** ****** ****** ****** ****** ****** ****** ******
      ****** ****** ****** ****** ****** ****** ****** ****** ****** ******

 HEAD WILL BE SAVED ON UNIT   51 AT END OF TIME STEP    1, STRESS PERIOD   11
1
  VOLUMETRIC BUDGET FOR ENTIRE MODEL AT END OF TIME STEP    1, STRESS PERIOD  11
  ------------------------------------------------------------------------------

     CUMULATIVE VOLUMES      L**3       RATES FOR THIS TIME STEP      L**3/T
     ------------------                 ------------------------

           IN:                                      IN:
           ---                                      ---
             STORAGE =    36236435.3141               STORAGE =       18157.5485
       CONSTANT HEAD =    29854087.9060         CONSTANT HEAD =       36361.1217
               WELLS =           0.0000                 WELLS =           0.0000
            RECHARGE =    23901600.0000              RECHARGE =           0.0000
      STREAM LEAKAGE =     6298698.2184        STREAM LEAKAGE =        7154.9812

            TOTAL IN =    96290821.4385              TOTAL IN =       61673.6515

          OUT:                                     OUT:
          ----                                     ----
             STORAGE =     2266245.1839               STORAGE =           0.0000
       CONSTANT HEAD =           0.0000         CONSTANT HEAD =           0.0000
               WELLS =    19753386.1283                 WELLS =       19674.6874
            RECHARGE =           0.0000              RECHARGE =           0.0000
      STREAM LEAKAGE =    74271192.1216        STREAM LEAKAGE =       41998.9688

           TOTAL OUT =    96290823.4338             TOTAL OUT =       61673.6562

            IN - OUT =          -1.9952              IN - OUT =      -4.7040E-03

 PERCENT DISCREPANCY =          -0.00     PERCENT DISCREPANCY =          -0.00






         TIME SUMMARY AT END OF TIME STEP    1 IN STRESS PERIOD   11
                    SECONDS     MINUTES      HOURS       DAYS        YEARS
                    -----------------------------------------------------------
   TIME STEP LENGTH 7.86240E+06 1.31040E+05  2184.0      91.000     0.24914    
 STRESS PERIOD TIME 7.86240E+06 1.31040E+05  2184.0      91.000     0.24914    
         TOTAL TIME 8.67456E+07 1.44576E+06  24096.      1004.0      2.7488    
1
1
                            STRESS PERIOD NO.   12, LENGTH =   91.00000    
                            -----------------------------------------------

                              NUMBER OF TIME STEPS =     1

                               MULTIPLIER FOR DELT =     1.500

                            INITIAL TIME STEP SIZE =   91.00000    

 WELL NO.  LAYER   ROW   COL   STRESS RATE         
 --------------------------------------------------
      1      1     14      6       0.000    
      2      1      3      9       0.000    
      3      1     20     10       0.000    
      4      1     14     20       0.000    
      5      1      6     26      -9457.    
      6      1     23      4      -2056.    
      7      1     12     10      -1573.    
      8      1      4      5      -6588.    

      8 WELLS

                 RECHARGE =  1.000000E-03

 REUSING STREAM SEGMENT DATA FROM LAST STRESS PERIOD
 
 SOLVING FOR HEAD 


     7 CALLS TO PCG ROUTINE FOR TIME STEP   1 IN STRESS PERIOD   12
    24 TOTAL ITERATIONS

 OUTPUT CONTROL FOR STRESS PERIOD   12   TIME STEP    1
    SAVE BUDGET
    SAVE HEAD FOR ALL LAYERS
    PRINT HEAD FOR ALL LAYERS
 UBDSV2 SAVING "STREAMFLOW OUT  " ON UNIT  50 AT TIME STEP  1, STRESS PERIOD  12



 STREAM LISTING     PERIOD     12   STEP        1

 LAYER ROW COL. STREAM  RCH.  FLOW INTO     FLOW TO   FLOW OUT OF   OVRLND.     DIRECT     STREAM       STREAM     STREAM     STREAM   STREAMBED  STREAMBED
                SEG.NO.  NO.  STRM. RCH.    AQUIFER    STRM. RCH.    RUNOFF     PRECIP       ET          HEAD       DEPTH      WIDTH   CONDCTNC.   GRADIENT

   1   13    1     1     1    1.0000E+05 -8.2627E+02   1.0083E+05  0.000E+00  0.000E+00  0.000E+00  4.84064E+01  1.450E-01  2.000E+01  2.000E+04 -4.131E-02
   1   13    2     1     2    1.0083E+05 -1.6901E+03   1.0252E+05  0.000E+00  0.000E+00  0.000E+00  4.79302E+01  1.461E-01  2.000E+01  2.000E+04 -8.451E-02
   1   14    3     1     3    1.0252E+05 -3.3248E+02   1.0285E+05  0.000E+00  0.000E+00  0.000E+00  4.74538E+01  1.470E-01  2.000E+01  2.000E+04 -1.662E-02
   1   15    4     1     4    1.0285E+05 -3.1676E+02   1.0317E+05  0.000E+00  0.000E+00  0.000E+00  4.69768E+01  1.472E-01  2.000E+01  2.000E+04 -1.584E-02
   1   16    5     1     5    1.0317E+05 -1.2509E+03   1.0442E+05  0.000E+00  0.000E+00  0.000E+00  4.65002E+01  1.479E-01  2.000E+01  2.000E+04 -6.254E-02
   1   16    6     1     6    1.0442E+05 -8.2318E+02   1.0524E+05  0.000E+00  0.000E+00  0.000E+00  4.60238E+01  1.488E-01  2.000E+01  2.000E+04 -4.116E-02
   1   16    7     1     7    1.0524E+05 -8.2503E+02   1.0606E+05  0.000E+00  0.000E+00  0.000E+00  4.55472E+01  1.495E-01  2.000E+01  2.000E+04 -4.125E-02
   1   16    8     1     8    1.0606E+05 -8.3581E+02   1.0690E+05  0.000E+00  0.000E+00  0.000E+00  4.50707E+01  1.502E-01  2.000E+01  2.000E+04 -4.179E-02
   1   16    9     1     9    1.0690E+05 -8.4635E+02   1.0775E+05  0.000E+00  0.000E+00  0.000E+00  4.45941E+01  1.509E-01  2.000E+01  2.000E+04 -4.232E-02
   1   16   10     1    10    1.0775E+05 -8.6925E+02   1.0862E+05  0.000E+00  0.000E+00  0.000E+00  4.41175E+01  1.516E-01  2.000E+01  2.000E+04 -4.346E-02
   1   16   11     1    11    1.0862E+05 -9.3725E+02   1.0955E+05  0.000E+00  0.000E+00  0.000E+00  4.36410E+01  1.524E-01  2.000E+01  2.000E+04 -4.686E-02
   1   16   12     1    12    1.0955E+05 -1.6083E+03   1.1116E+05  0.000E+00  0.000E+00  0.000E+00  4.31648E+01  1.535E-01  2.000E+01  2.000E+04 -8.041E-02
   1   15   13     1    13    1.1116E+05 -1.3398E+03   1.1250E+05  0.000E+00  0.000E+00  0.000E+00  4.26888E+01  1.547E-01  2.000E+01  2.000E+04 -6.699E-02
   1   14   14     1    14    1.1250E+05 -1.5031E+03   1.1400E+05  0.000E+00  0.000E+00  0.000E+00  4.22127E+01  1.559E-01  2.000E+01  2.000E+04 -7.515E-02
   1   13   15     1    15    1.1400E+05 -1.7359E+03   1.1574E+05  0.000E+00  0.000E+00  0.000E+00  4.17367E+01  1.572E-01  2.000E+01  2.000E+04 -8.679E-02
   1   12   16     1    16    1.1574E+05 -2.1934E+03   1.1793E+05  0.000E+00  0.000E+00  0.000E+00  4.12611E+01  1.588E-01  2.000E+01  2.000E+04 -1.097E-01
   1   12   17     1    17    1.1793E+05 -1.5543E+03   1.1949E+05  0.000E+00  0.000E+00  0.000E+00  4.07853E+01  1.603E-01  2.000E+01  2.000E+04 -7.772E-02
   1   12   18     1    18    1.1949E+05 -1.5079E+03   1.2100E+05  0.000E+00  0.000E+00  0.000E+00  4.03093E+01  1.616E-01  2.000E+01  2.000E+04 -7.540E-02
   1   12   19     1    19    1.2100E+05 -1.9109E+03   1.2291E+05  0.000E+00  0.000E+00  0.000E+00  3.98334E+01  1.629E-01  2.000E+01  2.000E+04 -9.555E-02
   1   13   20     1    20    1.2291E+05 -1.5966E+03   1.2450E+05  0.000E+00  0.000E+00  0.000E+00  3.93575E+01  1.643E-01  2.000E+01  2.000E+04 -7.983E-02
   1   14   21     1    21    1.2450E+05 -1.5813E+03   1.2608E+05  0.000E+00  0.000E+00  0.000E+00  3.88815E+01  1.656E-01  2.000E+01  2.000E+04 -7.907E-02
   1   14   22     1    22    1.2608E+05  4.9107E+03   1.2117E+05  0.000E+00  0.000E+00  0.000E+00  3.84029E+01  1.643E-01  2.000E+01  2.000E+04  2.455E-01
   1    9   30     2     1    5.0000E+04  1.0931E+02   4.9891E+04  0.000E+00  0.000E+00  0.000E+00  4.02408E+01  1.158E-01  2.000E+01  2.000E+04  5.465E-03
   1    9   29     2     2    4.9891E+04 -9.8535E+01   4.9989E+04  0.000E+00  0.000E+00  0.000E+00  3.99908E+01  1.158E-01  2.000E+01  2.000E+04 -4.927E-03
   1    9   28     2     3    4.9989E+04 -1.4353E+02   5.0133E+04  0.000E+00  0.000E+00  0.000E+00  3.97410E+01  1.160E-01  2.000E+01  2.000E+04 -7.177E-03
   1    9   27     2     4    5.0133E+04 -4.6253E+02   5.0595E+04  0.000E+00  0.000E+00  0.000E+00  3.94914E+01  1.164E-01  2.000E+01  2.000E+04 -2.313E-02
   1   10   26     2     5    5.0595E+04 -5.7228E+02   5.1168E+04  0.000E+00  0.000E+00  0.000E+00  3.92421E+01  1.171E-01  2.000E+01  2.000E+04 -2.861E-02
   1   11   25     2     6    5.1168E+04 -8.1703E+02   5.1985E+04  0.000E+00  0.000E+00  0.000E+00  3.89930E+01  1.180E-01  2.000E+01  2.000E+04 -4.085E-02
   1   12   24     2     7    5.1985E+04 -1.0912E+03   5.3076E+04  0.000E+00  0.000E+00  0.000E+00  3.87443E+01  1.193E-01  2.000E+01  2.000E+04 -5.456E-02
   1   13   23     2     8    5.3076E+04 -2.0968E+02   5.3285E+04  0.000E+00  0.000E+00  0.000E+00  3.84952E+01  1.202E-01  2.000E+01  2.000E+04 -1.048E-02
   1   14   22     2     9    5.3285E+04  1.7362E+03   5.1549E+04  0.000E+00  0.000E+00  0.000E+00  3.82442E+01  1.192E-01  2.000E+01  2.000E+04  8.681E-02
   1   14   22     3     1    1.7272E+05 -8.6545E+03   1.8138E+05  0.000E+00  0.000E+00  0.000E+00  3.77247E+01  1.691E-01  2.000E+01  2.000E+04 -4.327E-01
   1   15   23     3     2    1.8138E+05 -5.4528E+02   1.8192E+05  0.000E+00  0.000E+00  0.000E+00  3.68384E+01  1.717E-01  2.000E+01  2.000E+04 -2.726E-02
   1   15   24     3     3    1.8192E+05 -2.8220E+02   1.8221E+05  0.000E+00  0.000E+00  0.000E+00  3.59497E+01  1.720E-01  2.000E+01  2.000E+04 -1.411E-02
   1   15   25     3     4    1.8221E+05 -2.7418E+02   1.8248E+05  0.000E+00  0.000E+00  0.000E+00  3.50610E+01  1.721E-01  2.000E+01  2.000E+04 -1.371E-02
   1   15   26     3     5    1.8248E+05 -3.3166E+02   1.8281E+05  0.000E+00  0.000E+00  0.000E+00  3.41723E+01  1.723E-01  2.000E+01  2.000E+04 -1.658E-02
   1   16   27     3     6    1.8281E+05 -3.6250E+02   1.8317E+05  0.000E+00  0.000E+00  0.000E+00  3.32836E+01  1.725E-01  2.000E+01  2.000E+04 -1.812E-02
   1   17   28     3     7    1.8317E+05 -1.5452E+03   1.8472E+05  0.000E+00  0.000E+00  0.000E+00  3.23952E+01  1.730E-01  2.000E+01  2.000E+04 -7.726E-02
   1   18   29     3     8    1.8472E+05 -2.8823E+03   1.8760E+05  0.000E+00  0.000E+00  0.000E+00  3.15076E+01  1.743E-01  2.000E+01  2.000E+04 -1.441E-01
   1   18   30     3     9    1.8760E+05 -3.1662E+03   1.9077E+05  0.000E+00  0.000E+00  0.000E+00  3.06204E+01  1.760E-01  2.000E+01  2.000E+04 -1.583E-01



1
              HEAD IN LAYER   1 AT END OF TIME STEP   1 IN STRESS PERIOD   12
  ---------------------------------------------------------------------------

          1      2      3      4      5      6      7      8      9     10
         11     12     13     14     15     16     17     18     19     20
         21     22     23     24     25     26     27     28     29     30
 .........................................................................
   1  ****** ****** ****** ****** ****** ****** ****** ****** ****** ******
      ****** ****** ****** ****** ****** ****** ****** ****** ****** ******
      ****** ****** ****** ****** ****** ****** ****** ****** ****** ******
   2  ****** ****** ****** ****** ****** ****** ****** ****** ****** ******
      ****** ****** ****** ****** ****** ****** ****** ****** ****** ******
      ****** ****** ****** ****** ****** ****** ****** ****** ****** ******
   3  ****** ****** ****** ****** ****** ****** ****** ****** ****** ******
      ****** ****** ****** ****** ****** ****** ****** ****** ****** ******
      ****** ****** ****** ****** ****** ****** ****** ****** ****** ******
   4  ****** ****** ****** ****** ****** ****** ****** ****** ****** ******
      ****** ****** ****** ****** ****** ****** ****** ****** ****** ******
      ****** ****** ****** ****** ****** ****** ****** ****** ****** ******
   5  ****** ****** ****** ****** ****** ****** ****** ****** ****** ******
      ****** ****** ****** ****** ****** ****** ****** ****** ****** ******
      ****** ****** ****** ****** ****** ****** ****** ****** ****** ******
   6  ****** ****** ****** ****** ****** ****** ****** ****** ****** ******
      ****** ****** ****** ****** ****** ****** ****** ****** ****** ******
      ****** ****** ****** ****** ****** ****** ****** ****** ****** ******
   7  ****** ****** ****** ****** ****** ****** ****** ****** ****** ******
      ****** ****** ****** ****** ****** ****** ****** ****** ****** ******
      ****** ****** ****** ****** ****** ****** ****** ****** ****** ******
   8  ****** ****** ****** ****** ****** ****** ****** ****** ****** ******
      ****** ****** ****** ****** ****** ****** ****** ****** ****** ******
      ****** ****** ****** ****** ****** ****** ****** ****** ****** ******
   9  ****** ****** ****** ****** ****** ****** ****** ****** ****** ******
      ****** ****** ****** ****** ****** ****** ****** ****** ****** ******
      ****** ****** ****** ****** ****** ****** ****** ****** ****** ******
  10  ****** ****** ****** ****** ****** ****** ****** ****** ****** ******
      ****** ****** ****** ****** ****** ****** ****** ****** ****** ******
      ****** ****** ****** ****** ****** ****** ****** ****** ****** ******
  11  ****** ****** ****** ****** ****** ****** ****** ****** ****** ******
      ****** ****** ****** ****** ****** ****** ****** ****** ****** ******
      ****** ****** ****** ****** ****** ****** ****** ****** ****** ******
  12  ****** ****** ****** ****** ****** ****** ****** ****** ****** ******
      ****** ****** ****** ****** ****** ****** ****** ****** ****** ******
      ****** ****** ****** ****** ****** ****** ****** ****** ****** ******
  13  ****** ****** ****** ****** ****** ****** ****** ****** ****** ******
      ****** ****** ****** ****** ****** ****** ****** ****** ****** ******
      ****** ****** ****** ****** ****** ****** ****** ****** ****** ******
  14  ****** ****** ****** ****** ****** ****** ****** ****** ****** ******
      ****** ****** ****** ****** ****** ****** ****** ****** ****** ******
      ****** ****** ****** ****** ****** ****** ****** ****** ****** ******
  15  ****** ****** ****** ****** ****** ****** ****** ****** ****** ******
      ****** ****** ****** ****** ****** ****** ****** ****** ****** ******
      ****** ****** ****** ****** ****** ****** ****** ****** ****** ******
  16  ****** ****** ****** ****** ****** ****** ****** ****** ****** ******
      ****** ****** ****** ****** ****** ****** ****** ****** ****** ******
      ****** ****** ****** ****** ****** ****** ****** ****** ****** ******
  17  ****** ****** ****** ****** ****** ****** ****** ****** ****** ******
      ****** ****** ****** ****** ****** ****** ****** ****** ****** ******
      ****** ****** ****** ****** ****** ****** ****** ****** ****** ******
  18  ****** ****** ****** ****** ****** ****** ****** ****** ****** ******
      ****** ****** ****** ****** ****** ****** ****** ****** ****** ******
      ****** ****** ****** ****** ****** ****** ****** ****** ****** ******
  19  ****** ****** ****** ****** ****** ****** ****** ****** ****** ******
      ****** ****** ****** ****** ****** ****** ****** ****** ****** ******
      ****** ****** ****** ****** ****** ****** ****** ****** ****** ******
  20  ****** ****** ****** ****** ****** ****** ****** ****** ****** ******
      ****** ****** ****** ****** ****** ****** ****** ****** ****** ******
      ****** ****** ****** ****** ****** ****** ****** ****** ****** ******
  21  ****** ****** ****** ****** ****** ****** ****** ****** ****** ******
      ****** ****** ****** ****** ****** ****** ****** ****** ****** ******
      ****** ****** ****** ****** ****** ****** ****** ****** ****** ******
  22  ****** ****** ****** ****** ****** ****** ****** ****** ****** ******
      ****** ****** ****** ****** ****** ****** ****** ****** ****** ******
      ****** ****** ****** ****** ****** ****** ****** ****** ****** ******
  23  ****** ****** ****** ****** ****** ****** ****** ****** ****** ******
      ****** ****** ****** ****** ****** ****** ****** ****** ****** ******
      ****** ****** ****** ****** ****** ****** ****** ****** ****** ******
  24  ****** ****** ****** ****** ****** ****** ****** ****** ****** ******
      ****** ****** ****** ****** ****** ****** ****** ****** ****** ******
      ****** ****** ****** ****** ****** ****** ****** ****** ****** ******
  25  ****** ****** ****** ****** ****** ****** ****** ****** ****** ******
      ****** ****** ****** ****** ****** ****** ****** ****** ****** ******
      ****** ****** ****** ****** ****** ****** ****** ****** ****** ******

 HEAD WILL BE SAVED ON UNIT   51 AT END OF TIME STEP    1, STRESS PERIOD   12
1
  VOLUMETRIC BUDGET FOR ENTIRE MODEL AT END OF TIME STEP    1, STRESS PERIOD  12
  ------------------------------------------------------------------------------

     CUMULATIVE VOLUMES      L**3       RATES FOR THIS TIME STEP      L**3/T
     ------------------                 ------------------------

           IN:                                      IN:
           ---                                      ---
             STORAGE =    36241886.3691               STORAGE =          59.9017
       CONSTANT HEAD =    33101128.5921         CONSTANT HEAD =       35681.7658
               WELLS =           0.0000                 WELLS =           0.0000
            RECHARGE =    26413200.0000              RECHARGE =       27600.0000
      STREAM LEAKAGE =     6913516.3465        STREAM LEAKAGE =        6756.2432

            TOTAL IN =   102669731.3076              TOTAL IN =       70097.9106

          OUT:                                     OUT:
          ----                                     ----
             STORAGE =     2530123.1230               STORAGE =        2899.7576
       CONSTANT HEAD =           0.0000         CONSTANT HEAD =           0.0000
               WELLS =    21543782.6798                 WELLS =       19674.6874
            RECHARGE =           0.0000              RECHARGE =           0.0000
      STREAM LEAKAGE =    78595827.4203        STREAM LEAKAGE =       47523.4648

           TOTAL OUT =   102669733.2231             TOTAL OUT =       70097.9098

            IN - OUT =          -1.9154              IN - OUT =       8.7694E-04

 PERCENT DISCREPANCY =          -0.00     PERCENT DISCREPANCY =           0.00






         TIME SUMMARY AT END OF TIME STEP    1 IN STRESS PERIOD   12
                    SECONDS     MINUTES      HOURS       DAYS        YEARS
                    -----------------------------------------------------------
   TIME STEP LENGTH 7.86240E+06 1.31040E+05  2184.0      91.000     0.24914    
 STRESS PERIOD TIME 7.86240E+06 1.31040E+05  2184.0      91.000     0.24914    
         TOTAL TIME 9.46080E+07 1.57680E+06  26280.      1095.0      2.9979    
1

 Run end date and time (yyyy/mm/dd hh:mm:ss): 2018/10/15 13:09:05
 Elapsed run time:  0.100 Seconds

