                                  MODFLOW-2005     
      U.S. GEOLOGICAL SURVEY MODULAR FINITE-DIFFERENCE GROUND-WATER FLOW MODEL
                            VERSION 1.11.00 8/8/2013

 LIST FILE: supply2.lst
                         UNIT   10

 OPENING ..\data\supply.dis
 FILE TYPE:DIS   UNIT   11   STATUS:OLD    
 FORMAT:FORMATTED              ACCESS:SEQUENTIAL          

 OPENING ..\data\supply.ba6
 FILE TYPE:BAS6   UNIT   12   STATUS:OLD    
 FORMAT:FORMATTED              ACCESS:SEQUENTIAL          

 OPENING ..\data\supply_het.bc6
 FILE TYPE:BCF6   UNIT   13   STATUS:OLD    
 FORMAT:FORMATTED              ACCESS:SEQUENTIAL          

 OPENING ..\data\supply.rch
 FILE TYPE:RCH   UNIT   15   STATUS:OLD    
 FORMAT:FORMATTED              ACCESS:SEQUENTIAL          

 OPENING ..\data\supply2.sfr
 FILE TYPE:SFR   UNIT   16   STATUS:OLD    
 FORMAT:FORMATTED              ACCESS:SEQUENTIAL          

 OPENING ..\data\supply.oc
 FILE TYPE:OC   UNIT   17   STATUS:OLD    
 FORMAT:FORMATTED              ACCESS:SEQUENTIAL          

 OPENING ..\data\supply.pcg
 FILE TYPE:PCG   UNIT   18   STATUS:OLD    
 FORMAT:FORMATTED              ACCESS:SEQUENTIAL          

 OPENING supply2.wel
 FILE TYPE:WEL   UNIT   19   STATUS:OLD    
 FORMAT:FORMATTED              ACCESS:SEQUENTIAL          

 OPENING supply2sf.cbc
 FILE TYPE:DATA(BINARY)   UNIT   50   STATUS:UNKNOWN
 FORMAT:BINARY                 ACCESS:SEQUENTIAL          

 OPENING supply2hd.bhd
 FILE TYPE:DATA(BINARY)   UNIT   51   STATUS:UNKNOWN
 FORMAT:BINARY                 ACCESS:SEQUENTIAL          

 BAS -- BASIC PACKAGE, VERSION 7, 5/2/2005 INPUT READ FROM UNIT   12
 
 MODFLOW was compiled using uniform precision
 Precision of REAL and DOUBLE PRECISION variables:          15

 DISCRETIZATION INPUT DATA READ FROM UNIT   11
    1 LAYERS        25 ROWS        30 COLUMNS
   12 STRESS PERIOD(S) IN SIMULATION
 MODEL TIME UNIT IS DAYS
 MODEL LENGTH UNIT IS UNDEFINED
  Confining bed flag for each layer:
   0

                     DELR =   200.000    

                     DELC =   200.000    

 TOP ELEVATION OF LAYER 1 =  100.0000    

   MODEL LAYER BOTTOM EL. =   0.00000     FOR LAYER   1


 STRESS PERIOD     LENGTH       TIME STEPS     MULTIPLIER FOR DELT    SS FLAG
 ----------------------------------------------------------------------------
        1         92.00000          1                    1.500         TR
        2         91.00000          1                    1.500         TR
        3         91.00000          1                    1.500         TR
        4         91.00000          1                    1.500         TR
        5         92.00000          1                    1.500         TR
        6         91.00000          1                    1.500         TR
        7         91.00000          1                    1.500         TR
        8         91.00000          1                    1.500         TR
        9         92.00000          1                    1.500         TR
       10         91.00000          1                    1.500         TR
       11         91.00000          1                    1.500         TR
       12         91.00000          1                    1.500         TR

 TRANSIENT SIMULATION



 
 #MODOFC transient water supply sample problem                                   
 #                                                                               
 THE FREE FORMAT OPTION HAS BEEN SELECTED



                     BOUNDARY ARRAY FOR LAYER   1
 READING ON UNIT   12 WITH FORMAT: (20I4)              

 AQUIFER HEAD WILL BE SET TO   0.0000     AT ALL NO-FLOW NODES (IBOUND=0).



                       INITIAL HEAD FOR LAYER   1
 READING ON UNIT   12 WITH FORMAT: (10F13.0)           

 OUTPUT CONTROL IS SPECIFIED ONLY AT TIME STEPS FOR WHICH OUTPUT IS DESIRED
 COMPACT CELL-BY-CELL BUDGET FILES WILL BE WRITTEN
 HEAD PRINT FORMAT CODE IS  18    DRAWDOWN PRINT FORMAT CODE IS   0
 HEADS WILL BE SAVED ON UNIT   51    DRAWDOWNS WILL BE SAVED ON UNIT    0

 BCF -- BLOCK-CENTERED FLOW PACKAGE, VERSION 7, 5/2/2005
         INPUT READ FROM UNIT 13
 TRANSIENT SIMULATION
 HEAD AT CELLS THAT CONVERT TO DRY=   0.0000    
 WETTING CAPABILITY IS NOT ACTIVE
      LAYER  LAYER-TYPE CODE     INTERBLOCK T
      --------------------------------------------
         1            0          0 -- HARMONIC    

 COLUMN TO ROW ANISOTROPY =  1.000000    

     PRIMARY STORAGE COEF =  5.000000E-02 FOR LAYER   1



               TRANSMIS. ALONG ROWS FOR LAYER   1
 READING ON UNIT   13 WITH FORMAT: (FREE)              

 WEL -- WELL PACKAGE, VERSION 7, 5/2/2005 INPUT READ FROM UNIT   19
 # Well package input file written by MMProc
 No named parameters
 MAXIMUM OF      4 ACTIVE WELLS AT ONE TIME


     0 Well parameters

 RCH -- RECHARGE PACKAGE, VERSION 7, 5/2/2005 INPUT READ FROM UNIT   15
 No named parameters
 OPTION 1 -- RECHARGE TO TOP LAYER


     0 Recharge parameters

 SFR7 -- STREAMFLOW ROUTING PACKAGE, VERSION 1.0.7, 2013-01-15
         INPUT READ FROM UNIT  16
 #  Supply2 test problem for GWM-VI
 #  The eighth entry in the first data line is ISTCB2 -
 #    Setting this to a negative number indicates that
 #    streamflows out of the reach will be saved to a
 #    binary file.  The absolute value of ISTCB2 is the
 #    unit to which unformatted flows will be written.
 #
 No named parameters
 Segment information will not be 
 read by reach
 No named parameters
 No specifed inflow files


 NUMBER OF STREAM REACHES IS   40

 NUMBER OF STREAM SEGMENTS IS    3

 NUMBER OF STREAM PARAMETERS IS    0

 NUMBER OF STREAM SEGMENTS DEFINED USING PARAMETERS IS              0

 MAXIMUM ERROR FOR STREAM LEAKAGE RATES IS  1.00E-04

 CONSTANT FOR MANNINGS EQUATION IS  1.2839E+05





   STREAM NETWORK DESCRIPTION: 

   LAYER    ROW    COL   SEGMENT   REACH     LENGTH
                          NUMBER   NUMBER    IN CELL        
   --------------------------------------------------
      1     13      1       1        1    2.0000E+02
      1     13      2       1        2    2.0000E+02
      1     14      3       1        3    2.0000E+02
      1     15      4       1        4    2.0000E+02
      1     16      5       1        5    2.0000E+02
      1     16      6       1        6    2.0000E+02
      1     16      7       1        7    2.0000E+02
      1     16      8       1        8    2.0000E+02
      1     16      9       1        9    2.0000E+02
      1     16     10       1       10    2.0000E+02
      1     16     11       1       11    2.0000E+02
      1     16     12       1       12    2.0000E+02
      1     15     13       1       13    2.0000E+02
      1     14     14       1       14    2.0000E+02
      1     13     15       1       15    2.0000E+02
      1     12     16       1       16    2.0000E+02
      1     12     17       1       17    2.0000E+02
      1     12     18       1       18    2.0000E+02
      1     12     19       1       19    2.0000E+02
      1     13     20       1       20    2.0000E+02
      1     14     21       1       21    2.0000E+02
      1     14     22       1       22    2.0000E+02
      1      9     30       2        1    2.0000E+02
      1      9     29       2        2    2.0000E+02
      1      9     28       2        3    2.0000E+02
      1      9     27       2        4    2.0000E+02
      1     10     26       2        5    2.0000E+02
      1     11     25       2        6    2.0000E+02
      1     12     24       2        7    2.0000E+02
      1     13     23       2        8    2.0000E+02
      1     14     22       2        9    2.0000E+02
      1     14     22       3        1    2.0000E+02
      1     15     23       3        2    2.0000E+02
      1     15     24       3        3    2.0000E+02
      1     15     25       3        4    2.0000E+02
      1     15     26       3        5    2.0000E+02
      1     16     27       3        6    2.0000E+02
      1     17     28       3        7    2.0000E+02
      1     18     29       3        8    2.0000E+02
      1     18     30       3        9    2.0000E+02




 PCG -- CONJUGATE-GRADIENT SOLUTION PACKAGE, VERSION 7, 5/2/2005
 MAXIMUM OF    500 CALLS OF SOLUTION ROUTINE
 MAXIMUM OF      5 INTERNAL ITERATIONS PER CALL TO SOLUTION ROUTINE
 MATRIX PRECONDITIONING TYPE :    1



                                    SOLUTION BY THE CONJUGATE-GRADIENT METHOD
                                   -------------------------------------------
                    MAXIMUM NUMBER OF CALLS TO PCG ROUTINE =      500
                        MAXIMUM ITERATIONS PER CALL TO PCG =        5
                               MATRIX PRECONDITIONING TYPE =        1
        RELAXATION FACTOR (ONLY USED WITH PRECOND. TYPE 1) =    0.10000E+01
 PARAMETER OF POLYNOMIAL PRECOND. = 2 (2) OR IS CALCULATED :        0
                         HEAD CHANGE CRITERION FOR CLOSURE =    0.10000E-05
                     RESIDUAL CHANGE CRITERION FOR CLOSURE =    0.10000E+01
            PCG HEAD AND RESIDUAL CHANGE PRINTOUT INTERVAL =        1
     PRINTING FROM SOLVER IS LIMITED(1) OR SUPPRESSED (>1) =        1
                            STEADY-STATE DAMPING PARAMETER =    0.10000E+01
                               TRANSIENT DAMPING PARAMETER =    0.10000E+01
1
                            STRESS PERIOD NO.    1, LENGTH =   92.00000    
                            -----------------------------------------------

                              NUMBER OF TIME STEPS =     1

                               MULTIPLIER FOR DELT =     1.500

                            INITIAL TIME STEP SIZE =   92.00000    

 WELL NO.  LAYER   ROW   COL   STRESS RATE         
 --------------------------------------------------
      1      1     14     20     -0.1515E+05
      2      1      9      8      -2025.    
      3      1     13     19      -5167.    
      4      1     12     27      -9107.    

      4 WELLS

                 RECHARGE =  5.000000E-04



 CLASSIFICATION & COUNT OF STREAM SEGMENTS BASED ON SOURCE OF INFLOW:

                HEADWATER     DIVERSION     RECEIVES TRIBUTARY FLOW
                ---------     ---------     -----------------------
                     2              0               1



                    INPUT DATA FOR EACH STREAM SEGMENT
 ---------------------------------------------------------------------------------------------

 SEGMENT    SEG.     INFLOW   OVERLAND   STREAM    STREAM   ICALC  OUTFLOW  DIVERSION PRIORITY
    NO.    LENGTH     RATE     RUNOFF      ET       PPT.    METH.  TO SEG.  FROM SEG.    NO.

      1  4.400E+03 1.000E+05 0.000E+00 0.000E+00 0.000E+00    1        3        0        0
      2  1.800E+03 5.000E+04 0.000E+00 0.000E+00 0.000E+00    1        3        0        0
      3  1.800E+03 0.000E+00 0.000E+00 0.000E+00 0.000E+00    1        0        0        0


         STREAMBED PROPERTIES AND STREAM DIMENSIONS

 SEGMENT     BED HYD. COND.      BED THICKNESS     ELEV.-TOP OF BED     WIDTH OF STREAM     DEPTH OF STREAM    STREAM ROUGHNESS
    No.     UPPER     LOWER     UPPER     LOWER     UPPER     LOWER     UPPER     LOWER     UPPER     LOWER   CHANNEL      BANK

     1  5.000E+00 5.000E+00 1.000E+00 1.000E+00 4.850E+01 3.800E+01 2.000E+01 2.000E+01                     5.000E-02
     2  5.000E+00 5.000E+00 1.000E+00 1.000E+00 4.025E+01 3.800E+01 2.000E+01 2.000E+01                     5.000E-02
     3  5.000E+00 5.000E+00 1.000E+00 1.000E+00 3.800E+01 3.000E+01 2.000E+01 2.000E+01                     5.000E-02



 
 SOLVING FOR HEAD 


     9 CALLS TO PCG ROUTINE FOR TIME STEP   1 IN STRESS PERIOD    1
    36 TOTAL ITERATIONS

 OUTPUT CONTROL FOR STRESS PERIOD    1   TIME STEP    1
    SAVE BUDGET
    SAVE HEAD FOR ALL LAYERS
    PRINT HEAD FOR ALL LAYERS
 UBDSV2 SAVING "STREAMFLOW OUT  " ON UNIT  50 AT TIME STEP  1, STRESS PERIOD   1



 STREAM LISTING     PERIOD      1   STEP        1

 LAYER ROW COL. STREAM  RCH.  FLOW INTO     FLOW TO   FLOW OUT OF   OVRLND.     DIRECT     STREAM       STREAM     STREAM     STREAM   STREAMBED  STREAMBED
                SEG.NO.  NO.  STRM. RCH.    AQUIFER    STRM. RCH.    RUNOFF     PRECIP       ET          HEAD       DEPTH      WIDTH   CONDCTNC.   GRADIENT

   1   13    1     1     1    1.0000E+05 -6.1029E+03   1.0610E+05  0.000E+00  0.000E+00  0.000E+00  4.84086E+01  1.473E-01  2.000E+01  2.000E+04 -3.051E-01
   1   13    2     1     2    1.0610E+05 -7.5703E+03   1.1367E+05  0.000E+00  0.000E+00  0.000E+00  4.79372E+01  1.531E-01  2.000E+01  2.000E+04 -3.785E-01
   1   14    3     1     3    1.1367E+05 -2.1967E+03   1.1587E+05  0.000E+00  0.000E+00  0.000E+00  4.74639E+01  1.571E-01  2.000E+01  2.000E+04 -1.098E-01
   1   15    4     1     4    1.1587E+05 -2.2685E+03   1.1814E+05  0.000E+00  0.000E+00  0.000E+00  4.69885E+01  1.589E-01  2.000E+01  2.000E+04 -1.134E-01
   1   16    5     1     5    1.1814E+05 -7.1822E+03   1.2532E+05  0.000E+00  0.000E+00  0.000E+00  4.65150E+01  1.628E-01  2.000E+01  2.000E+04 -3.591E-01
   1   16    6     1     6    1.2532E+05 -4.3002E+03   1.2962E+05  0.000E+00  0.000E+00  0.000E+00  4.60423E+01  1.673E-01  2.000E+01  2.000E+04 -2.150E-01
   1   16    7     1     7    1.2962E+05 -4.1338E+03   1.3375E+05  0.000E+00  0.000E+00  0.000E+00  4.55684E+01  1.706E-01  2.000E+01  2.000E+04 -2.067E-01
   1   16    8     1     8    1.3375E+05 -4.0915E+03   1.3785E+05  0.000E+00  0.000E+00  0.000E+00  4.50943E+01  1.738E-01  2.000E+01  2.000E+04 -2.046E-01
   1   16    9     1     9    1.3785E+05 -4.0790E+03   1.4193E+05  0.000E+00  0.000E+00  0.000E+00  4.46201E+01  1.769E-01  2.000E+01  2.000E+04 -2.040E-01
   1   16   10     1    10    1.4193E+05 -4.0732E+03   1.4600E+05  0.000E+00  0.000E+00  0.000E+00  4.41459E+01  1.800E-01  2.000E+01  2.000E+04 -2.037E-01
   1   16   11     1    11    1.4600E+05 -4.1009E+03   1.5010E+05  0.000E+00  0.000E+00  0.000E+00  4.36717E+01  1.830E-01  2.000E+01  2.000E+04 -2.050E-01
   1   16   12     1    12    1.5010E+05 -6.9231E+03   1.5702E+05  0.000E+00  0.000E+00  0.000E+00  4.31985E+01  1.871E-01  2.000E+01  2.000E+04 -3.462E-01
   1   15   13     1    13    1.5702E+05 -7.1952E+03   1.6422E+05  0.000E+00  0.000E+00  0.000E+00  4.27263E+01  1.922E-01  2.000E+01  2.000E+04 -3.598E-01
   1   14   14     1    14    1.6422E+05 -7.6065E+03   1.7182E+05  0.000E+00  0.000E+00  0.000E+00  4.22543E+01  1.975E-01  2.000E+01  2.000E+04 -3.803E-01
   1   13   15     1    15    1.7182E+05 -7.8466E+03   1.7967E+05  0.000E+00  0.000E+00  0.000E+00  4.17824E+01  2.029E-01  2.000E+01  2.000E+04 -3.923E-01
   1   12   16     1    16    1.7967E+05 -8.6491E+03   1.8832E+05  0.000E+00  0.000E+00  0.000E+00  4.13108E+01  2.085E-01  2.000E+01  2.000E+04 -4.325E-01
   1   12   17     1    17    1.8832E+05 -5.8415E+03   1.9416E+05  0.000E+00  0.000E+00  0.000E+00  4.08384E+01  2.134E-01  2.000E+01  2.000E+04 -2.921E-01
   1   12   18     1    18    1.9416E+05 -5.1783E+03   1.9934E+05  0.000E+00  0.000E+00  0.000E+00  4.03648E+01  2.171E-01  2.000E+01  2.000E+04 -2.589E-01
   1   12   19     1    19    1.9934E+05 -5.6348E+03   2.0497E+05  0.000E+00  0.000E+00  0.000E+00  3.98911E+01  2.207E-01  2.000E+01  2.000E+04 -2.817E-01
   1   13   20     1    20    2.0497E+05 -1.6442E+02   2.0514E+05  0.000E+00  0.000E+00  0.000E+00  3.94157E+01  2.226E-01  2.000E+01  2.000E+04 -8.221E-03
   1   14   21     1    21    2.0514E+05 -1.0056E+03   2.0614E+05  0.000E+00  0.000E+00  0.000E+00  3.89389E+01  2.229E-01  2.000E+01  2.000E+04 -5.028E-02
   1   14   22     1    22    2.0614E+05  3.8219E+03   2.0232E+05  0.000E+00  0.000E+00  0.000E+00  3.84607E+01  2.220E-01  2.000E+01  2.000E+04  1.911E-01
   1    9   30     2     1    5.0000E+04 -4.3966E+03   5.4397E+04  0.000E+00  0.000E+00  0.000E+00  4.02439E+01  1.189E-01  2.000E+01  2.000E+04 -2.198E-01
   1    9   29     2     2    5.4397E+04 -4.6116E+03   5.9008E+04  0.000E+00  0.000E+00  0.000E+00  3.99999E+01  1.249E-01  2.000E+01  2.000E+04 -2.306E-01
   1    9   28     2     3    5.9008E+04 -4.7748E+03   6.3783E+04  0.000E+00  0.000E+00  0.000E+00  3.97561E+01  1.311E-01  2.000E+01  2.000E+04 -2.387E-01
   1    9   27     2     4    6.3783E+04 -7.6283E+03   7.1411E+04  0.000E+00  0.000E+00  0.000E+00  3.95138E+01  1.388E-01  2.000E+01  2.000E+04 -3.814E-01
   1   10   26     2     5    7.1411E+04 -5.6969E+03   7.7108E+04  0.000E+00  0.000E+00  0.000E+00  3.92719E+01  1.469E-01  2.000E+01  2.000E+04 -2.848E-01
   1   11   25     2     6    7.7108E+04 -5.1152E+03   8.2223E+04  0.000E+00  0.000E+00  0.000E+00  3.90282E+01  1.532E-01  2.000E+01  2.000E+04 -2.558E-01
   1   12   24     2     7    8.2223E+04 -5.5688E+03   8.7792E+04  0.000E+00  0.000E+00  0.000E+00  3.87843E+01  1.593E-01  2.000E+01  2.000E+04 -2.784E-01
   1   13   23     2     8    8.7792E+04 -1.6271E+03   8.9419E+04  0.000E+00  0.000E+00  0.000E+00  3.85383E+01  1.633E-01  2.000E+01  2.000E+04 -8.136E-02
   1   14   22     2     9    8.9419E+04  3.8881E+02   8.9031E+04  0.000E+00  0.000E+00  0.000E+00  3.82890E+01  1.640E-01  2.000E+01  2.000E+04  1.944E-02
   1   14   22     3     1    2.9135E+05 -9.6748E+03   3.0103E+05  0.000E+00  0.000E+00  0.000E+00  3.77858E+01  2.303E-01  2.000E+01  2.000E+04 -4.837E-01
   1   15   23     3     2    3.0103E+05 -1.8756E+03   3.0290E+05  0.000E+00  0.000E+00  0.000E+00  3.68996E+01  2.330E-01  2.000E+01  2.000E+04 -9.378E-02
   1   15   24     3     3    3.0290E+05 -1.5090E+03   3.0441E+05  0.000E+00  0.000E+00  0.000E+00  3.60115E+01  2.337E-01  2.000E+01  2.000E+04 -7.545E-02
   1   15   25     3     4    3.0441E+05 -1.5456E+03   3.0596E+05  0.000E+00  0.000E+00  0.000E+00  3.51233E+01  2.344E-01  2.000E+01  2.000E+04 -7.728E-02
   1   15   26     3     5    3.0596E+05 -1.7807E+03   3.0774E+05  0.000E+00  0.000E+00  0.000E+00  3.42352E+01  2.352E-01  2.000E+01  2.000E+04 -8.903E-02
   1   16   27     3     6    3.0774E+05 -2.0680E+03   3.0981E+05  0.000E+00  0.000E+00  0.000E+00  3.33472E+01  2.361E-01  2.000E+01  2.000E+04 -1.034E-01
   1   17   28     3     7    3.0981E+05 -6.1696E+03   3.1598E+05  0.000E+00  0.000E+00  0.000E+00  3.24602E+01  2.380E-01  2.000E+01  2.000E+04 -3.085E-01
   1   18   29     3     8    3.1598E+05 -7.8504E+03   3.2383E+05  0.000E+00  0.000E+00  0.000E+00  3.15745E+01  2.412E-01  2.000E+01  2.000E+04 -3.925E-01
   1   18   30     3     9    3.2383E+05 -7.0097E+03   3.3084E+05  0.000E+00  0.000E+00  0.000E+00  3.06890E+01  2.445E-01  2.000E+01  2.000E+04 -3.505E-01



1
              HEAD IN LAYER   1 AT END OF TIME STEP   1 IN STRESS PERIOD    1
  ---------------------------------------------------------------------------

          1      2      3      4      5      6      7      8      9     10
         11     12     13     14     15     16     17     18     19     20
         21     22     23     24     25     26     27     28     29     30
 .........................................................................
   1  ****** ****** ****** ****** ****** ****** ****** ****** ****** ******
      ****** ****** ****** ****** ****** ****** ****** ****** ****** ******
      ****** ****** ****** ****** ****** ****** ****** ****** ****** ******
   2  ****** ****** ****** ****** ****** ****** ****** ****** ****** ******
      ****** ****** ****** ****** ****** ****** ****** ****** ****** ******
      ****** ****** ****** ****** ****** ****** ****** ****** ****** ******
   3  ****** ****** ****** ****** ****** ****** ****** ****** ****** ******
      ****** ****** ****** ****** ****** ****** ****** ****** ****** ******
      ****** ****** ****** ****** ****** ****** ****** ****** ****** ******
   4  ****** ****** ****** ****** ****** ****** ****** ****** ****** ******
      ****** ****** ****** ****** ****** ****** ****** ****** ****** ******
      ****** ****** ****** ****** ****** ****** ****** ****** ****** ******
   5  ****** ****** ****** ****** ****** ****** ****** ****** ****** ******
      ****** ****** ****** ****** ****** ****** ****** ****** ****** ******
      ****** ****** ****** ****** ****** ****** ****** ****** ****** ******
   6  ****** ****** ****** ****** ****** ****** ****** ****** ****** ******
      ****** ****** ****** ****** ****** ****** ****** ****** ****** ******
      ****** ****** ****** ****** ****** ****** ****** ****** ****** ******
   7  ****** ****** ****** ****** ****** ****** ****** ****** ****** ******
      ****** ****** ****** ****** ****** ****** ****** ****** ****** ******
      ****** ****** ****** ****** ****** ****** ****** ****** ****** ******
   8  ****** ****** ****** ****** ****** ****** ****** ****** ****** ******
      ****** ****** ****** ****** ****** ****** ****** ****** ****** ******
      ****** ****** ****** ****** ****** ****** ****** ****** ****** ******
   9  ****** ****** ****** ****** ****** ****** ****** ****** ****** ******
      ****** ****** ****** ****** ****** ****** ****** ****** ****** ******
      ****** ****** ****** ****** ****** ****** ****** ****** ****** ******
  10  ****** ****** ****** ****** ****** ****** ****** ****** ****** ******
      ****** ****** ****** ****** ****** ****** ****** ****** ****** ******
      ****** ****** ****** ****** ****** ****** ****** ****** ****** ******
  11  ****** ****** ****** ****** ****** ****** ****** ****** ****** ******
      ****** ****** ****** ****** ****** ****** ****** ****** ****** ******
      ****** ****** ****** ****** ****** ****** ****** ****** ****** ******
  12  ****** ****** ****** ****** ****** ****** ****** ****** ****** ******
      ****** ****** ****** ****** ****** ****** ****** ****** ****** ******
      ****** ****** ****** ****** ****** ****** ****** ****** ****** ******
  13  ****** ****** ****** ****** ****** ****** ****** ****** ****** ******
      ****** ****** ****** ****** ****** ****** ****** ****** ****** ******
      ****** ****** ****** ****** ****** ****** ****** ****** ****** ******
  14  ****** ****** ****** ****** ****** ****** ****** ****** ****** ******
      ****** ****** ****** ****** ****** ****** ****** ****** ****** ******
      ****** ****** ****** ****** ****** ****** ****** ****** ****** ******
  15  ****** ****** ****** ****** ****** ****** ****** ****** ****** ******
      ****** ****** ****** ****** ****** ****** ****** ****** ****** ******
      ****** ****** ****** ****** ****** ****** ****** ****** ****** ******
  16  ****** ****** ****** ****** ****** ****** ****** ****** ****** ******
      ****** ****** ****** ****** ****** ****** ****** ****** ****** ******
      ****** ****** ****** ****** ****** ****** ****** ****** ****** ******
  17  ****** ****** ****** ****** ****** ****** ****** ****** ****** ******
      ****** ****** ****** ****** ****** ****** ****** ****** ****** ******
      ****** ****** ****** ****** ****** ****** ****** ****** ****** ******
  18  ****** ****** ****** ****** ****** ****** ****** ****** ****** ******
      ****** ****** ****** ****** ****** ****** ****** ****** ****** ******
      ****** ****** ****** ****** ****** ****** ****** ****** ****** ******
  19  ****** ****** ****** ****** ****** ****** ****** ****** ****** ******
      ****** ****** ****** ****** ****** ****** ****** ****** ****** ******
      ****** ****** ****** ****** ****** ****** ****** ****** ****** ******
  20  ****** ****** ****** ****** ****** ****** ****** ****** ****** ******
      ****** ****** ****** ****** ****** ****** ****** ****** ****** ******
      ****** ****** ****** ****** ****** ****** ****** ****** ****** ******
  21  ****** ****** ****** ****** ****** ****** ****** ****** ****** ******
      ****** ****** ****** ****** ****** ****** ****** ****** ****** ******
      ****** ****** ****** ****** ****** ****** ****** ****** ****** ******
  22  ****** ****** ****** ****** ****** ****** ****** ****** ****** ******
      ****** ****** ****** ****** ****** ****** ****** ****** ****** ******
      ****** ****** ****** ****** ****** ****** ****** ****** ****** ******
  23  ****** ****** ****** ****** ****** ****** ****** ****** ****** ******
      ****** ****** ****** ****** ****** ****** ****** ****** ****** ******
      ****** ****** ****** ****** ****** ****** ****** ****** ****** ******
  24  ****** ****** ****** ****** ****** ****** ****** ****** ****** ******
      ****** ****** ****** ****** ****** ****** ****** ****** ****** ******
      ****** ****** ****** ****** ****** ****** ****** ****** ****** ******
  25  ****** ****** ****** ****** ****** ****** ****** ****** ****** ******
      ****** ****** ****** ****** ****** ****** ****** ****** ****** ******
      ****** ****** ****** ****** ****** ****** ****** ****** ****** ******

 HEAD WILL BE SAVED ON UNIT   51 AT END OF TIME STEP    1, STRESS PERIOD    1
1
  VOLUMETRIC BUDGET FOR ENTIRE MODEL AT END OF TIME STEP    1, STRESS PERIOD   1
  ------------------------------------------------------------------------------

     CUMULATIVE VOLUMES      L**3       RATES FOR THIS TIME STEP      L**3/T
     ------------------                 ------------------------

           IN:                                      IN:
           ---                                      ---
             STORAGE =    17161268.8714               STORAGE =      186535.5312
       CONSTANT HEAD =     1099497.7985         CONSTANT HEAD =       11951.0630
               WELLS =           0.0000                 WELLS =           0.0000
            RECHARGE =     1269600.0000              RECHARGE =       13800.0000
      STREAM LEAKAGE =      387382.8456        STREAM LEAKAGE =        4210.6831

            TOTAL IN =    19917749.5155              TOTAL IN =      216497.2773

          OUT:                                     OUT:
          ----                                     ----
             STORAGE =           0.0000               STORAGE =           0.0000
       CONSTANT HEAD =           0.0000         CONSTANT HEAD =           0.0000
               WELLS =     2893413.0422                 WELLS =       31450.1418
            RECHARGE =           0.0000              RECHARGE =           0.0000
      STREAM LEAKAGE =    17024336.7645        STREAM LEAKAGE =      185047.1387

           TOTAL OUT =    19917749.8067             TOTAL OUT =      216497.2805

            IN - OUT =          -0.2912              IN - OUT =      -3.1655E-03

 PERCENT DISCREPANCY =          -0.00     PERCENT DISCREPANCY =          -0.00






         TIME SUMMARY AT END OF TIME STEP    1 IN STRESS PERIOD    1
                    SECONDS     MINUTES      HOURS       DAYS        YEARS
                    -----------------------------------------------------------
   TIME STEP LENGTH 7.94880E+06 1.32480E+05  2208.0      92.000     0.25188    
 STRESS PERIOD TIME 7.94880E+06 1.32480E+05  2208.0      92.000     0.25188    
         TOTAL TIME 7.94880E+06 1.32480E+05  2208.0      92.000     0.25188    
1
1
                            STRESS PERIOD NO.    2, LENGTH =   91.00000    
                            -----------------------------------------------

                              NUMBER OF TIME STEPS =     1

                               MULTIPLIER FOR DELT =     1.500

                            INITIAL TIME STEP SIZE =   91.00000    

 WELL NO.  LAYER   ROW   COL   STRESS RATE         
 --------------------------------------------------
      1      1     14     20     -0.1515E+05
      2      1      9      8      -2025.    
      3      1     13     19      -5167.    
      4      1     12     27      -9107.    

      4 WELLS

                 RECHARGE =  2.000000E-03

 REUSING STREAM SEGMENT DATA FROM LAST STRESS PERIOD
 
 SOLVING FOR HEAD 


     7 CALLS TO PCG ROUTINE FOR TIME STEP   1 IN STRESS PERIOD    2
    27 TOTAL ITERATIONS

 OUTPUT CONTROL FOR STRESS PERIOD    2   TIME STEP    1
    SAVE BUDGET
    SAVE HEAD FOR ALL LAYERS
    PRINT HEAD FOR ALL LAYERS
 UBDSV2 SAVING "STREAMFLOW OUT  " ON UNIT  50 AT TIME STEP  1, STRESS PERIOD   2



 STREAM LISTING     PERIOD      2   STEP        1

 LAYER ROW COL. STREAM  RCH.  FLOW INTO     FLOW TO   FLOW OUT OF   OVRLND.     DIRECT     STREAM       STREAM     STREAM     STREAM   STREAMBED  STREAMBED
                SEG.NO.  NO.  STRM. RCH.    AQUIFER    STRM. RCH.    RUNOFF     PRECIP       ET          HEAD       DEPTH      WIDTH   CONDCTNC.   GRADIENT

   1   13    1     1     1    1.0000E+05 -3.9640E+03   1.0396E+05  0.000E+00  0.000E+00  0.000E+00  4.84077E+01  1.464E-01  2.000E+01  2.000E+04 -1.982E-01
   1   13    2     1     2    1.0396E+05 -5.2201E+03   1.0918E+05  0.000E+00  0.000E+00  0.000E+00  4.79344E+01  1.503E-01  2.000E+01  2.000E+04 -2.610E-01
   1   14    3     1     3    1.0918E+05 -1.1102E+03   1.1029E+05  0.000E+00  0.000E+00  0.000E+00  4.74598E+01  1.529E-01  2.000E+01  2.000E+04 -5.551E-02
   1   15    4     1     4    1.1029E+05 -1.1391E+03   1.1143E+05  0.000E+00  0.000E+00  0.000E+00  4.69834E+01  1.539E-01  2.000E+01  2.000E+04 -5.696E-02
   1   16    5     1     5    1.1143E+05 -4.2479E+03   1.1568E+05  0.000E+00  0.000E+00  0.000E+00  4.65084E+01  1.561E-01  2.000E+01  2.000E+04 -2.124E-01
   1   16    6     1     6    1.1568E+05 -2.5002E+03   1.1818E+05  0.000E+00  0.000E+00  0.000E+00  4.60339E+01  1.589E-01  2.000E+01  2.000E+04 -1.250E-01
   1   16    7     1     7    1.1818E+05 -2.4036E+03   1.2059E+05  0.000E+00  0.000E+00  0.000E+00  4.55586E+01  1.609E-01  2.000E+01  2.000E+04 -1.202E-01
   1   16    8     1     8    1.2059E+05 -2.3721E+03   1.2296E+05  0.000E+00  0.000E+00  0.000E+00  4.50833E+01  1.628E-01  2.000E+01  2.000E+04 -1.186E-01
   1   16    9     1     9    1.2296E+05 -2.3488E+03   1.2531E+05  0.000E+00  0.000E+00  0.000E+00  4.46079E+01  1.647E-01  2.000E+01  2.000E+04 -1.174E-01
   1   16   10     1    10    1.2531E+05 -2.3201E+03   1.2763E+05  0.000E+00  0.000E+00  0.000E+00  4.41324E+01  1.665E-01  2.000E+01  2.000E+04 -1.160E-01
   1   16   11     1    11    1.2763E+05 -2.3154E+03   1.2994E+05  0.000E+00  0.000E+00  0.000E+00  4.36570E+01  1.684E-01  2.000E+01  2.000E+04 -1.158E-01
   1   16   12     1    12    1.2994E+05 -4.0120E+03   1.3395E+05  0.000E+00  0.000E+00  0.000E+00  4.31822E+01  1.708E-01  2.000E+01  2.000E+04 -2.006E-01
   1   15   13     1    13    1.3395E+05 -3.9361E+03   1.3789E+05  0.000E+00  0.000E+00  0.000E+00  4.27080E+01  1.739E-01  2.000E+01  2.000E+04 -1.968E-01
   1   14   14     1    14    1.3789E+05 -4.2251E+03   1.4211E+05  0.000E+00  0.000E+00  0.000E+00  4.22338E+01  1.770E-01  2.000E+01  2.000E+04 -2.113E-01
   1   13   15     1    15    1.4211E+05 -4.4750E+03   1.4659E+05  0.000E+00  0.000E+00  0.000E+00  4.17598E+01  1.803E-01  2.000E+01  2.000E+04 -2.237E-01
   1   12   16     1    16    1.4659E+05 -5.5253E+03   1.5212E+05  0.000E+00  0.000E+00  0.000E+00  4.12863E+01  1.840E-01  2.000E+01  2.000E+04 -2.763E-01
   1   12   17     1    17    1.5212E+05 -3.3321E+03   1.5545E+05  0.000E+00  0.000E+00  0.000E+00  4.08123E+01  1.873E-01  2.000E+01  2.000E+04 -1.666E-01
   1   12   18     1    18    1.5545E+05 -2.6457E+03   1.5809E+05  0.000E+00  0.000E+00  0.000E+00  4.03372E+01  1.894E-01  2.000E+01  2.000E+04 -1.323E-01
   1   12   19     1    19    1.5809E+05 -2.4990E+03   1.6059E+05  0.000E+00  0.000E+00  0.000E+00  3.98618E+01  1.913E-01  2.000E+01  2.000E+04 -1.250E-01
   1   13   20     1    20    1.6059E+05  3.1198E+03   1.5747E+05  0.000E+00  0.000E+00  0.000E+00  3.93843E+01  1.911E-01  2.000E+01  2.000E+04  1.560E-01
   1   14   21     1    21    1.5747E+05  1.9331E+03   1.5554E+05  0.000E+00  0.000E+00  0.000E+00  3.89052E+01  1.893E-01  2.000E+01  2.000E+04  9.666E-02
   1   14   22     1    22    1.5554E+05  4.6018E+03   1.5094E+05  0.000E+00  0.000E+00  0.000E+00  3.84255E+01  1.869E-01  2.000E+01  2.000E+04  2.301E-01
   1    9   30     2     1    5.0000E+04 -1.5766E+03   5.1577E+04  0.000E+00  0.000E+00  0.000E+00  4.02420E+01  1.170E-01  2.000E+01  2.000E+04 -7.883E-02
   1    9   29     2     2    5.1577E+04 -1.8051E+03   5.3382E+04  0.000E+00  0.000E+00  0.000E+00  3.99943E+01  1.193E-01  2.000E+01  2.000E+04 -9.025E-02
   1    9   28     2     3    5.3382E+04 -1.9931E+03   5.5375E+04  0.000E+00  0.000E+00  0.000E+00  3.97469E+01  1.219E-01  2.000E+01  2.000E+04 -9.965E-02
   1    9   27     2     4    5.5375E+04 -4.1239E+03   5.9499E+04  0.000E+00  0.000E+00  0.000E+00  3.95009E+01  1.259E-01  2.000E+01  2.000E+04 -2.062E-01
   1   10   26     2     5    5.9499E+04 -1.9430E+03   6.1442E+04  0.000E+00  0.000E+00  0.000E+00  3.92549E+01  1.299E-01  2.000E+01  2.000E+04 -9.715E-02
   1   11   25     2     6    6.1442E+04 -1.5187E+03   6.2960E+04  0.000E+00  0.000E+00  0.000E+00  3.90071E+01  1.321E-01  2.000E+01  2.000E+04 -7.594E-02
   1   12   24     2     7    6.2960E+04 -2.4277E+03   6.5388E+04  0.000E+00  0.000E+00  0.000E+00  3.87596E+01  1.346E-01  2.000E+01  2.000E+04 -1.214E-01
   1   13   23     2     8    6.5388E+04 -5.8383E+02   6.5972E+04  0.000E+00  0.000E+00  0.000E+00  3.85115E+01  1.365E-01  2.000E+01  2.000E+04 -2.919E-02
   1   14   22     2     9    6.5972E+04  1.3120E+03   6.4660E+04  0.000E+00  0.000E+00  0.000E+00  3.82610E+01  1.360E-01  2.000E+01  2.000E+04  6.560E-02
   1   14   22     3     1    2.1560E+05 -8.9436E+03   2.2454E+05  0.000E+00  0.000E+00  0.000E+00  3.77482E+01  1.927E-01  2.000E+01  2.000E+04 -4.472E-01
   1   15   23     3     2    2.2454E+05 -9.0953E+02   2.2545E+05  0.000E+00  0.000E+00  0.000E+00  3.68619E+01  1.953E-01  2.000E+01  2.000E+04 -4.548E-02
   1   15   24     3     3    2.2545E+05 -6.3086E+02   2.2608E+05  0.000E+00  0.000E+00  0.000E+00  3.59734E+01  1.957E-01  2.000E+01  2.000E+04 -3.154E-02
   1   15   25     3     4    2.2608E+05 -6.1891E+02   2.2670E+05  0.000E+00  0.000E+00  0.000E+00  3.50849E+01  1.960E-01  2.000E+01  2.000E+04 -3.095E-02
   1   15   26     3     5    2.2670E+05 -6.2617E+02   2.2733E+05  0.000E+00  0.000E+00  0.000E+00  3.41963E+01  1.963E-01  2.000E+01  2.000E+04 -3.131E-02
   1   16   27     3     6    2.2733E+05 -7.6178E+02   2.2809E+05  0.000E+00  0.000E+00  0.000E+00  3.33078E+01  1.967E-01  2.000E+01  2.000E+04 -3.809E-02
   1   17   28     3     7    2.2809E+05 -2.6872E+03   2.3078E+05  0.000E+00  0.000E+00  0.000E+00  3.24198E+01  1.976E-01  2.000E+01  2.000E+04 -1.344E-01
   1   18   29     3     8    2.3078E+05 -4.8395E+03   2.3561E+05  0.000E+00  0.000E+00  0.000E+00  3.15328E+01  1.995E-01  2.000E+01  2.000E+04 -2.420E-01
   1   18   30     3     9    2.3561E+05 -4.4442E+03   2.4006E+05  0.000E+00  0.000E+00  0.000E+00  3.06463E+01  2.019E-01  2.000E+01  2.000E+04 -2.222E-01



1
              HEAD IN LAYER   1 AT END OF TIME STEP   1 IN STRESS PERIOD    2
  ---------------------------------------------------------------------------

          1      2      3      4      5      6      7      8      9     10
         11     12     13     14     15     16     17     18     19     20
         21     22     23     24     25     26     27     28     29     30
 .........................................................................
   1  ****** ****** ****** ****** ****** ****** ****** ****** ****** ******
      ****** ****** ****** ****** ****** ****** ****** ****** ****** ******
      ****** ****** ****** ****** ****** ****** ****** ****** ****** ******
   2  ****** ****** ****** ****** ****** ****** ****** ****** ****** ******
      ****** ****** ****** ****** ****** ****** ****** ****** ****** ******
      ****** ****** ****** ****** ****** ****** ****** ****** ****** ******
   3  ****** ****** ****** ****** ****** ****** ****** ****** ****** ******
      ****** ****** ****** ****** ****** ****** ****** ****** ****** ******
      ****** ****** ****** ****** ****** ****** ****** ****** ****** ******
   4  ****** ****** ****** ****** ****** ****** ****** ****** ****** ******
      ****** ****** ****** ****** ****** ****** ****** ****** ****** ******
      ****** ****** ****** ****** ****** ****** ****** ****** ****** ******
   5  ****** ****** ****** ****** ****** ****** ****** ****** ****** ******
      ****** ****** ****** ****** ****** ****** ****** ****** ****** ******
      ****** ****** ****** ****** ****** ****** ****** ****** ****** ******
   6  ****** ****** ****** ****** ****** ****** ****** ****** ****** ******
      ****** ****** ****** ****** ****** ****** ****** ****** ****** ******
      ****** ****** ****** ****** ****** ****** ****** ****** ****** ******
   7  ****** ****** ****** ****** ****** ****** ****** ****** ****** ******
      ****** ****** ****** ****** ****** ****** ****** ****** ****** ******
      ****** ****** ****** ****** ****** ****** ****** ****** ****** ******
   8  ****** ****** ****** ****** ****** ****** ****** ****** ****** ******
      ****** ****** ****** ****** ****** ****** ****** ****** ****** ******
      ****** ****** ****** ****** ****** ****** ****** ****** ****** ******
   9  ****** ****** ****** ****** ****** ****** ****** ****** ****** ******
      ****** ****** ****** ****** ****** ****** ****** ****** ****** ******
      ****** ****** ****** ****** ****** ****** ****** ****** ****** ******
  10  ****** ****** ****** ****** ****** ****** ****** ****** ****** ******
      ****** ****** ****** ****** ****** ****** ****** ****** ****** ******
      ****** ****** ****** ****** ****** ****** ****** ****** ****** ******
  11  ****** ****** ****** ****** ****** ****** ****** ****** ****** ******
      ****** ****** ****** ****** ****** ****** ****** ****** ****** ******
      ****** ****** ****** ****** ****** ****** ****** ****** ****** ******
  12  ****** ****** ****** ****** ****** ****** ****** ****** ****** ******
      ****** ****** ****** ****** ****** ****** ****** ****** ****** ******
      ****** ****** ****** ****** ****** ****** ****** ****** ****** ******
  13  ****** ****** ****** ****** ****** ****** ****** ****** ****** ******
      ****** ****** ****** ****** ****** ****** ****** ****** ****** ******
      ****** ****** ****** ****** ****** ****** ****** ****** ****** ******
  14  ****** ****** ****** ****** ****** ****** ****** ****** ****** ******
      ****** ****** ****** ****** ****** ****** ****** ****** ****** ******
      ****** ****** ****** ****** ****** ****** ****** ****** ****** ******
  15  ****** ****** ****** ****** ****** ****** ****** ****** ****** ******
      ****** ****** ****** ****** ****** ****** ****** ****** ****** ******
      ****** ****** ****** ****** ****** ****** ****** ****** ****** ******
  16  ****** ****** ****** ****** ****** ****** ****** ****** ****** ******
      ****** ****** ****** ****** ****** ****** ****** ****** ****** ******
      ****** ****** ****** ****** ****** ****** ****** ****** ****** ******
  17  ****** ****** ****** ****** ****** ****** ****** ****** ****** ******
      ****** ****** ****** ****** ****** ****** ****** ****** ****** ******
      ****** ****** ****** ****** ****** ****** ****** ****** ****** ******
  18  ****** ****** ****** ****** ****** ****** ****** ****** ****** ******
      ****** ****** ****** ****** ****** ****** ****** ****** ****** ******
      ****** ****** ****** ****** ****** ****** ****** ****** ****** ******
  19  ****** ****** ****** ****** ****** ****** ****** ****** ****** ******
      ****** ****** ****** ****** ****** ****** ****** ****** ****** ******
      ****** ****** ****** ****** ****** ****** ****** ****** ****** ******
  20  ****** ****** ****** ****** ****** ****** ****** ****** ****** ******
      ****** ****** ****** ****** ****** ****** ****** ****** ****** ******
      ****** ****** ****** ****** ****** ****** ****** ****** ****** ******
  21  ****** ****** ****** ****** ****** ****** ****** ****** ****** ******
      ****** ****** ****** ****** ****** ****** ****** ****** ****** ******
      ****** ****** ****** ****** ****** ****** ****** ****** ****** ******
  22  ****** ****** ****** ****** ****** ****** ****** ****** ****** ******
      ****** ****** ****** ****** ****** ****** ****** ****** ****** ******
      ****** ****** ****** ****** ****** ****** ****** ****** ****** ******
  23  ****** ****** ****** ****** ****** ****** ****** ****** ****** ******
      ****** ****** ****** ****** ****** ****** ****** ****** ****** ******
      ****** ****** ****** ****** ****** ****** ****** ****** ****** ******
  24  ****** ****** ****** ****** ****** ****** ****** ****** ****** ******
      ****** ****** ****** ****** ****** ****** ****** ****** ****** ******
      ****** ****** ****** ****** ****** ****** ****** ****** ****** ******
  25  ****** ****** ****** ****** ****** ****** ****** ****** ****** ******
      ****** ****** ****** ****** ****** ****** ****** ****** ****** ******
      ****** ****** ****** ****** ****** ****** ****** ****** ****** ******

 HEAD WILL BE SAVED ON UNIT   51 AT END OF TIME STEP    1, STRESS PERIOD    2
1
  VOLUMETRIC BUDGET FOR ENTIRE MODEL AT END OF TIME STEP    1, STRESS PERIOD   2
  ------------------------------------------------------------------------------

     CUMULATIVE VOLUMES      L**3       RATES FOR THIS TIME STEP      L**3/T
     ------------------                 ------------------------

           IN:                                      IN:
           ---                                      ---
             STORAGE =    21744918.8525               STORAGE =       50369.7800
       CONSTANT HEAD =     2549963.5062         CONSTANT HEAD =       15939.1836
               WELLS =           0.0000                 WELLS =           0.0000
            RECHARGE =     6292800.0000              RECHARGE =       55200.0000
      STREAM LEAKAGE =     1385354.3894        STREAM LEAKAGE =       10966.7203

            TOTAL IN =    31973036.7481              TOTAL IN =      132475.6839

          OUT:                                     OUT:
          ----                                     ----
             STORAGE =           0.0000               STORAGE =           0.0000
       CONSTANT HEAD =           0.0000         CONSTANT HEAD =           0.0000
               WELLS =     5755375.9426                 WELLS =       31450.1418
            RECHARGE =           0.0000              RECHARGE =           0.0000
      STREAM LEAKAGE =    26217662.0365        STREAM LEAKAGE =      101025.5524

           TOTAL OUT =    31973037.9791             TOTAL OUT =      132475.6942

            IN - OUT =          -1.2310              IN - OUT =      -1.0328E-02

 PERCENT DISCREPANCY =          -0.00     PERCENT DISCREPANCY =          -0.00






         TIME SUMMARY AT END OF TIME STEP    1 IN STRESS PERIOD    2
                    SECONDS     MINUTES      HOURS       DAYS        YEARS
                    -----------------------------------------------------------
   TIME STEP LENGTH 7.86240E+06 1.31040E+05  2184.0      91.000     0.24914    
 STRESS PERIOD TIME 7.86240E+06 1.31040E+05  2184.0      91.000     0.24914    
         TOTAL TIME 1.58112E+07 2.63520E+05  4392.0      183.00     0.50103    
1
1
                            STRESS PERIOD NO.    3, LENGTH =   91.00000    
                            -----------------------------------------------

                              NUMBER OF TIME STEPS =     1

                               MULTIPLIER FOR DELT =     1.500

                            INITIAL TIME STEP SIZE =   91.00000    

 WELL NO.  LAYER   ROW   COL   STRESS RATE         
 --------------------------------------------------
      1      1     14     20     -0.1515E+05
      2      1      9      8      -2025.    
      3      1     13     19      -5167.    
      4      1     12     27      -9107.    

      4 WELLS

                 RECHARGE =   0.00000    

 REUSING STREAM SEGMENT DATA FROM LAST STRESS PERIOD
 
 SOLVING FOR HEAD 


     7 CALLS TO PCG ROUTINE FOR TIME STEP   1 IN STRESS PERIOD    3
    27 TOTAL ITERATIONS

 OUTPUT CONTROL FOR STRESS PERIOD    3   TIME STEP    1
    SAVE BUDGET
    SAVE HEAD FOR ALL LAYERS
    PRINT HEAD FOR ALL LAYERS
 UBDSV2 SAVING "STREAMFLOW OUT  " ON UNIT  50 AT TIME STEP  1, STRESS PERIOD   3



 STREAM LISTING     PERIOD      3   STEP        1

 LAYER ROW COL. STREAM  RCH.  FLOW INTO     FLOW TO   FLOW OUT OF   OVRLND.     DIRECT     STREAM       STREAM     STREAM     STREAM   STREAMBED  STREAMBED
                SEG.NO.  NO.  STRM. RCH.    AQUIFER    STRM. RCH.    RUNOFF     PRECIP       ET          HEAD       DEPTH      WIDTH   CONDCTNC.   GRADIENT

   1   13    1     1     1    1.0000E+05 -2.6976E+03   1.0270E+05  0.000E+00  0.000E+00  0.000E+00  4.84072E+01  1.458E-01  2.000E+01  2.000E+04 -1.349E-01
   1   13    2     1     2    1.0270E+05 -3.7964E+03   1.0649E+05  0.000E+00  0.000E+00  0.000E+00  4.79327E+01  1.486E-01  2.000E+01  2.000E+04 -1.898E-01
   1   14    3     1     3    1.0649E+05 -6.4594E+02   1.0714E+05  0.000E+00  0.000E+00  0.000E+00  4.74573E+01  1.505E-01  2.000E+01  2.000E+04 -3.230E-02
   1   15    4     1     4    1.0714E+05 -6.3128E+02   1.0777E+05  0.000E+00  0.000E+00  0.000E+00  4.69806E+01  1.510E-01  2.000E+01  2.000E+04 -3.156E-02
   1   16    5     1     5    1.0777E+05 -2.4525E+03   1.1022E+05  0.000E+00  0.000E+00  0.000E+00  4.65046E+01  1.523E-01  2.000E+01  2.000E+04 -1.226E-01
   1   16    6     1     6    1.1022E+05 -1.4949E+03   1.1172E+05  0.000E+00  0.000E+00  0.000E+00  4.60290E+01  1.540E-01  2.000E+01  2.000E+04 -7.474E-02
   1   16    7     1     7    1.1172E+05 -1.4555E+03   1.1317E+05  0.000E+00  0.000E+00  0.000E+00  4.55529E+01  1.552E-01  2.000E+01  2.000E+04 -7.278E-02
   1   16    8     1     8    1.1317E+05 -1.4417E+03   1.1462E+05  0.000E+00  0.000E+00  0.000E+00  4.50769E+01  1.564E-01  2.000E+01  2.000E+04 -7.208E-02
   1   16    9     1     9    1.1462E+05 -1.4229E+03   1.1604E+05  0.000E+00  0.000E+00  0.000E+00  4.46008E+01  1.576E-01  2.000E+01  2.000E+04 -7.115E-02
   1   16   10     1    10    1.1604E+05 -1.3949E+03   1.1743E+05  0.000E+00  0.000E+00  0.000E+00  4.41246E+01  1.587E-01  2.000E+01  2.000E+04 -6.974E-02
   1   16   11     1    11    1.1743E+05 -1.3843E+03   1.1882E+05  0.000E+00  0.000E+00  0.000E+00  4.36485E+01  1.599E-01  2.000E+01  2.000E+04 -6.921E-02
   1   16   12     1    12    1.1882E+05 -2.3917E+03   1.2121E+05  0.000E+00  0.000E+00  0.000E+00  4.31727E+01  1.614E-01  2.000E+01  2.000E+04 -1.196E-01
   1   15   13     1    13    1.2121E+05 -2.2780E+03   1.2349E+05  0.000E+00  0.000E+00  0.000E+00  4.26974E+01  1.633E-01  2.000E+01  2.000E+04 -1.139E-01
   1   14   14     1    14    1.2349E+05 -2.5228E+03   1.2601E+05  0.000E+00  0.000E+00  0.000E+00  4.22220E+01  1.652E-01  2.000E+01  2.000E+04 -1.261E-01
   1   13   15     1    15    1.2601E+05 -2.7744E+03   1.2878E+05  0.000E+00  0.000E+00  0.000E+00  4.17468E+01  1.673E-01  2.000E+01  2.000E+04 -1.387E-01
   1   12   16     1    16    1.2878E+05 -3.7817E+03   1.3257E+05  0.000E+00  0.000E+00  0.000E+00  4.12721E+01  1.698E-01  2.000E+01  2.000E+04 -1.891E-01
   1   12   17     1    17    1.3257E+05 -2.0695E+03   1.3464E+05  0.000E+00  0.000E+00  0.000E+00  4.07971E+01  1.721E-01  2.000E+01  2.000E+04 -1.035E-01
   1   12   18     1    18    1.3464E+05 -1.4023E+03   1.3604E+05  0.000E+00  0.000E+00  0.000E+00  4.03212E+01  1.735E-01  2.000E+01  2.000E+04 -7.012E-02
   1   12   19     1    19    1.3604E+05 -9.4573E+02   1.3698E+05  0.000E+00  0.000E+00  0.000E+00  3.98448E+01  1.744E-01  2.000E+01  2.000E+04 -4.729E-02
   1   13   20     1    20    1.3698E+05  4.5660E+03   1.3242E+05  0.000E+00  0.000E+00  0.000E+00  3.93661E+01  1.730E-01  2.000E+01  2.000E+04  2.283E-01
   1   14   21     1    21    1.3242E+05  3.4197E+03   1.2900E+05  0.000E+00  0.000E+00  0.000E+00  3.88858E+01  1.699E-01  2.000E+01  2.000E+04  1.710E-01
   1   14   22     1    22    1.2900E+05  4.9557E+03   1.2404E+05  0.000E+00  0.000E+00  0.000E+00  3.84052E+01  1.666E-01  2.000E+01  2.000E+04  2.478E-01
   1    9   30     2     1    5.0000E+04 -3.6480E+02   5.0365E+04  0.000E+00  0.000E+00  0.000E+00  4.02411E+01  1.161E-01  2.000E+01  2.000E+04 -1.824E-02
   1    9   29     2     2    5.0365E+04 -5.9690E+02   5.0962E+04  0.000E+00  0.000E+00  0.000E+00  3.99918E+01  1.168E-01  2.000E+01  2.000E+04 -2.985E-02
   1    9   28     2     3    5.0962E+04 -7.7693E+02   5.1739E+04  0.000E+00  0.000E+00  0.000E+00  3.97427E+01  1.177E-01  2.000E+01  2.000E+04 -3.885E-02
   1    9   27     2     4    5.1739E+04 -2.3980E+03   5.4137E+04  0.000E+00  0.000E+00  0.000E+00  3.94949E+01  1.199E-01  2.000E+01  2.000E+04 -1.199E-01
   1   10   26     2     5    5.4137E+04 -3.1225E+02   5.4449E+04  0.000E+00  0.000E+00  0.000E+00  3.92467E+01  1.217E-01  2.000E+01  2.000E+04 -1.561E-02
   1   11   25     2     6    5.4449E+04  2.3553E+00   5.4447E+04  0.000E+00  0.000E+00  0.000E+00  3.89969E+01  1.219E-01  2.000E+01  2.000E+04  1.178E-04
   1   12   24     2     7    5.4447E+04 -1.0793E+03   5.5526E+04  0.000E+00  0.000E+00  0.000E+00  3.87477E+01  1.227E-01  2.000E+01  2.000E+04 -5.396E-02
   1   13   23     2     8    5.5526E+04 -2.4921E+02   5.5775E+04  0.000E+00  0.000E+00  0.000E+00  3.84986E+01  1.236E-01  2.000E+01  2.000E+04 -1.246E-02
   1   14   22     2     9    5.5775E+04  1.8017E+03   5.3973E+04  0.000E+00  0.000E+00  0.000E+00  3.82475E+01  1.225E-01  2.000E+01  2.000E+04  9.008E-02
   1   14   22     3     1    1.7802E+05 -8.5955E+03   1.8661E+05  0.000E+00  0.000E+00  0.000E+00  3.77277E+01  1.721E-01  2.000E+01  2.000E+04 -4.298E-01
   1   15   23     3     2    1.8661E+05 -5.1288E+02   1.8712E+05  0.000E+00  0.000E+00  0.000E+00  3.68413E+01  1.747E-01  2.000E+01  2.000E+04 -2.564E-02
   1   15   24     3     3    1.8712E+05 -3.0461E+02   1.8743E+05  0.000E+00  0.000E+00  0.000E+00  3.59527E+01  1.749E-01  2.000E+01  2.000E+04 -1.523E-02
   1   15   25     3     4    1.8743E+05 -2.7424E+02   1.8770E+05  0.000E+00  0.000E+00  0.000E+00  3.50640E+01  1.751E-01  2.000E+01  2.000E+04 -1.371E-02
   1   15   26     3     5    1.8770E+05 -2.0929E+02   1.8791E+05  0.000E+00  0.000E+00  0.000E+00  3.41752E+01  1.752E-01  2.000E+01  2.000E+04 -1.046E-02
   1   16   27     3     6    1.8791E+05 -2.8524E+02   1.8820E+05  0.000E+00  0.000E+00  0.000E+00  3.32864E+01  1.753E-01  2.000E+01  2.000E+04 -1.426E-02
   1   17   28     3     7    1.8820E+05 -1.2332E+03   1.8943E+05  0.000E+00  0.000E+00  0.000E+00  3.23980E+01  1.758E-01  2.000E+01  2.000E+04 -6.166E-02
   1   18   29     3     8    1.8943E+05 -3.3041E+03   1.9274E+05  0.000E+00  0.000E+00  0.000E+00  3.15104E+01  1.770E-01  2.000E+01  2.000E+04 -1.652E-01
   1   18   30     3     9    1.9274E+05 -3.2879E+03   1.9602E+05  0.000E+00  0.000E+00  0.000E+00  3.06233E+01  1.789E-01  2.000E+01  2.000E+04 -1.644E-01



1
              HEAD IN LAYER   1 AT END OF TIME STEP   1 IN STRESS PERIOD    3
  ---------------------------------------------------------------------------

          1      2      3      4      5      6      7      8      9     10
         11     12     13     14     15     16     17     18     19     20
         21     22     23     24     25     26     27     28     29     30
 .........................................................................
   1  ****** ****** ****** ****** ****** ****** ****** ****** ****** ******
      ****** ****** ****** ****** ****** ****** ****** ****** ****** ******
      ****** ****** ****** ****** ****** ****** ****** ****** ****** ******
   2  ****** ****** ****** ****** ****** ****** ****** ****** ****** ******
      ****** ****** ****** ****** ****** ****** ****** ****** ****** ******
      ****** ****** ****** ****** ****** ****** ****** ****** ****** ******
   3  ****** ****** ****** ****** ****** ****** ****** ****** ****** ******
      ****** ****** ****** ****** ****** ****** ****** ****** ****** ******
      ****** ****** ****** ****** ****** ****** ****** ****** ****** ******
   4  ****** ****** ****** ****** ****** ****** ****** ****** ****** ******
      ****** ****** ****** ****** ****** ****** ****** ****** ****** ******
      ****** ****** ****** ****** ****** ****** ****** ****** ****** ******
   5  ****** ****** ****** ****** ****** ****** ****** ****** ****** ******
      ****** ****** ****** ****** ****** ****** ****** ****** ****** ******
      ****** ****** ****** ****** ****** ****** ****** ****** ****** ******
   6  ****** ****** ****** ****** ****** ****** ****** ****** ****** ******
      ****** ****** ****** ****** ****** ****** ****** ****** ****** ******
      ****** ****** ****** ****** ****** ****** ****** ****** ****** ******
   7  ****** ****** ****** ****** ****** ****** ****** ****** ****** ******
      ****** ****** ****** ****** ****** ****** ****** ****** ****** ******
      ****** ****** ****** ****** ****** ****** ****** ****** ****** ******
   8  ****** ****** ****** ****** ****** ****** ****** ****** ****** ******
      ****** ****** ****** ****** ****** ****** ****** ****** ****** ******
      ****** ****** ****** ****** ****** ****** ****** ****** ****** ******
   9  ****** ****** ****** ****** ****** ****** ****** ****** ****** ******
      ****** ****** ****** ****** ****** ****** ****** ****** ****** ******
      ****** ****** ****** ****** ****** ****** ****** ****** ****** ******
  10  ****** ****** ****** ****** ****** ****** ****** ****** ****** ******
      ****** ****** ****** ****** ****** ****** ****** ****** ****** ******
      ****** ****** ****** ****** ****** ****** ****** ****** ****** ******
  11  ****** ****** ****** ****** ****** ****** ****** ****** ****** ******
      ****** ****** ****** ****** ****** ****** ****** ****** ****** ******
      ****** ****** ****** ****** ****** ****** ****** ****** ****** ******
  12  ****** ****** ****** ****** ****** ****** ****** ****** ****** ******
      ****** ****** ****** ****** ****** ****** ****** ****** ****** ******
      ****** ****** ****** ****** ****** ****** ****** ****** ****** ******
  13  ****** ****** ****** ****** ****** ****** ****** ****** ****** ******
      ****** ****** ****** ****** ****** ****** ****** ****** ****** ******
      ****** ****** ****** ****** ****** ****** ****** ****** ****** ******
  14  ****** ****** ****** ****** ****** ****** ****** ****** ****** ******
      ****** ****** ****** ****** ****** ****** ****** ****** ****** ******
      ****** ****** ****** ****** ****** ****** ****** ****** ****** ******
  15  ****** ****** ****** ****** ****** ****** ****** ****** ****** ******
      ****** ****** ****** ****** ****** ****** ****** ****** ****** ******
      ****** ****** ****** ****** ****** ****** ****** ****** ****** ******
  16  ****** ****** ****** ****** ****** ****** ****** ****** ****** ******
      ****** ****** ****** ****** ****** ****** ****** ****** ****** ******
      ****** ****** ****** ****** ****** ****** ****** ****** ****** ******
  17  ****** ****** ****** ****** ****** ****** ****** ****** ****** ******
      ****** ****** ****** ****** ****** ****** ****** ****** ****** ******
      ****** ****** ****** ****** ****** ****** ****** ****** ****** ******
  18  ****** ****** ****** ****** ****** ****** ****** ****** ****** ******
      ****** ****** ****** ****** ****** ****** ****** ****** ****** ******
      ****** ****** ****** ****** ****** ****** ****** ****** ****** ******
  19  ****** ****** ****** ****** ****** ****** ****** ****** ****** ******
      ****** ****** ****** ****** ****** ****** ****** ****** ****** ******
      ****** ****** ****** ****** ****** ****** ****** ****** ****** ******
  20  ****** ****** ****** ****** ****** ****** ****** ****** ****** ******
      ****** ****** ****** ****** ****** ****** ****** ****** ****** ******
      ****** ****** ****** ****** ****** ****** ****** ****** ****** ******
  21  ****** ****** ****** ****** ****** ****** ****** ****** ****** ******
      ****** ****** ****** ****** ****** ****** ****** ****** ****** ******
      ****** ****** ****** ****** ****** ****** ****** ****** ****** ******
  22  ****** ****** ****** ****** ****** ****** ****** ****** ****** ******
      ****** ****** ****** ****** ****** ****** ****** ****** ****** ******
      ****** ****** ****** ****** ****** ****** ****** ****** ****** ******
  23  ****** ****** ****** ****** ****** ****** ****** ****** ****** ******
      ****** ****** ****** ****** ****** ****** ****** ****** ****** ******
      ****** ****** ****** ****** ****** ****** ****** ****** ****** ******
  24  ****** ****** ****** ****** ****** ****** ****** ****** ****** ******
      ****** ****** ****** ****** ****** ****** ****** ****** ****** ******
      ****** ****** ****** ****** ****** ****** ****** ****** ****** ******
  25  ****** ****** ****** ****** ****** ****** ****** ****** ****** ******
      ****** ****** ****** ****** ****** ****** ****** ****** ****** ******
      ****** ****** ****** ****** ****** ****** ****** ****** ****** ******

 HEAD WILL BE SAVED ON UNIT   51 AT END OF TIME STEP    1, STRESS PERIOD    3
1
  VOLUMETRIC BUDGET FOR ENTIRE MODEL AT END OF TIME STEP    1, STRESS PERIOD   3
  ------------------------------------------------------------------------------

     CUMULATIVE VOLUMES      L**3       RATES FOR THIS TIME STEP      L**3/T
     ------------------                 ------------------------

           IN:                                      IN:
           ---                                      ---
             STORAGE =    26596251.7750               STORAGE =       53311.3508
       CONSTANT HEAD =     4748684.9804         CONSTANT HEAD =       24161.7744
               WELLS =           0.0000                 WELLS =           0.0000
            RECHARGE =     6292800.0000              RECHARGE =           0.0000
      STREAM LEAKAGE =     2727188.1866        STREAM LEAKAGE =       14745.4263

            TOTAL IN =    40364924.9419              TOTAL IN =       92218.5516

          OUT:                                     OUT:
          ----                                     ----
             STORAGE =           0.0000               STORAGE =           0.0000
       CONSTANT HEAD =           0.0000         CONSTANT HEAD =           0.0000
               WELLS =     8617338.8431                 WELLS =       31450.1418
            RECHARGE =           0.0000              RECHARGE =           0.0000
      STREAM LEAKAGE =    31747588.0020        STREAM LEAKAGE =       60768.4172

           TOTAL OUT =    40364926.8451             TOTAL OUT =       92218.5590

            IN - OUT =          -1.9031              IN - OUT =      -7.3858E-03

 PERCENT DISCREPANCY =          -0.00     PERCENT DISCREPANCY =          -0.00






         TIME SUMMARY AT END OF TIME STEP    1 IN STRESS PERIOD    3
                    SECONDS     MINUTES      HOURS       DAYS        YEARS
                    -----------------------------------------------------------
   TIME STEP LENGTH 7.86240E+06 1.31040E+05  2184.0      91.000     0.24914    
 STRESS PERIOD TIME 7.86240E+06 1.31040E+05  2184.0      91.000     0.24914    
         TOTAL TIME 2.36736E+07 3.94560E+05  6576.0      274.00     0.75017    
1
1
                            STRESS PERIOD NO.    4, LENGTH =   91.00000    
                            -----------------------------------------------

                              NUMBER OF TIME STEPS =     1

                               MULTIPLIER FOR DELT =     1.500

                            INITIAL TIME STEP SIZE =   91.00000    

 WELL NO.  LAYER   ROW   COL   STRESS RATE         
 --------------------------------------------------
      1      1     14     20     -0.1515E+05
      2      1      9      8      -2025.    
      3      1     13     19      -5167.    
      4      1     12     27      -9107.    

      4 WELLS

                 RECHARGE =  1.000000E-03

 REUSING STREAM SEGMENT DATA FROM LAST STRESS PERIOD
 
 SOLVING FOR HEAD 


     6 CALLS TO PCG ROUTINE FOR TIME STEP   1 IN STRESS PERIOD    4
    23 TOTAL ITERATIONS

 OUTPUT CONTROL FOR STRESS PERIOD    4   TIME STEP    1
    SAVE BUDGET
    SAVE HEAD FOR ALL LAYERS
    PRINT HEAD FOR ALL LAYERS
 UBDSV2 SAVING "STREAMFLOW OUT  " ON UNIT  50 AT TIME STEP  1, STRESS PERIOD   4



 STREAM LISTING     PERIOD      4   STEP        1

 LAYER ROW COL. STREAM  RCH.  FLOW INTO     FLOW TO   FLOW OUT OF   OVRLND.     DIRECT     STREAM       STREAM     STREAM     STREAM   STREAMBED  STREAMBED
                SEG.NO.  NO.  STRM. RCH.    AQUIFER    STRM. RCH.    RUNOFF     PRECIP       ET          HEAD       DEPTH      WIDTH   CONDCTNC.   GRADIENT

   1   13    1     1     1    1.0000E+05 -2.4526E+03   1.0245E+05  0.000E+00  0.000E+00  0.000E+00  4.84071E+01  1.457E-01  2.000E+01  2.000E+04 -1.226E-01
   1   13    2     1     2    1.0245E+05 -3.5104E+03   1.0596E+05  0.000E+00  0.000E+00  0.000E+00  4.79324E+01  1.483E-01  2.000E+01  2.000E+04 -1.755E-01
   1   14    3     1     3    1.0596E+05 -6.1491E+02   1.0658E+05  0.000E+00  0.000E+00  0.000E+00  4.74568E+01  1.500E-01  2.000E+01  2.000E+04 -3.075E-02
   1   15    4     1     4    1.0658E+05 -5.9093E+02   1.0717E+05  0.000E+00  0.000E+00  0.000E+00  4.69801E+01  1.505E-01  2.000E+01  2.000E+04 -2.955E-02
   1   16    5     1     5    1.0717E+05 -2.1522E+03   1.0932E+05  0.000E+00  0.000E+00  0.000E+00  4.65040E+01  1.517E-01  2.000E+01  2.000E+04 -1.076E-01
   1   16    6     1     6    1.0932E+05 -1.3459E+03   1.1067E+05  0.000E+00  0.000E+00  0.000E+00  4.60282E+01  1.532E-01  2.000E+01  2.000E+04 -6.730E-02
   1   16    7     1     7    1.1067E+05 -1.3176E+03   1.1198E+05  0.000E+00  0.000E+00  0.000E+00  4.55520E+01  1.543E-01  2.000E+01  2.000E+04 -6.588E-02
   1   16    8     1     8    1.1198E+05 -1.3082E+03   1.1329E+05  0.000E+00  0.000E+00  0.000E+00  4.50758E+01  1.554E-01  2.000E+01  2.000E+04 -6.541E-02
   1   16    9     1     9    1.1329E+05 -1.2929E+03   1.1459E+05  0.000E+00  0.000E+00  0.000E+00  4.45996E+01  1.564E-01  2.000E+01  2.000E+04 -6.465E-02
   1   16   10     1    10    1.1459E+05 -1.2694E+03   1.1585E+05  0.000E+00  0.000E+00  0.000E+00  4.41234E+01  1.575E-01  2.000E+01  2.000E+04 -6.347E-02
   1   16   11     1    11    1.1585E+05 -1.2601E+03   1.1712E+05  0.000E+00  0.000E+00  0.000E+00  4.36472E+01  1.585E-01  2.000E+01  2.000E+04 -6.300E-02
   1   16   12     1    12    1.1712E+05 -2.1311E+03   1.1925E+05  0.000E+00  0.000E+00  0.000E+00  4.31713E+01  1.599E-01  2.000E+01  2.000E+04 -1.066E-01
   1   15   13     1    13    1.1925E+05 -2.0370E+03   1.2128E+05  0.000E+00  0.000E+00  0.000E+00  4.26957E+01  1.616E-01  2.000E+01  2.000E+04 -1.018E-01
   1   14   14     1    14    1.2128E+05 -2.2618E+03   1.2354E+05  0.000E+00  0.000E+00  0.000E+00  4.22201E+01  1.633E-01  2.000E+01  2.000E+04 -1.131E-01
   1   13   15     1    15    1.2354E+05 -2.4920E+03   1.2604E+05  0.000E+00  0.000E+00  0.000E+00  4.17448E+01  1.652E-01  2.000E+01  2.000E+04 -1.246E-01
   1   12   16     1    16    1.2604E+05 -3.4111E+03   1.2945E+05  0.000E+00  0.000E+00  0.000E+00  4.12698E+01  1.675E-01  2.000E+01  2.000E+04 -1.706E-01
   1   12   17     1    17    1.2945E+05 -1.8513E+03   1.3130E+05  0.000E+00  0.000E+00  0.000E+00  4.07946E+01  1.696E-01  2.000E+01  2.000E+04 -9.257E-02
   1   12   18     1    18    1.3130E+05 -1.2014E+03   1.3250E+05  0.000E+00  0.000E+00  0.000E+00  4.03185E+01  1.708E-01  2.000E+01  2.000E+04 -6.007E-02
   1   12   19     1    19    1.3250E+05 -6.9894E+02   1.3320E+05  0.000E+00  0.000E+00  0.000E+00  3.98420E+01  1.715E-01  2.000E+01  2.000E+04 -3.495E-02
   1   13   20     1    20    1.3320E+05  4.7241E+03   1.2848E+05  0.000E+00  0.000E+00  0.000E+00  3.93631E+01  1.700E-01  2.000E+01  2.000E+04  2.362E-01
   1   14   21     1    21    1.2848E+05  3.6419E+03   1.2483E+05  0.000E+00  0.000E+00  0.000E+00  3.88826E+01  1.667E-01  2.000E+01  2.000E+04  1.821E-01
   1   14   22     1    22    1.2483E+05  4.9873E+03   1.1985E+05  0.000E+00  0.000E+00  0.000E+00  3.84019E+01  1.633E-01  2.000E+01  2.000E+04  2.494E-01
   1    9   30     2     1    5.0000E+04 -2.7977E+02   5.0280E+04  0.000E+00  0.000E+00  0.000E+00  4.02411E+01  1.161E-01  2.000E+01  2.000E+04 -1.399E-02
   1    9   29     2     2    5.0280E+04 -5.0561E+02   5.0785E+04  0.000E+00  0.000E+00  0.000E+00  3.99916E+01  1.166E-01  2.000E+01  2.000E+04 -2.528E-02
   1    9   28     2     3    5.0785E+04 -6.6729E+02   5.1453E+04  0.000E+00  0.000E+00  0.000E+00  3.97424E+01  1.174E-01  2.000E+01  2.000E+04 -3.336E-02
   1    9   27     2     4    5.1453E+04 -2.1481E+03   5.3601E+04  0.000E+00  0.000E+00  0.000E+00  3.94943E+01  1.193E-01  2.000E+01  2.000E+04 -1.074E-01
   1   10   26     2     5    5.3601E+04 -1.6613E+02   5.3767E+04  0.000E+00  0.000E+00  0.000E+00  3.92459E+01  1.209E-01  2.000E+01  2.000E+04 -8.306E-03
   1   11   25     2     6    5.3767E+04  1.1026E+02   5.3657E+04  0.000E+00  0.000E+00  0.000E+00  3.89960E+01  1.210E-01  2.000E+01  2.000E+04  5.513E-03
   1   12   24     2     7    5.3657E+04 -9.8967E+02   5.4646E+04  0.000E+00  0.000E+00  0.000E+00  3.87465E+01  1.215E-01  2.000E+01  2.000E+04 -4.948E-02
   1   13   23     2     8    5.4646E+04 -2.7596E+02   5.4922E+04  0.000E+00  0.000E+00  0.000E+00  3.84974E+01  1.224E-01  2.000E+01  2.000E+04 -1.380E-02
   1   14   22     2     9    5.4922E+04  1.8758E+03   5.3046E+04  0.000E+00  0.000E+00  0.000E+00  3.82463E+01  1.213E-01  2.000E+01  2.000E+04  9.379E-02
   1   14   22     3     1    1.7289E+05 -8.5560E+03   1.8145E+05  0.000E+00  0.000E+00  0.000E+00  3.77247E+01  1.692E-01  2.000E+01  2.000E+04 -4.278E-01
   1   15   23     3     2    1.8145E+05 -4.8974E+02   1.8194E+05  0.000E+00  0.000E+00  0.000E+00  3.68384E+01  1.718E-01  2.000E+01  2.000E+04 -2.449E-02
   1   15   24     3     3    1.8194E+05 -3.0341E+02   1.8224E+05  0.000E+00  0.000E+00  0.000E+00  3.59498E+01  1.720E-01  2.000E+01  2.000E+04 -1.517E-02
   1   15   25     3     4    1.8224E+05 -2.7228E+02   1.8251E+05  0.000E+00  0.000E+00  0.000E+00  3.50610E+01  1.721E-01  2.000E+01  2.000E+04 -1.361E-02
   1   15   26     3     5    1.8251E+05 -2.1519E+02   1.8273E+05  0.000E+00  0.000E+00  0.000E+00  3.41723E+01  1.723E-01  2.000E+01  2.000E+04 -1.076E-02
   1   16   27     3     6    1.8273E+05 -2.8330E+02   1.8301E+05  0.000E+00  0.000E+00  0.000E+00  3.32835E+01  1.724E-01  2.000E+01  2.000E+04 -1.416E-02
   1   17   28     3     7    1.8301E+05 -1.1617E+03   1.8417E+05  0.000E+00  0.000E+00  0.000E+00  3.23951E+01  1.728E-01  2.000E+01  2.000E+04 -5.808E-02
   1   18   29     3     8    1.8417E+05 -3.0868E+03   1.8726E+05  0.000E+00  0.000E+00  0.000E+00  3.15074E+01  1.740E-01  2.000E+01  2.000E+04 -1.543E-01
   1   18   30     3     9    1.8726E+05 -3.1780E+03   1.9044E+05  0.000E+00  0.000E+00  0.000E+00  3.06202E+01  1.758E-01  2.000E+01  2.000E+04 -1.589E-01



1
              HEAD IN LAYER   1 AT END OF TIME STEP   1 IN STRESS PERIOD    4
  ---------------------------------------------------------------------------

          1      2      3      4      5      6      7      8      9     10
         11     12     13     14     15     16     17     18     19     20
         21     22     23     24     25     26     27     28     29     30
 .........................................................................
   1  ****** ****** ****** ****** ****** ****** ****** ****** ****** ******
      ****** ****** ****** ****** ****** ****** ****** ****** ****** ******
      ****** ****** ****** ****** ****** ****** ****** ****** ****** ******
   2  ****** ****** ****** ****** ****** ****** ****** ****** ****** ******
      ****** ****** ****** ****** ****** ****** ****** ****** ****** ******
      ****** ****** ****** ****** ****** ****** ****** ****** ****** ******
   3  ****** ****** ****** ****** ****** ****** ****** ****** ****** ******
      ****** ****** ****** ****** ****** ****** ****** ****** ****** ******
      ****** ****** ****** ****** ****** ****** ****** ****** ****** ******
   4  ****** ****** ****** ****** ****** ****** ****** ****** ****** ******
      ****** ****** ****** ****** ****** ****** ****** ****** ****** ******
      ****** ****** ****** ****** ****** ****** ****** ****** ****** ******
   5  ****** ****** ****** ****** ****** ****** ****** ****** ****** ******
      ****** ****** ****** ****** ****** ****** ****** ****** ****** ******
      ****** ****** ****** ****** ****** ****** ****** ****** ****** ******
   6  ****** ****** ****** ****** ****** ****** ****** ****** ****** ******
      ****** ****** ****** ****** ****** ****** ****** ****** ****** ******
      ****** ****** ****** ****** ****** ****** ****** ****** ****** ******
   7  ****** ****** ****** ****** ****** ****** ****** ****** ****** ******
      ****** ****** ****** ****** ****** ****** ****** ****** ****** ******
      ****** ****** ****** ****** ****** ****** ****** ****** ****** ******
   8  ****** ****** ****** ****** ****** ****** ****** ****** ****** ******
      ****** ****** ****** ****** ****** ****** ****** ****** ****** ******
      ****** ****** ****** ****** ****** ****** ****** ****** ****** ******
   9  ****** ****** ****** ****** ****** ****** ****** ****** ****** ******
      ****** ****** ****** ****** ****** ****** ****** ****** ****** ******
      ****** ****** ****** ****** ****** ****** ****** ****** ****** ******
  10  ****** ****** ****** ****** ****** ****** ****** ****** ****** ******
      ****** ****** ****** ****** ****** ****** ****** ****** ****** ******
      ****** ****** ****** ****** ****** ****** ****** ****** ****** ******
  11  ****** ****** ****** ****** ****** ****** ****** ****** ****** ******
      ****** ****** ****** ****** ****** ****** ****** ****** ****** ******
      ****** ****** ****** ****** ****** ****** ****** ****** ****** ******
  12  ****** ****** ****** ****** ****** ****** ****** ****** ****** ******
      ****** ****** ****** ****** ****** ****** ****** ****** ****** ******
      ****** ****** ****** ****** ****** ****** ****** ****** ****** ******
  13  ****** ****** ****** ****** ****** ****** ****** ****** ****** ******
      ****** ****** ****** ****** ****** ****** ****** ****** ****** ******
      ****** ****** ****** ****** ****** ****** ****** ****** ****** ******
  14  ****** ****** ****** ****** ****** ****** ****** ****** ****** ******
      ****** ****** ****** ****** ****** ****** ****** ****** ****** ******
      ****** ****** ****** ****** ****** ****** ****** ****** ****** ******
  15  ****** ****** ****** ****** ****** ****** ****** ****** ****** ******
      ****** ****** ****** ****** ****** ****** ****** ****** ****** ******
      ****** ****** ****** ****** ****** ****** ****** ****** ****** ******
  16  ****** ****** ****** ****** ****** ****** ****** ****** ****** ******
      ****** ****** ****** ****** ****** ****** ****** ****** ****** ******
      ****** ****** ****** ****** ****** ****** ****** ****** ****** ******
  17  ****** ****** ****** ****** ****** ****** ****** ****** ****** ******
      ****** ****** ****** ****** ****** ****** ****** ****** ****** ******
      ****** ****** ****** ****** ****** ****** ****** ****** ****** ******
  18  ****** ****** ****** ****** ****** ****** ****** ****** ****** ******
      ****** ****** ****** ****** ****** ****** ****** ****** ****** ******
      ****** ****** ****** ****** ****** ****** ****** ****** ****** ******
  19  ****** ****** ****** ****** ****** ****** ****** ****** ****** ******
      ****** ****** ****** ****** ****** ****** ****** ****** ****** ******
      ****** ****** ****** ****** ****** ****** ****** ****** ****** ******
  20  ****** ****** ****** ****** ****** ****** ****** ****** ****** ******
      ****** ****** ****** ****** ****** ****** ****** ****** ****** ******
      ****** ****** ****** ****** ****** ****** ****** ****** ****** ******
  21  ****** ****** ****** ****** ****** ****** ****** ****** ****** ******
      ****** ****** ****** ****** ****** ****** ****** ****** ****** ******
      ****** ****** ****** ****** ****** ****** ****** ****** ****** ******
  22  ****** ****** ****** ****** ****** ****** ****** ****** ****** ******
      ****** ****** ****** ****** ****** ****** ****** ****** ****** ******
      ****** ****** ****** ****** ****** ****** ****** ****** ****** ******
  23  ****** ****** ****** ****** ****** ****** ****** ****** ****** ******
      ****** ****** ****** ****** ****** ****** ****** ****** ****** ******
      ****** ****** ****** ****** ****** ****** ****** ****** ****** ******
  24  ****** ****** ****** ****** ****** ****** ****** ****** ****** ******
      ****** ****** ****** ****** ****** ****** ****** ****** ****** ******
      ****** ****** ****** ****** ****** ****** ****** ****** ****** ******
  25  ****** ****** ****** ****** ****** ****** ****** ****** ****** ******
      ****** ****** ****** ****** ****** ****** ****** ****** ****** ******
      ****** ****** ****** ****** ****** ****** ****** ****** ****** ******

 HEAD WILL BE SAVED ON UNIT   51 AT END OF TIME STEP    1, STRESS PERIOD    4
1
  VOLUMETRIC BUDGET FOR ENTIRE MODEL AT END OF TIME STEP    1, STRESS PERIOD   4
  ------------------------------------------------------------------------------

     CUMULATIVE VOLUMES      L**3       RATES FOR THIS TIME STEP      L**3/T
     ------------------                 ------------------------

           IN:                                      IN:
           ---                                      ---
             STORAGE =    28207864.2097               STORAGE =       17710.0268
       CONSTANT HEAD =     7168086.4127         CONSTANT HEAD =       26586.8289
               WELLS =           0.0000                 WELLS =           0.0000
            RECHARGE =     8804400.0000              RECHARGE =       27600.0000
      STREAM LEAKAGE =     4123073.3144        STREAM LEAKAGE =       15339.3970

            TOTAL IN =    48303423.9368              TOTAL IN =       87236.2527

          OUT:                                     OUT:
          ----                                     ----
             STORAGE =         701.6220               STORAGE =           7.7101
       CONSTANT HEAD =           0.0000         CONSTANT HEAD =           0.0000
               WELLS =    11479301.7435                 WELLS =       31450.1418
            RECHARGE =           0.0000              RECHARGE =           0.0000
      STREAM LEAKAGE =    36823422.5465        STREAM LEAKAGE =       55778.4016

           TOTAL OUT =    48303425.9120             TOTAL OUT =       87236.2535

            IN - OUT =          -1.9751              IN - OUT =      -7.9076E-04

 PERCENT DISCREPANCY =          -0.00     PERCENT DISCREPANCY =          -0.00






         TIME SUMMARY AT END OF TIME STEP    1 IN STRESS PERIOD    4
                    SECONDS     MINUTES      HOURS       DAYS        YEARS
                    -----------------------------------------------------------
   TIME STEP LENGTH 7.86240E+06 1.31040E+05  2184.0      91.000     0.24914    
 STRESS PERIOD TIME 7.86240E+06 1.31040E+05  2184.0      91.000     0.24914    
         TOTAL TIME 3.15360E+07 5.25600E+05  8760.0      365.00     0.99932    
1
1
                            STRESS PERIOD NO.    5, LENGTH =   92.00000    
                            -----------------------------------------------

                              NUMBER OF TIME STEPS =     1

                               MULTIPLIER FOR DELT =     1.500

                            INITIAL TIME STEP SIZE =   92.00000    

 WELL NO.  LAYER   ROW   COL   STRESS RATE         
 --------------------------------------------------
      1      1     14     20     -0.1515E+05
      2      1      9      8      -2025.    
      3      1     13     19      -5167.    
      4      1     12     27      -9107.    

      4 WELLS

                 RECHARGE =  5.000000E-04

 REUSING STREAM SEGMENT DATA FROM LAST STRESS PERIOD
 
 SOLVING FOR HEAD 


     7 CALLS TO PCG ROUTINE FOR TIME STEP   1 IN STRESS PERIOD    5
    26 TOTAL ITERATIONS

 OUTPUT CONTROL FOR STRESS PERIOD    5   TIME STEP    1
    SAVE BUDGET
    SAVE HEAD FOR ALL LAYERS
    PRINT HEAD FOR ALL LAYERS
 UBDSV2 SAVING "STREAMFLOW OUT  " ON UNIT  50 AT TIME STEP  1, STRESS PERIOD   5



 STREAM LISTING     PERIOD      5   STEP        1

 LAYER ROW COL. STREAM  RCH.  FLOW INTO     FLOW TO   FLOW OUT OF   OVRLND.     DIRECT     STREAM       STREAM     STREAM     STREAM   STREAMBED  STREAMBED
                SEG.NO.  NO.  STRM. RCH.    AQUIFER    STRM. RCH.    RUNOFF     PRECIP       ET          HEAD       DEPTH      WIDTH   CONDCTNC.   GRADIENT

   1   13    1     1     1    1.0000E+05 -2.0318E+03   1.0203E+05  0.000E+00  0.000E+00  0.000E+00  4.84069E+01  1.455E-01  2.000E+01  2.000E+04 -1.016E-01
   1   13    2     1     2    1.0203E+05 -3.0336E+03   1.0507E+05  0.000E+00  0.000E+00  0.000E+00  4.79318E+01  1.477E-01  2.000E+01  2.000E+04 -1.517E-01
   1   14    3     1     3    1.0507E+05 -4.9093E+02   1.0556E+05  0.000E+00  0.000E+00  0.000E+00  4.74560E+01  1.492E-01  2.000E+01  2.000E+04 -2.455E-02
   1   15    4     1     4    1.0556E+05 -4.6076E+02   1.0602E+05  0.000E+00  0.000E+00  0.000E+00  4.69792E+01  1.496E-01  2.000E+01  2.000E+04 -2.304E-02
   1   16    5     1     5    1.0602E+05 -1.7230E+03   1.0774E+05  0.000E+00  0.000E+00  0.000E+00  4.65028E+01  1.505E-01  2.000E+01  2.000E+04 -8.615E-02
   1   16    6     1     6    1.0774E+05 -1.0937E+03   1.0883E+05  0.000E+00  0.000E+00  0.000E+00  4.60267E+01  1.517E-01  2.000E+01  2.000E+04 -5.468E-02
   1   16    7     1     7    1.0883E+05 -1.0756E+03   1.0991E+05  0.000E+00  0.000E+00  0.000E+00  4.55504E+01  1.526E-01  2.000E+01  2.000E+04 -5.378E-02
   1   16    8     1     8    1.0991E+05 -1.0700E+03   1.1098E+05  0.000E+00  0.000E+00  0.000E+00  4.50740E+01  1.535E-01  2.000E+01  2.000E+04 -5.350E-02
   1   16    9     1     9    1.1098E+05 -1.0583E+03   1.1204E+05  0.000E+00  0.000E+00  0.000E+00  4.45976E+01  1.544E-01  2.000E+01  2.000E+04 -5.291E-02
   1   16   10     1    10    1.1204E+05 -1.0389E+03   1.1308E+05  0.000E+00  0.000E+00  0.000E+00  4.41212E+01  1.553E-01  2.000E+01  2.000E+04 -5.195E-02
   1   16   11     1    11    1.1308E+05 -1.0302E+03   1.1411E+05  0.000E+00  0.000E+00  0.000E+00  4.36448E+01  1.561E-01  2.000E+01  2.000E+04 -5.151E-02
   1   16   12     1    12    1.1411E+05 -1.7206E+03   1.1583E+05  0.000E+00  0.000E+00  0.000E+00  4.31686E+01  1.573E-01  2.000E+01  2.000E+04 -8.603E-02
   1   15   13     1    13    1.1583E+05 -1.6041E+03   1.1743E+05  0.000E+00  0.000E+00  0.000E+00  4.26927E+01  1.586E-01  2.000E+01  2.000E+04 -8.020E-02
   1   14   14     1    14    1.1743E+05 -1.8022E+03   1.1923E+05  0.000E+00  0.000E+00  0.000E+00  4.22168E+01  1.600E-01  2.000E+01  2.000E+04 -9.011E-02
   1   13   15     1    15    1.1923E+05 -2.0165E+03   1.2125E+05  0.000E+00  0.000E+00  0.000E+00  4.17411E+01  1.616E-01  2.000E+01  2.000E+04 -1.008E-01
   1   12   16     1    16    1.2125E+05 -2.8929E+03   1.2414E+05  0.000E+00  0.000E+00  0.000E+00  4.12658E+01  1.635E-01  2.000E+01  2.000E+04 -1.446E-01
   1   12   17     1    17    1.2414E+05 -1.5049E+03   1.2565E+05  0.000E+00  0.000E+00  0.000E+00  4.07903E+01  1.653E-01  2.000E+01  2.000E+04 -7.524E-02
   1   12   18     1    18    1.2565E+05 -8.7239E+02   1.2652E+05  0.000E+00  0.000E+00  0.000E+00  4.03140E+01  1.662E-01  2.000E+01  2.000E+04 -4.362E-02
   1   12   19     1    19    1.2652E+05 -3.0166E+02   1.2682E+05  0.000E+00  0.000E+00  0.000E+00  3.98372E+01  1.667E-01  2.000E+01  2.000E+04 -1.508E-02
   1   13   20     1    20    1.2682E+05  5.0719E+03   1.2175E+05  0.000E+00  0.000E+00  0.000E+00  3.93580E+01  1.648E-01  2.000E+01  2.000E+04  2.536E-01
   1   14   21     1    21    1.2175E+05  4.0146E+03   1.1774E+05  0.000E+00  0.000E+00  0.000E+00  3.88771E+01  1.612E-01  2.000E+01  2.000E+04  2.007E-01
   1   14   22     1    22    1.1774E+05  5.0637E+03   1.1267E+05  0.000E+00  0.000E+00  0.000E+00  3.83961E+01  1.575E-01  2.000E+01  2.000E+04  2.532E-01
   1    9   30     2     1    5.0000E+04 -5.2429E+01   5.0052E+04  0.000E+00  0.000E+00  0.000E+00  4.02409E+01  1.159E-01  2.000E+01  2.000E+04 -2.621E-03
   1    9   29     2     2    5.0052E+04 -2.7505E+02   5.0327E+04  0.000E+00  0.000E+00  0.000E+00  3.99911E+01  1.161E-01  2.000E+01  2.000E+04 -1.375E-02
   1    9   28     2     3    5.0327E+04 -4.2574E+02   5.0753E+04  0.000E+00  0.000E+00  0.000E+00  3.97416E+01  1.166E-01  2.000E+01  2.000E+04 -2.129E-02
   1    9   27     2     4    5.0753E+04 -1.7700E+03   5.2523E+04  0.000E+00  0.000E+00  0.000E+00  3.94931E+01  1.181E-01  2.000E+01  2.000E+04 -8.850E-02
   1   10   26     2     5    5.2523E+04  1.6586E+02   5.2357E+04  0.000E+00  0.000E+00  0.000E+00  3.92442E+01  1.192E-01  2.000E+01  2.000E+04  8.293E-03
   1   11   25     2     6    5.2357E+04  4.1558E+02   5.1942E+04  0.000E+00  0.000E+00  0.000E+00  3.89938E+01  1.188E-01  2.000E+01  2.000E+04  2.078E-02
   1   12   24     2     7    5.1942E+04 -7.1104E+02   5.2653E+04  0.000E+00  0.000E+00  0.000E+00  3.87440E+01  1.190E-01  2.000E+01  2.000E+04 -3.555E-02
   1   13   23     2     8    5.2653E+04 -2.0829E+02   5.2861E+04  0.000E+00  0.000E+00  0.000E+00  3.84947E+01  1.197E-01  2.000E+01  2.000E+04 -1.041E-02
   1   14   22     2     9    5.2861E+04  2.0101E+03   5.0851E+04  0.000E+00  0.000E+00  0.000E+00  3.82434E+01  1.184E-01  2.000E+01  2.000E+04  1.005E-01
   1   14   22     3     1    1.6352E+05 -8.4729E+03   1.7200E+05  0.000E+00  0.000E+00  0.000E+00  3.77193E+01  1.637E-01  2.000E+01  2.000E+04 -4.236E-01
   1   15   23     3     2    1.7200E+05 -3.9158E+02   1.7239E+05  0.000E+00  0.000E+00  0.000E+00  3.68330E+01  1.663E-01  2.000E+01  2.000E+04 -1.958E-02
   1   15   24     3     3    1.7239E+05 -2.3117E+02   1.7262E+05  0.000E+00  0.000E+00  0.000E+00  3.59443E+01  1.665E-01  2.000E+01  2.000E+04 -1.156E-02
   1   15   25     3     4    1.7262E+05 -2.0048E+02   1.7282E+05  0.000E+00  0.000E+00  0.000E+00  3.50555E+01  1.666E-01  2.000E+01  2.000E+04 -1.002E-02
   1   15   26     3     5    1.7282E+05 -1.4217E+02   1.7296E+05  0.000E+00  0.000E+00  0.000E+00  3.41667E+01  1.667E-01  2.000E+01  2.000E+04 -7.109E-03
   1   16   27     3     6    1.7296E+05 -1.9201E+02   1.7315E+05  0.000E+00  0.000E+00  0.000E+00  3.32779E+01  1.668E-01  2.000E+01  2.000E+04 -9.600E-03
   1   17   28     3     7    1.7315E+05 -8.9119E+02   1.7404E+05  0.000E+00  0.000E+00  0.000E+00  3.23893E+01  1.671E-01  2.000E+01  2.000E+04 -4.456E-02
   1   18   29     3     8    1.7404E+05 -2.7114E+03   1.7676E+05  0.000E+00  0.000E+00  0.000E+00  3.15015E+01  1.682E-01  2.000E+01  2.000E+04 -1.356E-01
   1   18   30     3     9    1.7676E+05 -2.9192E+03   1.7967E+05  0.000E+00  0.000E+00  0.000E+00  3.06142E+01  1.698E-01  2.000E+01  2.000E+04 -1.460E-01



1
              HEAD IN LAYER   1 AT END OF TIME STEP   1 IN STRESS PERIOD    5
  ---------------------------------------------------------------------------

          1      2      3      4      5      6      7      8      9     10
         11     12     13     14     15     16     17     18     19     20
         21     22     23     24     25     26     27     28     29     30
 .........................................................................
   1  ****** ****** ****** ****** ****** ****** ****** ****** ****** ******
      ****** ****** ****** ****** ****** ****** ****** ****** ****** ******
      ****** ****** ****** ****** ****** ****** ****** ****** ****** ******
   2  ****** ****** ****** ****** ****** ****** ****** ****** ****** ******
      ****** ****** ****** ****** ****** ****** ****** ****** ****** ******
      ****** ****** ****** ****** ****** ****** ****** ****** ****** ******
   3  ****** ****** ****** ****** ****** ****** ****** ****** ****** ******
      ****** ****** ****** ****** ****** ****** ****** ****** ****** ******
      ****** ****** ****** ****** ****** ****** ****** ****** ****** ******
   4  ****** ****** ****** ****** ****** ****** ****** ****** ****** ******
      ****** ****** ****** ****** ****** ****** ****** ****** ****** ******
      ****** ****** ****** ****** ****** ****** ****** ****** ****** ******
   5  ****** ****** ****** ****** ****** ****** ****** ****** ****** ******
      ****** ****** ****** ****** ****** ****** ****** ****** ****** ******
      ****** ****** ****** ****** ****** ****** ****** ****** ****** ******
   6  ****** ****** ****** ****** ****** ****** ****** ****** ****** ******
      ****** ****** ****** ****** ****** ****** ****** ****** ****** ******
      ****** ****** ****** ****** ****** ****** ****** ****** ****** ******
   7  ****** ****** ****** ****** ****** ****** ****** ****** ****** ******
      ****** ****** ****** ****** ****** ****** ****** ****** ****** ******
      ****** ****** ****** ****** ****** ****** ****** ****** ****** ******
   8  ****** ****** ****** ****** ****** ****** ****** ****** ****** ******
      ****** ****** ****** ****** ****** ****** ****** ****** ****** ******
      ****** ****** ****** ****** ****** ****** ****** ****** ****** ******
   9  ****** ****** ****** ****** ****** ****** ****** ****** ****** ******
      ****** ****** ****** ****** ****** ****** ****** ****** ****** ******
      ****** ****** ****** ****** ****** ****** ****** ****** ****** ******
  10  ****** ****** ****** ****** ****** ****** ****** ****** ****** ******
      ****** ****** ****** ****** ****** ****** ****** ****** ****** ******
      ****** ****** ****** ****** ****** ****** ****** ****** ****** ******
  11  ****** ****** ****** ****** ****** ****** ****** ****** ****** ******
      ****** ****** ****** ****** ****** ****** ****** ****** ****** ******
      ****** ****** ****** ****** ****** ****** ****** ****** ****** ******
  12  ****** ****** ****** ****** ****** ****** ****** ****** ****** ******
      ****** ****** ****** ****** ****** ****** ****** ****** ****** ******
      ****** ****** ****** ****** ****** ****** ****** ****** ****** ******
  13  ****** ****** ****** ****** ****** ****** ****** ****** ****** ******
      ****** ****** ****** ****** ****** ****** ****** ****** ****** ******
      ****** ****** ****** ****** ****** ****** ****** ****** ****** ******
  14  ****** ****** ****** ****** ****** ****** ****** ****** ****** ******
      ****** ****** ****** ****** ****** ****** ****** ****** ****** ******
      ****** ****** ****** ****** ****** ****** ****** ****** ****** ******
  15  ****** ****** ****** ****** ****** ****** ****** ****** ****** ******
      ****** ****** ****** ****** ****** ****** ****** ****** ****** ******
      ****** ****** ****** ****** ****** ****** ****** ****** ****** ******
  16  ****** ****** ****** ****** ****** ****** ****** ****** ****** ******
      ****** ****** ****** ****** ****** ****** ****** ****** ****** ******
      ****** ****** ****** ****** ****** ****** ****** ****** ****** ******
  17  ****** ****** ****** ****** ****** ****** ****** ****** ****** ******
      ****** ****** ****** ****** ****** ****** ****** ****** ****** ******
      ****** ****** ****** ****** ****** ****** ****** ****** ****** ******
  18  ****** ****** ****** ****** ****** ****** ****** ****** ****** ******
      ****** ****** ****** ****** ****** ****** ****** ****** ****** ******
      ****** ****** ****** ****** ****** ****** ****** ****** ****** ******
  19  ****** ****** ****** ****** ****** ****** ****** ****** ****** ******
      ****** ****** ****** ****** ****** ****** ****** ****** ****** ******
      ****** ****** ****** ****** ****** ****** ****** ****** ****** ******
  20  ****** ****** ****** ****** ****** ****** ****** ****** ****** ******
      ****** ****** ****** ****** ****** ****** ****** ****** ****** ******
      ****** ****** ****** ****** ****** ****** ****** ****** ****** ******
  21  ****** ****** ****** ****** ****** ****** ****** ****** ****** ******
      ****** ****** ****** ****** ****** ****** ****** ****** ****** ******
      ****** ****** ****** ****** ****** ****** ****** ****** ****** ******
  22  ****** ****** ****** ****** ****** ****** ****** ****** ****** ******
      ****** ****** ****** ****** ****** ****** ****** ****** ****** ******
      ****** ****** ****** ****** ****** ****** ****** ****** ****** ******
  23  ****** ****** ****** ****** ****** ****** ****** ****** ****** ******
      ****** ****** ****** ****** ****** ****** ****** ****** ****** ******
      ****** ****** ****** ****** ****** ****** ****** ****** ****** ******
  24  ****** ****** ****** ****** ****** ****** ****** ****** ****** ******
      ****** ****** ****** ****** ****** ****** ****** ****** ****** ******
      ****** ****** ****** ****** ****** ****** ****** ****** ****** ******
  25  ****** ****** ****** ****** ****** ****** ****** ****** ****** ******
      ****** ****** ****** ****** ****** ****** ****** ****** ****** ******
      ****** ****** ****** ****** ****** ****** ****** ****** ****** ******

 HEAD WILL BE SAVED ON UNIT   51 AT END OF TIME STEP    1, STRESS PERIOD    5
1
  VOLUMETRIC BUDGET FOR ENTIRE MODEL AT END OF TIME STEP    1, STRESS PERIOD   5
  ------------------------------------------------------------------------------

     CUMULATIVE VOLUMES      L**3       RATES FOR THIS TIME STEP      L**3/T
     ------------------                 ------------------------

           IN:                                      IN:
           ---                                      ---
             STORAGE =    29855414.8662               STORAGE =       17908.1593
       CONSTANT HEAD =     9874430.4612         CONSTANT HEAD =       29416.7831
               WELLS =           0.0000                 WELLS =           0.0000
            RECHARGE =    10074000.0000              RECHARGE =       13800.0000
      STREAM LEAKAGE =     5663303.5084        STREAM LEAKAGE =       16741.6325

            TOTAL IN =    55467148.8358              TOTAL IN =       77866.5750

          OUT:                                     OUT:
          ----                                     ----
             STORAGE =         701.6220               STORAGE =           0.0000
       CONSTANT HEAD =           0.0000         CONSTANT HEAD =           0.0000
               WELLS =    14372714.7857                 WELLS =       31450.1418
            RECHARGE =           0.0000              RECHARGE =           0.0000
      STREAM LEAKAGE =    41093734.6843        STREAM LEAKAGE =       46416.4363

           TOTAL OUT =    55467151.0920             TOTAL OUT =       77866.5780

            IN - OUT =          -2.2562              IN - OUT =      -3.0551E-03

 PERCENT DISCREPANCY =          -0.00     PERCENT DISCREPANCY =          -0.00






         TIME SUMMARY AT END OF TIME STEP    1 IN STRESS PERIOD    5
                    SECONDS     MINUTES      HOURS       DAYS        YEARS
                    -----------------------------------------------------------
   TIME STEP LENGTH 7.94880E+06 1.32480E+05  2208.0      92.000     0.25188    
 STRESS PERIOD TIME 7.94880E+06 1.32480E+05  2208.0      92.000     0.25188    
         TOTAL TIME 3.94848E+07 6.58080E+05  10968.      457.00      1.2512    
1
1
                            STRESS PERIOD NO.    6, LENGTH =   91.00000    
                            -----------------------------------------------

                              NUMBER OF TIME STEPS =     1

                               MULTIPLIER FOR DELT =     1.500

                            INITIAL TIME STEP SIZE =   91.00000    

 WELL NO.  LAYER   ROW   COL   STRESS RATE         
 --------------------------------------------------
      1      1     14     20     -0.1515E+05
      2      1      9      8      -2025.    
      3      1     13     19      -5167.    
      4      1     12     27      -9107.    

      4 WELLS

                 RECHARGE =  2.000000E-03

 REUSING STREAM SEGMENT DATA FROM LAST STRESS PERIOD
 
 SOLVING FOR HEAD 


     7 CALLS TO PCG ROUTINE FOR TIME STEP   1 IN STRESS PERIOD    6
    26 TOTAL ITERATIONS

 OUTPUT CONTROL FOR STRESS PERIOD    6   TIME STEP    1
    SAVE BUDGET
    SAVE HEAD FOR ALL LAYERS
    PRINT HEAD FOR ALL LAYERS
 UBDSV2 SAVING "STREAMFLOW OUT  " ON UNIT  50 AT TIME STEP  1, STRESS PERIOD   6



 STREAM LISTING     PERIOD      6   STEP        1

 LAYER ROW COL. STREAM  RCH.  FLOW INTO     FLOW TO   FLOW OUT OF   OVRLND.     DIRECT     STREAM       STREAM     STREAM     STREAM   STREAMBED  STREAMBED
                SEG.NO.  NO.  STRM. RCH.    AQUIFER    STRM. RCH.    RUNOFF     PRECIP       ET          HEAD       DEPTH      WIDTH   CONDCTNC.   GRADIENT

   1   13    1     1     1    1.0000E+05 -2.3437E+03   1.0234E+05  0.000E+00  0.000E+00  0.000E+00  4.84070E+01  1.457E-01  2.000E+01  2.000E+04 -1.172E-01
   1   13    2     1     2    1.0234E+05 -3.3741E+03   1.0572E+05  0.000E+00  0.000E+00  0.000E+00  4.79322E+01  1.481E-01  2.000E+01  2.000E+04 -1.687E-01
   1   14    3     1     3    1.0572E+05 -6.4474E+02   1.0636E+05  0.000E+00  0.000E+00  0.000E+00  4.74567E+01  1.498E-01  2.000E+01  2.000E+04 -3.224E-02
   1   15    4     1     4    1.0636E+05 -6.2623E+02   1.0699E+05  0.000E+00  0.000E+00  0.000E+00  4.69799E+01  1.504E-01  2.000E+01  2.000E+04 -3.131E-02
   1   16    5     1     5    1.0699E+05 -2.2206E+03   1.0921E+05  0.000E+00  0.000E+00  0.000E+00  4.65038E+01  1.516E-01  2.000E+01  2.000E+04 -1.110E-01
   1   16    6     1     6    1.0921E+05 -1.3849E+03   1.1059E+05  0.000E+00  0.000E+00  0.000E+00  4.60281E+01  1.531E-01  2.000E+01  2.000E+04 -6.924E-02
   1   16    7     1     7    1.1059E+05 -1.3514E+03   1.1195E+05  0.000E+00  0.000E+00  0.000E+00  4.55520E+01  1.542E-01  2.000E+01  2.000E+04 -6.757E-02
   1   16    8     1     8    1.1195E+05 -1.3415E+03   1.1329E+05  0.000E+00  0.000E+00  0.000E+00  4.50758E+01  1.553E-01  2.000E+01  2.000E+04 -6.707E-02
   1   16    9     1     9    1.1329E+05 -1.3296E+03   1.1462E+05  0.000E+00  0.000E+00  0.000E+00  4.45996E+01  1.564E-01  2.000E+01  2.000E+04 -6.648E-02
   1   16   10     1    10    1.1462E+05 -1.3123E+03   1.1593E+05  0.000E+00  0.000E+00  0.000E+00  4.41234E+01  1.575E-01  2.000E+01  2.000E+04 -6.562E-02
   1   16   11     1    11    1.1593E+05 -1.3075E+03   1.1724E+05  0.000E+00  0.000E+00  0.000E+00  4.36472E+01  1.586E-01  2.000E+01  2.000E+04 -6.538E-02
   1   16   12     1    12    1.1724E+05 -2.1694E+03   1.1941E+05  0.000E+00  0.000E+00  0.000E+00  4.31714E+01  1.600E-01  2.000E+01  2.000E+04 -1.085E-01
   1   15   13     1    13    1.1941E+05 -2.0624E+03   1.2147E+05  0.000E+00  0.000E+00  0.000E+00  4.26958E+01  1.617E-01  2.000E+01  2.000E+04 -1.031E-01
   1   14   14     1    14    1.2147E+05 -2.2559E+03   1.2372E+05  0.000E+00  0.000E+00  0.000E+00  4.22203E+01  1.635E-01  2.000E+01  2.000E+04 -1.128E-01
   1   13   15     1    15    1.2372E+05 -2.4514E+03   1.2618E+05  0.000E+00  0.000E+00  0.000E+00  4.17449E+01  1.653E-01  2.000E+01  2.000E+04 -1.226E-01
   1   12   16     1    16    1.2618E+05 -3.2832E+03   1.2946E+05  0.000E+00  0.000E+00  0.000E+00  4.12699E+01  1.676E-01  2.000E+01  2.000E+04 -1.642E-01
   1   12   17     1    17    1.2946E+05 -1.8231E+03   1.3128E+05  0.000E+00  0.000E+00  0.000E+00  4.07946E+01  1.696E-01  2.000E+01  2.000E+04 -9.116E-02
   1   12   18     1    18    1.3128E+05 -1.1946E+03   1.3248E+05  0.000E+00  0.000E+00  0.000E+00  4.03185E+01  1.708E-01  2.000E+01  2.000E+04 -5.973E-02
   1   12   19     1    19    1.3248E+05 -7.0249E+02   1.3318E+05  0.000E+00  0.000E+00  0.000E+00  3.98420E+01  1.715E-01  2.000E+01  2.000E+04 -3.512E-02
   1   13   20     1    20    1.3318E+05  4.6451E+03   1.2853E+05  0.000E+00  0.000E+00  0.000E+00  3.93632E+01  1.700E-01  2.000E+01  2.000E+04  2.323E-01
   1   14   21     1    21    1.2853E+05  3.5984E+03   1.2494E+05  0.000E+00  0.000E+00  0.000E+00  3.88827E+01  1.667E-01  2.000E+01  2.000E+04  1.799E-01
   1   14   22     1    22    1.2494E+05  4.9557E+03   1.1998E+05  0.000E+00  0.000E+00  0.000E+00  3.84020E+01  1.633E-01  2.000E+01  2.000E+04  2.478E-01
   1    9   30     2     1    5.0000E+04 -4.1893E+02   5.0419E+04  0.000E+00  0.000E+00  0.000E+00  4.02412E+01  1.162E-01  2.000E+01  2.000E+04 -2.095E-02
   1    9   29     2     2    5.0419E+04 -6.3734E+02   5.1056E+04  0.000E+00  0.000E+00  0.000E+00  3.99919E+01  1.169E-01  2.000E+01  2.000E+04 -3.187E-02
   1    9   28     2     3    5.1056E+04 -7.8171E+02   5.1838E+04  0.000E+00  0.000E+00  0.000E+00  3.97429E+01  1.179E-01  2.000E+01  2.000E+04 -3.909E-02
   1    9   27     2     4    5.1838E+04 -2.2223E+03   5.4060E+04  0.000E+00  0.000E+00  0.000E+00  3.94949E+01  1.199E-01  2.000E+01  2.000E+04 -1.111E-01
   1   10   26     2     5    5.4060E+04 -3.0887E+02   5.4369E+04  0.000E+00  0.000E+00  0.000E+00  3.92466E+01  1.216E-01  2.000E+01  2.000E+04 -1.544E-02
   1   11   25     2     6    5.4369E+04 -4.3782E+01   5.4413E+04  0.000E+00  0.000E+00  0.000E+00  3.89969E+01  1.219E-01  2.000E+01  2.000E+04 -2.189E-03
   1   12   24     2     7    5.4413E+04 -1.1252E+03   5.5538E+04  0.000E+00  0.000E+00  0.000E+00  3.87477E+01  1.227E-01  2.000E+01  2.000E+04 -5.626E-02
   1   13   23     2     8    5.5538E+04 -3.4677E+02   5.5885E+04  0.000E+00  0.000E+00  0.000E+00  3.84986E+01  1.236E-01  2.000E+01  2.000E+04 -1.734E-02
   1   14   22     2     9    5.5885E+04  1.8683E+03   5.4017E+04  0.000E+00  0.000E+00  0.000E+00  3.82476E+01  1.226E-01  2.000E+01  2.000E+04  9.342E-02
   1   14   22     3     1    1.7400E+05 -8.5767E+03   1.8257E+05  0.000E+00  0.000E+00  0.000E+00  3.77254E+01  1.698E-01  2.000E+01  2.000E+04 -4.288E-01
   1   15   23     3     2    1.8257E+05 -5.2965E+02   1.8310E+05  0.000E+00  0.000E+00  0.000E+00  3.68391E+01  1.724E-01  2.000E+01  2.000E+04 -2.648E-02
   1   15   24     3     3    1.8310E+05 -3.5347E+02   1.8346E+05  0.000E+00  0.000E+00  0.000E+00  3.59504E+01  1.727E-01  2.000E+01  2.000E+04 -1.767E-02
   1   15   25     3     4    1.8346E+05 -3.2717E+02   1.8378E+05  0.000E+00  0.000E+00  0.000E+00  3.50617E+01  1.728E-01  2.000E+01  2.000E+04 -1.636E-02
   1   15   26     3     5    1.8378E+05 -2.9362E+02   1.8408E+05  0.000E+00  0.000E+00  0.000E+00  3.41730E+01  1.730E-01  2.000E+01  2.000E+04 -1.468E-02
   1   16   27     3     6    1.8408E+05 -3.6104E+02   1.8444E+05  0.000E+00  0.000E+00  0.000E+00  3.32843E+01  1.732E-01  2.000E+01  2.000E+04 -1.805E-02
   1   17   28     3     7    1.8444E+05 -1.3554E+03   1.8579E+05  0.000E+00  0.000E+00  0.000E+00  3.23959E+01  1.737E-01  2.000E+01  2.000E+04 -6.777E-02
   1   18   29     3     8    1.8579E+05 -3.1549E+03   1.8895E+05  0.000E+00  0.000E+00  0.000E+00  3.15083E+01  1.750E-01  2.000E+01  2.000E+04 -1.577E-01
   1   18   30     3     9    1.8895E+05 -3.2778E+03   1.9223E+05  0.000E+00  0.000E+00  0.000E+00  3.06212E+01  1.767E-01  2.000E+01  2.000E+04 -1.639E-01



1
              HEAD IN LAYER   1 AT END OF TIME STEP   1 IN STRESS PERIOD    6
  ---------------------------------------------------------------------------

          1      2      3      4      5      6      7      8      9     10
         11     12     13     14     15     16     17     18     19     20
         21     22     23     24     25     26     27     28     29     30
 .........................................................................
   1  ****** ****** ****** ****** ****** ****** ****** ****** ****** ******
      ****** ****** ****** ****** ****** ****** ****** ****** ****** ******
      ****** ****** ****** ****** ****** ****** ****** ****** ****** ******
   2  ****** ****** ****** ****** ****** ****** ****** ****** ****** ******
      ****** ****** ****** ****** ****** ****** ****** ****** ****** ******
      ****** ****** ****** ****** ****** ****** ****** ****** ****** ******
   3  ****** ****** ****** ****** ****** ****** ****** ****** ****** ******
      ****** ****** ****** ****** ****** ****** ****** ****** ****** ******
      ****** ****** ****** ****** ****** ****** ****** ****** ****** ******
   4  ****** ****** ****** ****** ****** ****** ****** ****** ****** ******
      ****** ****** ****** ****** ****** ****** ****** ****** ****** ******
      ****** ****** ****** ****** ****** ****** ****** ****** ****** ******
   5  ****** ****** ****** ****** ****** ****** ****** ****** ****** ******
      ****** ****** ****** ****** ****** ****** ****** ****** ****** ******
      ****** ****** ****** ****** ****** ****** ****** ****** ****** ******
   6  ****** ****** ****** ****** ****** ****** ****** ****** ****** ******
      ****** ****** ****** ****** ****** ****** ****** ****** ****** ******
      ****** ****** ****** ****** ****** ****** ****** ****** ****** ******
   7  ****** ****** ****** ****** ****** ****** ****** ****** ****** ******
      ****** ****** ****** ****** ****** ****** ****** ****** ****** ******
      ****** ****** ****** ****** ****** ****** ****** ****** ****** ******
   8  ****** ****** ****** ****** ****** ****** ****** ****** ****** ******
      ****** ****** ****** ****** ****** ****** ****** ****** ****** ******
      ****** ****** ****** ****** ****** ****** ****** ****** ****** ******
   9  ****** ****** ****** ****** ****** ****** ****** ****** ****** ******
      ****** ****** ****** ****** ****** ****** ****** ****** ****** ******
      ****** ****** ****** ****** ****** ****** ****** ****** ****** ******
  10  ****** ****** ****** ****** ****** ****** ****** ****** ****** ******
      ****** ****** ****** ****** ****** ****** ****** ****** ****** ******
      ****** ****** ****** ****** ****** ****** ****** ****** ****** ******
  11  ****** ****** ****** ****** ****** ****** ****** ****** ****** ******
      ****** ****** ****** ****** ****** ****** ****** ****** ****** ******
      ****** ****** ****** ****** ****** ****** ****** ****** ****** ******
  12  ****** ****** ****** ****** ****** ****** ****** ****** ****** ******
      ****** ****** ****** ****** ****** ****** ****** ****** ****** ******
      ****** ****** ****** ****** ****** ****** ****** ****** ****** ******
  13  ****** ****** ****** ****** ****** ****** ****** ****** ****** ******
      ****** ****** ****** ****** ****** ****** ****** ****** ****** ******
      ****** ****** ****** ****** ****** ****** ****** ****** ****** ******
  14  ****** ****** ****** ****** ****** ****** ****** ****** ****** ******
      ****** ****** ****** ****** ****** ****** ****** ****** ****** ******
      ****** ****** ****** ****** ****** ****** ****** ****** ****** ******
  15  ****** ****** ****** ****** ****** ****** ****** ****** ****** ******
      ****** ****** ****** ****** ****** ****** ****** ****** ****** ******
      ****** ****** ****** ****** ****** ****** ****** ****** ****** ******
  16  ****** ****** ****** ****** ****** ****** ****** ****** ****** ******
      ****** ****** ****** ****** ****** ****** ****** ****** ****** ******
      ****** ****** ****** ****** ****** ****** ****** ****** ****** ******
  17  ****** ****** ****** ****** ****** ****** ****** ****** ****** ******
      ****** ****** ****** ****** ****** ****** ****** ****** ****** ******
      ****** ****** ****** ****** ****** ****** ****** ****** ****** ******
  18  ****** ****** ****** ****** ****** ****** ****** ****** ****** ******
      ****** ****** ****** ****** ****** ****** ****** ****** ****** ******
      ****** ****** ****** ****** ****** ****** ****** ****** ****** ******
  19  ****** ****** ****** ****** ****** ****** ****** ****** ****** ******
      ****** ****** ****** ****** ****** ****** ****** ****** ****** ******
      ****** ****** ****** ****** ****** ****** ****** ****** ****** ******
  20  ****** ****** ****** ****** ****** ****** ****** ****** ****** ******
      ****** ****** ****** ****** ****** ****** ****** ****** ****** ******
      ****** ****** ****** ****** ****** ****** ****** ****** ****** ******
  21  ****** ****** ****** ****** ****** ****** ****** ****** ****** ******
      ****** ****** ****** ****** ****** ****** ****** ****** ****** ******
      ****** ****** ****** ****** ****** ****** ****** ****** ****** ******
  22  ****** ****** ****** ****** ****** ****** ****** ****** ****** ******
      ****** ****** ****** ****** ****** ****** ****** ****** ****** ******
      ****** ****** ****** ****** ****** ****** ****** ****** ****** ******
  23  ****** ****** ****** ****** ****** ****** ****** ****** ****** ******
      ****** ****** ****** ****** ****** ****** ****** ****** ****** ******
      ****** ****** ****** ****** ****** ****** ****** ****** ****** ******
  24  ****** ****** ****** ****** ****** ****** ****** ****** ****** ******
      ****** ****** ****** ****** ****** ****** ****** ****** ****** ******
      ****** ****** ****** ****** ****** ****** ****** ****** ****** ******
  25  ****** ****** ****** ****** ****** ****** ****** ****** ****** ******
      ****** ****** ****** ****** ****** ****** ****** ****** ****** ******
      ****** ****** ****** ****** ****** ****** ****** ****** ****** ******

 HEAD WILL BE SAVED ON UNIT   51 AT END OF TIME STEP    1, STRESS PERIOD    6
1
  VOLUMETRIC BUDGET FOR ENTIRE MODEL AT END OF TIME STEP    1, STRESS PERIOD   6
  ------------------------------------------------------------------------------

     CUMULATIVE VOLUMES      L**3       RATES FOR THIS TIME STEP      L**3/T
     ------------------                 ------------------------

           IN:                                      IN:
           ---                                      ---
             STORAGE =    29855414.8662               STORAGE =           0.0000
       CONSTANT HEAD =    12373464.4202         CONSTANT HEAD =       27461.9116
               WELLS =           0.0000                 WELLS =           0.0000
            RECHARGE =    15097200.0000              RECHARGE =       55200.0000
      STREAM LEAKAGE =     7034443.2289        STREAM LEAKAGE =       15067.4695

            TOTAL IN =    64360522.5154              TOTAL IN =       97729.3811

          OUT:                                     OUT:
          ----                                     ----
             STORAGE =      818372.4117               STORAGE =        8985.3933
       CONSTANT HEAD =           0.0000         CONSTANT HEAD =           0.0000
               WELLS =    17234677.6861                 WELLS =       31450.1418
            RECHARGE =           0.0000              RECHARGE =           0.0000
      STREAM LEAKAGE =    46307474.4149        STREAM LEAKAGE =       57293.8432

           TOTAL OUT =    64360524.5127             TOTAL OUT =       97729.3782

            IN - OUT =          -1.9973              IN - OUT =       2.8448E-03

 PERCENT DISCREPANCY =          -0.00     PERCENT DISCREPANCY =           0.00






         TIME SUMMARY AT END OF TIME STEP    1 IN STRESS PERIOD    6
                    SECONDS     MINUTES      HOURS       DAYS        YEARS
                    -----------------------------------------------------------
   TIME STEP LENGTH 7.86240E+06 1.31040E+05  2184.0      91.000     0.24914    
 STRESS PERIOD TIME 7.86240E+06 1.31040E+05  2184.0      91.000     0.24914    
         TOTAL TIME 4.73472E+07 7.89120E+05  13152.      548.00      1.5003    
1
1
                            STRESS PERIOD NO.    7, LENGTH =   91.00000    
                            -----------------------------------------------

                              NUMBER OF TIME STEPS =     1

                               MULTIPLIER FOR DELT =     1.500

                            INITIAL TIME STEP SIZE =   91.00000    

 WELL NO.  LAYER   ROW   COL   STRESS RATE         
 --------------------------------------------------
      1      1     14     20     -0.1515E+05
      2      1      9      8      -2025.    
      3      1     13     19      -5167.    
      4      1     12     27      -9107.    

      4 WELLS

                 RECHARGE =   0.00000    

 REUSING STREAM SEGMENT DATA FROM LAST STRESS PERIOD
 
 SOLVING FOR HEAD 


     7 CALLS TO PCG ROUTINE FOR TIME STEP   1 IN STRESS PERIOD    7
    26 TOTAL ITERATIONS

 OUTPUT CONTROL FOR STRESS PERIOD    7   TIME STEP    1
    SAVE BUDGET
    SAVE HEAD FOR ALL LAYERS
    PRINT HEAD FOR ALL LAYERS
 UBDSV2 SAVING "STREAMFLOW OUT  " ON UNIT  50 AT TIME STEP  1, STRESS PERIOD   7



 STREAM LISTING     PERIOD      7   STEP        1

 LAYER ROW COL. STREAM  RCH.  FLOW INTO     FLOW TO   FLOW OUT OF   OVRLND.     DIRECT     STREAM       STREAM     STREAM     STREAM   STREAMBED  STREAMBED
                SEG.NO.  NO.  STRM. RCH.    AQUIFER    STRM. RCH.    RUNOFF     PRECIP       ET          HEAD       DEPTH      WIDTH   CONDCTNC.   GRADIENT

   1   13    1     1     1    1.0000E+05 -1.6764E+03   1.0168E+05  0.000E+00  0.000E+00  0.000E+00  4.84067E+01  1.454E-01  2.000E+01  2.000E+04 -8.382E-02
   1   13    2     1     2    1.0168E+05 -2.6270E+03   1.0430E+05  0.000E+00  0.000E+00  0.000E+00  4.79313E+01  1.472E-01  2.000E+01  2.000E+04 -1.313E-01
   1   14    3     1     3    1.0430E+05 -3.9218E+02   1.0470E+05  0.000E+00  0.000E+00  0.000E+00  4.74553E+01  1.485E-01  2.000E+01  2.000E+04 -1.961E-02
   1   15    4     1     4    1.0470E+05 -3.6301E+02   1.0506E+05  0.000E+00  0.000E+00  0.000E+00  4.69784E+01  1.488E-01  2.000E+01  2.000E+04 -1.815E-02
   1   16    5     1     5    1.0506E+05 -1.4680E+03   1.0653E+05  0.000E+00  0.000E+00  0.000E+00  4.65019E+01  1.496E-01  2.000E+01  2.000E+04 -7.340E-02
   1   16    6     1     6    1.0653E+05 -9.3049E+02   1.0746E+05  0.000E+00  0.000E+00  0.000E+00  4.60256E+01  1.506E-01  2.000E+01  2.000E+04 -4.652E-02
   1   16    7     1     7    1.0746E+05 -9.1533E+02   1.0837E+05  0.000E+00  0.000E+00  0.000E+00  4.55491E+01  1.514E-01  2.000E+01  2.000E+04 -4.577E-02
   1   16    8     1     8    1.0837E+05 -9.1141E+02   1.0928E+05  0.000E+00  0.000E+00  0.000E+00  4.50726E+01  1.522E-01  2.000E+01  2.000E+04 -4.557E-02
   1   16    9     1     9    1.0928E+05 -9.0284E+02   1.1019E+05  0.000E+00  0.000E+00  0.000E+00  4.45961E+01  1.529E-01  2.000E+01  2.000E+04 -4.514E-02
   1   16   10     1    10    1.1019E+05 -8.8832E+02   1.1107E+05  0.000E+00  0.000E+00  0.000E+00  4.41196E+01  1.537E-01  2.000E+01  2.000E+04 -4.442E-02
   1   16   11     1    11    1.1107E+05 -8.8263E+02   1.1196E+05  0.000E+00  0.000E+00  0.000E+00  4.36431E+01  1.544E-01  2.000E+01  2.000E+04 -4.413E-02
   1   16   12     1    12    1.1196E+05 -1.4558E+03   1.1341E+05  0.000E+00  0.000E+00  0.000E+00  4.31668E+01  1.554E-01  2.000E+01  2.000E+04 -7.279E-02
   1   15   13     1    13    1.1341E+05 -1.2965E+03   1.1471E+05  0.000E+00  0.000E+00  0.000E+00  4.26906E+01  1.565E-01  2.000E+01  2.000E+04 -6.483E-02
   1   14   14     1    14    1.1471E+05 -1.4625E+03   1.1617E+05  0.000E+00  0.000E+00  0.000E+00  4.22145E+01  1.577E-01  2.000E+01  2.000E+04 -7.313E-02
   1   13   15     1    15    1.1617E+05 -1.6565E+03   1.1783E+05  0.000E+00  0.000E+00  0.000E+00  4.17385E+01  1.589E-01  2.000E+01  2.000E+04 -8.282E-02
   1   12   16     1    16    1.1783E+05 -2.4955E+03   1.2032E+05  0.000E+00  0.000E+00  0.000E+00  4.12629E+01  1.606E-01  2.000E+01  2.000E+04 -1.248E-01
   1   12   17     1    17    1.2032E+05 -1.2502E+03   1.2157E+05  0.000E+00  0.000E+00  0.000E+00  4.07871E+01  1.621E-01  2.000E+01  2.000E+04 -6.251E-02
   1   12   18     1    18    1.2157E+05 -6.3559E+02   1.2221E+05  0.000E+00  0.000E+00  0.000E+00  4.03106E+01  1.629E-01  2.000E+01  2.000E+04 -3.178E-02
   1   12   19     1    19    1.2221E+05 -1.9756E+01   1.2223E+05  0.000E+00  0.000E+00  0.000E+00  3.98336E+01  1.632E-01  2.000E+01  2.000E+04 -9.878E-04
   1   13   20     1    20    1.2223E+05  5.3112E+03   1.1692E+05  0.000E+00  0.000E+00  0.000E+00  3.93542E+01  1.610E-01  2.000E+01  2.000E+04  2.656E-01
   1   14   21     1    21    1.1692E+05  4.2558E+03   1.1266E+05  0.000E+00  0.000E+00  0.000E+00  3.88730E+01  1.571E-01  2.000E+01  2.000E+04  2.128E-01
   1   14   22     1    22    1.1266E+05  5.1116E+03   1.0755E+05  0.000E+00  0.000E+00  0.000E+00  3.83919E+01  1.533E-01  2.000E+01  2.000E+04  2.556E-01
   1    9   30     2     1    5.0000E+04  9.3044E+01   4.9907E+04  0.000E+00  0.000E+00  0.000E+00  4.02408E+01  1.158E-01  2.000E+01  2.000E+04  4.652E-03
   1    9   29     2     2    4.9907E+04 -1.2724E+02   5.0034E+04  0.000E+00  0.000E+00  0.000E+00  3.99908E+01  1.158E-01  2.000E+01  2.000E+04 -6.362E-03
   1    9   28     2     3    5.0034E+04 -2.7050E+02   5.0305E+04  0.000E+00  0.000E+00  0.000E+00  3.97411E+01  1.161E-01  2.000E+01  2.000E+04 -1.353E-02
   1    9   27     2     4    5.0305E+04 -1.5288E+03   5.1833E+04  0.000E+00  0.000E+00  0.000E+00  3.94923E+01  1.173E-01  2.000E+01  2.000E+04 -7.644E-02
   1   10   26     2     5    5.1833E+04  3.8744E+02   5.1446E+04  0.000E+00  0.000E+00  0.000E+00  3.92431E+01  1.181E-01  2.000E+01  2.000E+04  1.937E-02
   1   11   25     2     6    5.1446E+04  6.2420E+02   5.0822E+04  0.000E+00  0.000E+00  0.000E+00  3.89924E+01  1.174E-01  2.000E+01  2.000E+04  3.121E-02
   1   12   24     2     7    5.0822E+04 -5.1632E+02   5.1338E+04  0.000E+00  0.000E+00  0.000E+00  3.87424E+01  1.174E-01  2.000E+01  2.000E+04 -2.582E-02
   1   13   23     2     8    5.1338E+04 -1.5529E+02   5.1493E+04  0.000E+00  0.000E+00  0.000E+00  3.84928E+01  1.178E-01  2.000E+01  2.000E+04 -7.764E-03
   1   14   22     2     9    5.1493E+04  2.1033E+03   4.9390E+04  0.000E+00  0.000E+00  0.000E+00  3.82415E+01  1.165E-01  2.000E+01  2.000E+04  1.052E-01
   1   14   22     3     1    1.5694E+05 -8.4187E+03   1.6536E+05  0.000E+00  0.000E+00  0.000E+00  3.77154E+01  1.598E-01  2.000E+01  2.000E+04 -4.209E-01
   1   15   23     3     2    1.6536E+05 -3.2416E+02   1.6568E+05  0.000E+00  0.000E+00  0.000E+00  3.68291E+01  1.624E-01  2.000E+01  2.000E+04 -1.621E-02
   1   15   24     3     3    1.6568E+05 -1.8038E+02   1.6586E+05  0.000E+00  0.000E+00  0.000E+00  3.59403E+01  1.626E-01  2.000E+01  2.000E+04 -9.019E-03
   1   15   25     3     4    1.6586E+05 -1.5094E+02   1.6602E+05  0.000E+00  0.000E+00  0.000E+00  3.50515E+01  1.627E-01  2.000E+01  2.000E+04 -7.547E-03
   1   15   26     3     5    1.6602E+05 -9.2715E+01   1.6611E+05  0.000E+00  0.000E+00  0.000E+00  3.41627E+01  1.627E-01  2.000E+01  2.000E+04 -4.636E-03
   1   16   27     3     6    1.6611E+05 -1.2928E+02   1.6624E+05  0.000E+00  0.000E+00  0.000E+00  3.32739E+01  1.628E-01  2.000E+01  2.000E+04 -6.464E-03
   1   17   28     3     7    1.6624E+05 -7.1594E+02   1.6695E+05  0.000E+00  0.000E+00  0.000E+00  3.23853E+01  1.630E-01  2.000E+01  2.000E+04 -3.580E-02
   1   18   29     3     8    1.6695E+05 -2.4732E+03   1.6943E+05  0.000E+00  0.000E+00  0.000E+00  3.14973E+01  1.640E-01  2.000E+01  2.000E+04 -1.237E-01
   1   18   30     3     9    1.6943E+05 -2.7519E+03   1.7218E+05  0.000E+00  0.000E+00  0.000E+00  3.06099E+01  1.655E-01  2.000E+01  2.000E+04 -1.376E-01



1
              HEAD IN LAYER   1 AT END OF TIME STEP   1 IN STRESS PERIOD    7
  ---------------------------------------------------------------------------

          1      2      3      4      5      6      7      8      9     10
         11     12     13     14     15     16     17     18     19     20
         21     22     23     24     25     26     27     28     29     30
 .........................................................................
   1  ****** ****** ****** ****** ****** ****** ****** ****** ****** ******
      ****** ****** ****** ****** ****** ****** ****** ****** ****** ******
      ****** ****** ****** ****** ****** ****** ****** ****** ****** ******
   2  ****** ****** ****** ****** ****** ****** ****** ****** ****** ******
      ****** ****** ****** ****** ****** ****** ****** ****** ****** ******
      ****** ****** ****** ****** ****** ****** ****** ****** ****** ******
   3  ****** ****** ****** ****** ****** ****** ****** ****** ****** ******
      ****** ****** ****** ****** ****** ****** ****** ****** ****** ******
      ****** ****** ****** ****** ****** ****** ****** ****** ****** ******
   4  ****** ****** ****** ****** ****** ****** ****** ****** ****** ******
      ****** ****** ****** ****** ****** ****** ****** ****** ****** ******
      ****** ****** ****** ****** ****** ****** ****** ****** ****** ******
   5  ****** ****** ****** ****** ****** ****** ****** ****** ****** ******
      ****** ****** ****** ****** ****** ****** ****** ****** ****** ******
      ****** ****** ****** ****** ****** ****** ****** ****** ****** ******
   6  ****** ****** ****** ****** ****** ****** ****** ****** ****** ******
      ****** ****** ****** ****** ****** ****** ****** ****** ****** ******
      ****** ****** ****** ****** ****** ****** ****** ****** ****** ******
   7  ****** ****** ****** ****** ****** ****** ****** ****** ****** ******
      ****** ****** ****** ****** ****** ****** ****** ****** ****** ******
      ****** ****** ****** ****** ****** ****** ****** ****** ****** ******
   8  ****** ****** ****** ****** ****** ****** ****** ****** ****** ******
      ****** ****** ****** ****** ****** ****** ****** ****** ****** ******
      ****** ****** ****** ****** ****** ****** ****** ****** ****** ******
   9  ****** ****** ****** ****** ****** ****** ****** ****** ****** ******
      ****** ****** ****** ****** ****** ****** ****** ****** ****** ******
      ****** ****** ****** ****** ****** ****** ****** ****** ****** ******
  10  ****** ****** ****** ****** ****** ****** ****** ****** ****** ******
      ****** ****** ****** ****** ****** ****** ****** ****** ****** ******
      ****** ****** ****** ****** ****** ****** ****** ****** ****** ******
  11  ****** ****** ****** ****** ****** ****** ****** ****** ****** ******
      ****** ****** ****** ****** ****** ****** ****** ****** ****** ******
      ****** ****** ****** ****** ****** ****** ****** ****** ****** ******
  12  ****** ****** ****** ****** ****** ****** ****** ****** ****** ******
      ****** ****** ****** ****** ****** ****** ****** ****** ****** ******
      ****** ****** ****** ****** ****** ****** ****** ****** ****** ******
  13  ****** ****** ****** ****** ****** ****** ****** ****** ****** ******
      ****** ****** ****** ****** ****** ****** ****** ****** ****** ******
      ****** ****** ****** ****** ****** ****** ****** ****** ****** ******
  14  ****** ****** ****** ****** ****** ****** ****** ****** ****** ******
      ****** ****** ****** ****** ****** ****** ****** ****** ****** ******
      ****** ****** ****** ****** ****** ****** ****** ****** ****** ******
  15  ****** ****** ****** ****** ****** ****** ****** ****** ****** ******
      ****** ****** ****** ****** ****** ****** ****** ****** ****** ******
      ****** ****** ****** ****** ****** ****** ****** ****** ****** ******
  16  ****** ****** ****** ****** ****** ****** ****** ****** ****** ******
      ****** ****** ****** ****** ****** ****** ****** ****** ****** ******
      ****** ****** ****** ****** ****** ****** ****** ****** ****** ******
  17  ****** ****** ****** ****** ****** ****** ****** ****** ****** ******
      ****** ****** ****** ****** ****** ****** ****** ****** ****** ******
      ****** ****** ****** ****** ****** ****** ****** ****** ****** ******
  18  ****** ****** ****** ****** ****** ****** ****** ****** ****** ******
      ****** ****** ****** ****** ****** ****** ****** ****** ****** ******
      ****** ****** ****** ****** ****** ****** ****** ****** ****** ******
  19  ****** ****** ****** ****** ****** ****** ****** ****** ****** ******
      ****** ****** ****** ****** ****** ****** ****** ****** ****** ******
      ****** ****** ****** ****** ****** ****** ****** ****** ****** ******
  20  ****** ****** ****** ****** ****** ****** ****** ****** ****** ******
      ****** ****** ****** ****** ****** ****** ****** ****** ****** ******
      ****** ****** ****** ****** ****** ****** ****** ****** ****** ******
  21  ****** ****** ****** ****** ****** ****** ****** ****** ****** ******
      ****** ****** ****** ****** ****** ****** ****** ****** ****** ******
      ****** ****** ****** ****** ****** ****** ****** ****** ****** ******
  22  ****** ****** ****** ****** ****** ****** ****** ****** ****** ******
      ****** ****** ****** ****** ****** ****** ****** ****** ****** ******
      ****** ****** ****** ****** ****** ****** ****** ****** ****** ******
  23  ****** ****** ****** ****** ****** ****** ****** ****** ****** ******
      ****** ****** ****** ****** ****** ****** ****** ****** ****** ******
      ****** ****** ****** ****** ****** ****** ****** ****** ****** ******
  24  ****** ****** ****** ****** ****** ****** ****** ****** ****** ******
      ****** ****** ****** ****** ****** ****** ****** ****** ****** ******
      ****** ****** ****** ****** ****** ****** ****** ****** ****** ******
  25  ****** ****** ****** ****** ****** ****** ****** ****** ****** ******
      ****** ****** ****** ****** ****** ****** ****** ****** ****** ******
      ****** ****** ****** ****** ****** ****** ****** ****** ****** ******

 HEAD WILL BE SAVED ON UNIT   51 AT END OF TIME STEP    1, STRESS PERIOD    7
1
  VOLUMETRIC BUDGET FOR ENTIRE MODEL AT END OF TIME STEP    1, STRESS PERIOD   7
  ------------------------------------------------------------------------------

     CUMULATIVE VOLUMES      L**3       RATES FOR THIS TIME STEP      L**3/T
     ------------------                 ------------------------

           IN:                                      IN:
           ---                                      ---
             STORAGE =    31881596.5339               STORAGE =       22265.7326
       CONSTANT HEAD =    15227495.7239         CONSTANT HEAD =       31362.9814
               WELLS =           0.0000                 WELLS =           0.0000
            RECHARGE =    15097200.0000              RECHARGE =           0.0000
      STREAM LEAKAGE =     8662123.3455        STREAM LEAKAGE =       17886.5947

            TOTAL IN =    70868415.6033              TOTAL IN =       71515.3087

          OUT:                                     OUT:
          ----                                     ----
             STORAGE =      818372.4117               STORAGE =           0.0000
       CONSTANT HEAD =           0.0000         CONSTANT HEAD =           0.0000
               WELLS =    20096640.5866                 WELLS =       31450.1418
            RECHARGE =           0.0000              RECHARGE =           0.0000
      STREAM LEAKAGE =    49953405.0918        STREAM LEAKAGE =       40065.1723

           TOTAL OUT =    70868418.0901             TOTAL OUT =       71515.3140

            IN - OUT =          -2.4868              IN - OUT =      -5.3786E-03

 PERCENT DISCREPANCY =          -0.00     PERCENT DISCREPANCY =          -0.00






         TIME SUMMARY AT END OF TIME STEP    1 IN STRESS PERIOD    7
                    SECONDS     MINUTES      HOURS       DAYS        YEARS
                    -----------------------------------------------------------
   TIME STEP LENGTH 7.86240E+06 1.31040E+05  2184.0      91.000     0.24914    
 STRESS PERIOD TIME 7.86240E+06 1.31040E+05  2184.0      91.000     0.24914    
         TOTAL TIME 5.52096E+07 9.20160E+05  15336.      639.00      1.7495    
1
1
                            STRESS PERIOD NO.    8, LENGTH =   91.00000    
                            -----------------------------------------------

                              NUMBER OF TIME STEPS =     1

                               MULTIPLIER FOR DELT =     1.500

                            INITIAL TIME STEP SIZE =   91.00000    

 WELL NO.  LAYER   ROW   COL   STRESS RATE         
 --------------------------------------------------
      1      1     14     20     -0.1515E+05
      2      1      9      8      -2025.    
      3      1     13     19      -5167.    
      4      1     12     27      -9107.    

      4 WELLS

                 RECHARGE =  1.000000E-03

 REUSING STREAM SEGMENT DATA FROM LAST STRESS PERIOD
 
 SOLVING FOR HEAD 


     6 CALLS TO PCG ROUTINE FOR TIME STEP   1 IN STRESS PERIOD    8
    22 TOTAL ITERATIONS

 OUTPUT CONTROL FOR STRESS PERIOD    8   TIME STEP    1
    SAVE BUDGET
    SAVE HEAD FOR ALL LAYERS
    PRINT HEAD FOR ALL LAYERS
 UBDSV2 SAVING "STREAMFLOW OUT  " ON UNIT  50 AT TIME STEP  1, STRESS PERIOD   8



 STREAM LISTING     PERIOD      8   STEP        1

 LAYER ROW COL. STREAM  RCH.  FLOW INTO     FLOW TO   FLOW OUT OF   OVRLND.     DIRECT     STREAM       STREAM     STREAM     STREAM   STREAMBED  STREAMBED
                SEG.NO.  NO.  STRM. RCH.    AQUIFER    STRM. RCH.    RUNOFF     PRECIP       ET          HEAD       DEPTH      WIDTH   CONDCTNC.   GRADIENT

   1   13    1     1     1    1.0000E+05 -1.7493E+03   1.0175E+05  0.000E+00  0.000E+00  0.000E+00  4.84068E+01  1.454E-01  2.000E+01  2.000E+04 -8.747E-02
   1   13    2     1     2    1.0175E+05 -2.6990E+03   1.0445E+05  0.000E+00  0.000E+00  0.000E+00  4.79314E+01  1.473E-01  2.000E+01  2.000E+04 -1.350E-01
   1   14    3     1     3    1.0445E+05 -4.5585E+02   1.0490E+05  0.000E+00  0.000E+00  0.000E+00  4.74555E+01  1.487E-01  2.000E+01  2.000E+04 -2.279E-02
   1   15    4     1     4    1.0490E+05 -4.3138E+02   1.0534E+05  0.000E+00  0.000E+00  0.000E+00  4.69786E+01  1.491E-01  2.000E+01  2.000E+04 -2.157E-02
   1   16    5     1     5    1.0534E+05 -1.6423E+03   1.0698E+05  0.000E+00  0.000E+00  0.000E+00  4.65022E+01  1.499E-01  2.000E+01  2.000E+04 -8.212E-02
   1   16    6     1     6    1.0698E+05 -1.0374E+03   1.0802E+05  0.000E+00  0.000E+00  0.000E+00  4.60261E+01  1.511E-01  2.000E+01  2.000E+04 -5.187E-02
   1   16    7     1     7    1.0802E+05 -1.0172E+03   1.0903E+05  0.000E+00  0.000E+00  0.000E+00  4.55497E+01  1.519E-01  2.000E+01  2.000E+04 -5.086E-02
   1   16    8     1     8    1.0903E+05 -1.0125E+03   1.1005E+05  0.000E+00  0.000E+00  0.000E+00  4.50732E+01  1.528E-01  2.000E+01  2.000E+04 -5.063E-02
   1   16    9     1     9    1.1005E+05 -1.0052E+03   1.1105E+05  0.000E+00  0.000E+00  0.000E+00  4.45968E+01  1.536E-01  2.000E+01  2.000E+04 -5.026E-02
   1   16   10     1    10    1.1105E+05 -9.9342E+02   1.1204E+05  0.000E+00  0.000E+00  0.000E+00  4.41204E+01  1.545E-01  2.000E+01  2.000E+04 -4.967E-02
   1   16   11     1    11    1.1204E+05 -9.9103E+02   1.1303E+05  0.000E+00  0.000E+00  0.000E+00  4.36439E+01  1.553E-01  2.000E+01  2.000E+04 -4.955E-02
   1   16   12     1    12    1.1303E+05 -1.6183E+03   1.1465E+05  0.000E+00  0.000E+00  0.000E+00  4.31677E+01  1.564E-01  2.000E+01  2.000E+04 -8.091E-02
   1   15   13     1    13    1.1465E+05 -1.4655E+03   1.1612E+05  0.000E+00  0.000E+00  0.000E+00  4.26917E+01  1.576E-01  2.000E+01  2.000E+04 -7.328E-02
   1   14   14     1    14    1.1612E+05 -1.6244E+03   1.1774E+05  0.000E+00  0.000E+00  0.000E+00  4.22157E+01  1.589E-01  2.000E+01  2.000E+04 -8.122E-02
   1   13   15     1    15    1.1774E+05 -1.8054E+03   1.1955E+05  0.000E+00  0.000E+00  0.000E+00  4.17398E+01  1.603E-01  2.000E+01  2.000E+04 -9.027E-02
   1   12   16     1    16    1.1955E+05 -2.6063E+03   1.2215E+05  0.000E+00  0.000E+00  0.000E+00  4.12643E+01  1.621E-01  2.000E+01  2.000E+04 -1.303E-01
   1   12   17     1    17    1.2215E+05 -1.3617E+03   1.2352E+05  0.000E+00  0.000E+00  0.000E+00  4.07887E+01  1.637E-01  2.000E+01  2.000E+04 -6.809E-02
   1   12   18     1    18    1.2352E+05 -7.5404E+02   1.2427E+05  0.000E+00  0.000E+00  0.000E+00  4.03122E+01  1.645E-01  2.000E+01  2.000E+04 -3.770E-02
   1   12   19     1    19    1.2427E+05 -1.6922E+02   1.2444E+05  0.000E+00  0.000E+00  0.000E+00  3.98353E+01  1.649E-01  2.000E+01  2.000E+04 -8.461E-03
   1   13   20     1    20    1.2444E+05  5.1321E+03   1.1931E+05  0.000E+00  0.000E+00  0.000E+00  3.93561E+01  1.629E-01  2.000E+01  2.000E+04  2.566E-01
   1   14   21     1    21    1.1931E+05  4.0958E+03   1.1521E+05  0.000E+00  0.000E+00  0.000E+00  3.88751E+01  1.592E-01  2.000E+01  2.000E+04  2.048E-01
   1   14   22     1    22    1.1521E+05  5.0634E+03   1.1015E+05  0.000E+00  0.000E+00  0.000E+00  3.83940E+01  1.554E-01  2.000E+01  2.000E+04  2.532E-01
   1    9   30     2     1    5.0000E+04 -7.0597E+01   5.0071E+04  0.000E+00  0.000E+00  0.000E+00  4.02409E+01  1.159E-01  2.000E+01  2.000E+04 -3.530E-03
   1    9   29     2     2    5.0071E+04 -2.8810E+02   5.0359E+04  0.000E+00  0.000E+00  0.000E+00  3.99912E+01  1.162E-01  2.000E+01  2.000E+04 -1.441E-02
   1    9   28     2     3    5.0359E+04 -4.2583E+02   5.0785E+04  0.000E+00  0.000E+00  0.000E+00  3.97417E+01  1.167E-01  2.000E+01  2.000E+04 -2.129E-02
   1    9   27     2     4    5.0785E+04 -1.7076E+03   5.2492E+04  0.000E+00  0.000E+00  0.000E+00  3.94931E+01  1.181E-01  2.000E+01  2.000E+04 -8.538E-02
   1   10   26     2     5    5.2492E+04  1.8177E+02   5.2310E+04  0.000E+00  0.000E+00  0.000E+00  3.92442E+01  1.192E-01  2.000E+01  2.000E+04  9.089E-03
   1   11   25     2     6    5.2310E+04  4.2019E+02   5.1890E+04  0.000E+00  0.000E+00  0.000E+00  3.89938E+01  1.188E-01  2.000E+01  2.000E+04  2.101E-02
   1   12   24     2     7    5.1890E+04 -7.0142E+02   5.2592E+04  0.000E+00  0.000E+00  0.000E+00  3.87440E+01  1.190E-01  2.000E+01  2.000E+04 -3.507E-02
   1   13   23     2     8    5.2592E+04 -2.2958E+02   5.2821E+04  0.000E+00  0.000E+00  0.000E+00  3.84946E+01  1.196E-01  2.000E+01  2.000E+04 -1.148E-02
   1   14   22     2     9    5.2821E+04  2.0498E+03   5.0771E+04  0.000E+00  0.000E+00  0.000E+00  3.82433E+01  1.183E-01  2.000E+01  2.000E+04  1.025E-01
   1   14   22     3     1    1.6092E+05 -8.4622E+03   1.6938E+05  0.000E+00  0.000E+00  0.000E+00  3.77177E+01  1.622E-01  2.000E+01  2.000E+04 -4.231E-01
   1   15   23     3     2    1.6938E+05 -3.8872E+02   1.6977E+05  0.000E+00  0.000E+00  0.000E+00  3.68315E+01  1.648E-01  2.000E+01  2.000E+04 -1.944E-02
   1   15   24     3     3    1.6977E+05 -2.4108E+02   1.7001E+05  0.000E+00  0.000E+00  0.000E+00  3.59427E+01  1.650E-01  2.000E+01  2.000E+04 -1.205E-02
   1   15   25     3     4    1.7001E+05 -2.1334E+02   1.7022E+05  0.000E+00  0.000E+00  0.000E+00  3.50540E+01  1.651E-01  2.000E+01  2.000E+04 -1.067E-02
   1   15   26     3     5    1.7022E+05 -1.6748E+02   1.7039E+05  0.000E+00  0.000E+00  0.000E+00  3.41652E+01  1.652E-01  2.000E+01  2.000E+04 -8.374E-03
   1   16   27     3     6    1.7039E+05 -2.1132E+02   1.7060E+05  0.000E+00  0.000E+00  0.000E+00  3.32764E+01  1.653E-01  2.000E+01  2.000E+04 -1.057E-02
   1   17   28     3     7    1.7060E+05 -9.2043E+02   1.7152E+05  0.000E+00  0.000E+00  0.000E+00  3.23879E+01  1.657E-01  2.000E+01  2.000E+04 -4.602E-02
   1   18   29     3     8    1.7152E+05 -2.6403E+03   1.7416E+05  0.000E+00  0.000E+00  0.000E+00  3.15000E+01  1.667E-01  2.000E+01  2.000E+04 -1.320E-01
   1   18   30     3     9    1.7416E+05 -2.8996E+03   1.7706E+05  0.000E+00  0.000E+00  0.000E+00  3.06127E+01  1.683E-01  2.000E+01  2.000E+04 -1.450E-01



1
              HEAD IN LAYER   1 AT END OF TIME STEP   1 IN STRESS PERIOD    8
  ---------------------------------------------------------------------------

          1      2      3      4      5      6      7      8      9     10
         11     12     13     14     15     16     17     18     19     20
         21     22     23     24     25     26     27     28     29     30
 .........................................................................
   1  ****** ****** ****** ****** ****** ****** ****** ****** ****** ******
      ****** ****** ****** ****** ****** ****** ****** ****** ****** ******
      ****** ****** ****** ****** ****** ****** ****** ****** ****** ******
   2  ****** ****** ****** ****** ****** ****** ****** ****** ****** ******
      ****** ****** ****** ****** ****** ****** ****** ****** ****** ******
      ****** ****** ****** ****** ****** ****** ****** ****** ****** ******
   3  ****** ****** ****** ****** ****** ****** ****** ****** ****** ******
      ****** ****** ****** ****** ****** ****** ****** ****** ****** ******
      ****** ****** ****** ****** ****** ****** ****** ****** ****** ******
   4  ****** ****** ****** ****** ****** ****** ****** ****** ****** ******
      ****** ****** ****** ****** ****** ****** ****** ****** ****** ******
      ****** ****** ****** ****** ****** ****** ****** ****** ****** ******
   5  ****** ****** ****** ****** ****** ****** ****** ****** ****** ******
      ****** ****** ****** ****** ****** ****** ****** ****** ****** ******
      ****** ****** ****** ****** ****** ****** ****** ****** ****** ******
   6  ****** ****** ****** ****** ****** ****** ****** ****** ****** ******
      ****** ****** ****** ****** ****** ****** ****** ****** ****** ******
      ****** ****** ****** ****** ****** ****** ****** ****** ****** ******
   7  ****** ****** ****** ****** ****** ****** ****** ****** ****** ******
      ****** ****** ****** ****** ****** ****** ****** ****** ****** ******
      ****** ****** ****** ****** ****** ****** ****** ****** ****** ******
   8  ****** ****** ****** ****** ****** ****** ****** ****** ****** ******
      ****** ****** ****** ****** ****** ****** ****** ****** ****** ******
      ****** ****** ****** ****** ****** ****** ****** ****** ****** ******
   9  ****** ****** ****** ****** ****** ****** ****** ****** ****** ******
      ****** ****** ****** ****** ****** ****** ****** ****** ****** ******
      ****** ****** ****** ****** ****** ****** ****** ****** ****** ******
  10  ****** ****** ****** ****** ****** ****** ****** ****** ****** ******
      ****** ****** ****** ****** ****** ****** ****** ****** ****** ******
      ****** ****** ****** ****** ****** ****** ****** ****** ****** ******
  11  ****** ****** ****** ****** ****** ****** ****** ****** ****** ******
      ****** ****** ****** ****** ****** ****** ****** ****** ****** ******
      ****** ****** ****** ****** ****** ****** ****** ****** ****** ******
  12  ****** ****** ****** ****** ****** ****** ****** ****** ****** ******
      ****** ****** ****** ****** ****** ****** ****** ****** ****** ******
      ****** ****** ****** ****** ****** ****** ****** ****** ****** ******
  13  ****** ****** ****** ****** ****** ****** ****** ****** ****** ******
      ****** ****** ****** ****** ****** ****** ****** ****** ****** ******
      ****** ****** ****** ****** ****** ****** ****** ****** ****** ******
  14  ****** ****** ****** ****** ****** ****** ****** ****** ****** ******
      ****** ****** ****** ****** ****** ****** ****** ****** ****** ******
      ****** ****** ****** ****** ****** ****** ****** ****** ****** ******
  15  ****** ****** ****** ****** ****** ****** ****** ****** ****** ******
      ****** ****** ****** ****** ****** ****** ****** ****** ****** ******
      ****** ****** ****** ****** ****** ****** ****** ****** ****** ******
  16  ****** ****** ****** ****** ****** ****** ****** ****** ****** ******
      ****** ****** ****** ****** ****** ****** ****** ****** ****** ******
      ****** ****** ****** ****** ****** ****** ****** ****** ****** ******
  17  ****** ****** ****** ****** ****** ****** ****** ****** ****** ******
      ****** ****** ****** ****** ****** ****** ****** ****** ****** ******
      ****** ****** ****** ****** ****** ****** ****** ****** ****** ******
  18  ****** ****** ****** ****** ****** ****** ****** ****** ****** ******
      ****** ****** ****** ****** ****** ****** ****** ****** ****** ******
      ****** ****** ****** ****** ****** ****** ****** ****** ****** ******
  19  ****** ****** ****** ****** ****** ****** ****** ****** ****** ******
      ****** ****** ****** ****** ****** ****** ****** ****** ****** ******
      ****** ****** ****** ****** ****** ****** ****** ****** ****** ******
  20  ****** ****** ****** ****** ****** ****** ****** ****** ****** ******
      ****** ****** ****** ****** ****** ****** ****** ****** ****** ******
      ****** ****** ****** ****** ****** ****** ****** ****** ****** ******
  21  ****** ****** ****** ****** ****** ****** ****** ****** ****** ******
      ****** ****** ****** ****** ****** ****** ****** ****** ****** ******
      ****** ****** ****** ****** ****** ****** ****** ****** ****** ******
  22  ****** ****** ****** ****** ****** ****** ****** ****** ****** ******
      ****** ****** ****** ****** ****** ****** ****** ****** ****** ******
      ****** ****** ****** ****** ****** ****** ****** ****** ****** ******
  23  ****** ****** ****** ****** ****** ****** ****** ****** ****** ******
      ****** ****** ****** ****** ****** ****** ****** ****** ****** ******
      ****** ****** ****** ****** ****** ****** ****** ****** ****** ******
  24  ****** ****** ****** ****** ****** ****** ****** ****** ****** ******
      ****** ****** ****** ****** ****** ****** ****** ****** ****** ******
      ****** ****** ****** ****** ****** ****** ****** ****** ****** ******
  25  ****** ****** ****** ****** ****** ****** ****** ****** ****** ******
      ****** ****** ****** ****** ****** ****** ****** ****** ****** ******
      ****** ****** ****** ****** ****** ****** ****** ****** ****** ******

 HEAD WILL BE SAVED ON UNIT   51 AT END OF TIME STEP    1, STRESS PERIOD    8
1
  VOLUMETRIC BUDGET FOR ENTIRE MODEL AT END OF TIME STEP    1, STRESS PERIOD   8
  ------------------------------------------------------------------------------

     CUMULATIVE VOLUMES      L**3       RATES FOR THIS TIME STEP      L**3/T
     ------------------                 ------------------------

           IN:                                      IN:
           ---                                      ---
             STORAGE =    32015749.9295               STORAGE =        1474.2131
       CONSTANT HEAD =    18053469.4565         CONSTANT HEAD =       31054.6564
               WELLS =           0.0000                 WELLS =           0.0000
            RECHARGE =    17608800.0000              RECHARGE =       27600.0000
      STREAM LEAKAGE =    10203942.7798        STREAM LEAKAGE =       16943.0707

            TOTAL IN =    77881962.1658              TOTAL IN =       77071.9402

          OUT:                                     OUT:
          ----                                     ----
             STORAGE =      965301.5454               STORAGE =        1614.6059
       CONSTANT HEAD =           0.0000         CONSTANT HEAD =           0.0000
               WELLS =    22958603.4870                 WELLS =       31450.1418
            RECHARGE =           0.0000              RECHARGE =           0.0000
      STREAM LEAKAGE =    53958058.8720        STREAM LEAKAGE =       44007.1844

           TOTAL OUT =    77881963.9044             TOTAL OUT =       77071.9320

            IN - OUT =          -1.7386              IN - OUT =       8.2213E-03

 PERCENT DISCREPANCY =          -0.00     PERCENT DISCREPANCY =           0.00






         TIME SUMMARY AT END OF TIME STEP    1 IN STRESS PERIOD    8
                    SECONDS     MINUTES      HOURS       DAYS        YEARS
                    -----------------------------------------------------------
   TIME STEP LENGTH 7.86240E+06 1.31040E+05  2184.0      91.000     0.24914    
 STRESS PERIOD TIME 7.86240E+06 1.31040E+05  2184.0      91.000     0.24914    
         TOTAL TIME 6.30720E+07 1.05120E+06  17520.      730.00      1.9986    
1
1
                            STRESS PERIOD NO.    9, LENGTH =   92.00000    
                            -----------------------------------------------

                              NUMBER OF TIME STEPS =     1

                               MULTIPLIER FOR DELT =     1.500

                            INITIAL TIME STEP SIZE =   92.00000    

 WELL NO.  LAYER   ROW   COL   STRESS RATE         
 --------------------------------------------------
      1      1     14     20     -0.1515E+05
      2      1      9      8      -2025.    
      3      1     13     19      -5167.    
      4      1     12     27      -9107.    

      4 WELLS

                 RECHARGE =  5.000000E-04

 REUSING STREAM SEGMENT DATA FROM LAST STRESS PERIOD
 
 SOLVING FOR HEAD 


     6 CALLS TO PCG ROUTINE FOR TIME STEP   1 IN STRESS PERIOD    9
    23 TOTAL ITERATIONS

 OUTPUT CONTROL FOR STRESS PERIOD    9   TIME STEP    1
    SAVE BUDGET
    SAVE HEAD FOR ALL LAYERS
    PRINT HEAD FOR ALL LAYERS
 UBDSV2 SAVING "STREAMFLOW OUT  " ON UNIT  50 AT TIME STEP  1, STRESS PERIOD   9



 STREAM LISTING     PERIOD      9   STEP        1

 LAYER ROW COL. STREAM  RCH.  FLOW INTO     FLOW TO   FLOW OUT OF   OVRLND.     DIRECT     STREAM       STREAM     STREAM     STREAM   STREAMBED  STREAMBED
                SEG.NO.  NO.  STRM. RCH.    AQUIFER    STRM. RCH.    RUNOFF     PRECIP       ET          HEAD       DEPTH      WIDTH   CONDCTNC.   GRADIENT

   1   13    1     1     1    1.0000E+05 -1.5347E+03   1.0153E+05  0.000E+00  0.000E+00  0.000E+00  4.84067E+01  1.453E-01  2.000E+01  2.000E+04 -7.673E-02
   1   13    2     1     2    1.0153E+05 -2.4557E+03   1.0399E+05  0.000E+00  0.000E+00  0.000E+00  4.79311E+01  1.470E-01  2.000E+01  2.000E+04 -1.228E-01
   1   14    3     1     3    1.0399E+05 -3.8482E+02   1.0438E+05  0.000E+00  0.000E+00  0.000E+00  4.74551E+01  1.483E-01  2.000E+01  2.000E+04 -1.924E-02
   1   15    4     1     4    1.0438E+05 -3.5936E+02   1.0473E+05  0.000E+00  0.000E+00  0.000E+00  4.69781E+01  1.486E-01  2.000E+01  2.000E+04 -1.797E-02
   1   16    5     1     5    1.0473E+05 -1.4502E+03   1.0618E+05  0.000E+00  0.000E+00  0.000E+00  4.65016E+01  1.493E-01  2.000E+01  2.000E+04 -7.251E-02
   1   16    6     1     6    1.0618E+05 -9.1750E+02   1.0710E+05  0.000E+00  0.000E+00  0.000E+00  4.60253E+01  1.503E-01  2.000E+01  2.000E+04 -4.588E-02
   1   16    7     1     7    1.0710E+05 -9.0099E+02   1.0800E+05  0.000E+00  0.000E+00  0.000E+00  4.55488E+01  1.511E-01  2.000E+01  2.000E+04 -4.505E-02
   1   16    8     1     8    1.0800E+05 -8.9785E+02   1.0890E+05  0.000E+00  0.000E+00  0.000E+00  4.50723E+01  1.519E-01  2.000E+01  2.000E+04 -4.489E-02
   1   16    9     1     9    1.0890E+05 -8.9225E+02   1.0979E+05  0.000E+00  0.000E+00  0.000E+00  4.45958E+01  1.526E-01  2.000E+01  2.000E+04 -4.461E-02
   1   16   10     1    10    1.0979E+05 -8.8256E+02   1.1068E+05  0.000E+00  0.000E+00  0.000E+00  4.41193E+01  1.534E-01  2.000E+01  2.000E+04 -4.413E-02
   1   16   11     1    11    1.1068E+05 -8.8133E+02   1.1156E+05  0.000E+00  0.000E+00  0.000E+00  4.36427E+01  1.541E-01  2.000E+01  2.000E+04 -4.407E-02
   1   16   12     1    12    1.1156E+05 -1.4307E+03   1.1299E+05  0.000E+00  0.000E+00  0.000E+00  4.31664E+01  1.551E-01  2.000E+01  2.000E+04 -7.154E-02
   1   15   13     1    13    1.1299E+05 -1.2565E+03   1.1424E+05  0.000E+00  0.000E+00  0.000E+00  4.26903E+01  1.562E-01  2.000E+01  2.000E+04 -6.283E-02
   1   14   14     1    14    1.1424E+05 -1.4020E+03   1.1565E+05  0.000E+00  0.000E+00  0.000E+00  4.22141E+01  1.573E-01  2.000E+01  2.000E+04 -7.010E-02
   1   13   15     1    15    1.1565E+05 -1.5772E+03   1.1722E+05  0.000E+00  0.000E+00  0.000E+00  4.17380E+01  1.585E-01  2.000E+01  2.000E+04 -7.886E-02
   1   12   16     1    16    1.1722E+05 -2.3700E+03   1.1959E+05  0.000E+00  0.000E+00  0.000E+00  4.12624E+01  1.601E-01  2.000E+01  2.000E+04 -1.185E-01
   1   12   17     1    17    1.1959E+05 -1.1996E+03   1.2079E+05  0.000E+00  0.000E+00  0.000E+00  4.07865E+01  1.615E-01  2.000E+01  2.000E+04 -5.998E-02
   1   12   18     1    18    1.2079E+05 -5.9944E+02   1.2139E+05  0.000E+00  0.000E+00  0.000E+00  4.03100E+01  1.623E-01  2.000E+01  2.000E+04 -2.997E-02
   1   12   19     1    19    1.2139E+05  1.6858E+01   1.2138E+05  0.000E+00  0.000E+00  0.000E+00  3.98329E+01  1.625E-01  2.000E+01  2.000E+04  8.429E-04
   1   13   20     1    20    1.2138E+05  5.3048E+03   1.1607E+05  0.000E+00  0.000E+00  0.000E+00  3.93535E+01  1.603E-01  2.000E+01  2.000E+04  2.652E-01
   1   14   21     1    21    1.1607E+05  4.2662E+03   1.1180E+05  0.000E+00  0.000E+00  0.000E+00  3.88723E+01  1.564E-01  2.000E+01  2.000E+04  2.133E-01
   1   14   22     1    22    1.1180E+05  5.1011E+03   1.0670E+05  0.000E+00  0.000E+00  0.000E+00  3.83912E+01  1.525E-01  2.000E+01  2.000E+04  2.551E-01
   1    9   30     2     1    5.0000E+04  5.2361E+01   4.9948E+04  0.000E+00  0.000E+00  0.000E+00  4.02408E+01  1.158E-01  2.000E+01  2.000E+04  2.618E-03
   1    9   29     2     2    4.9948E+04 -1.6494E+02   5.0113E+04  0.000E+00  0.000E+00  0.000E+00  3.99909E+01  1.159E-01  2.000E+01  2.000E+04 -8.247E-03
   1    9   28     2     3    5.0113E+04 -3.0081E+02   5.0413E+04  0.000E+00  0.000E+00  0.000E+00  3.97412E+01  1.162E-01  2.000E+01  2.000E+04 -1.504E-02
   1    9   27     2     4    5.0413E+04 -1.5319E+03   5.1945E+04  0.000E+00  0.000E+00  0.000E+00  3.94925E+01  1.175E-01  2.000E+01  2.000E+04 -7.659E-02
   1   10   26     2     5    5.1945E+04  3.5485E+02   5.1590E+04  0.000E+00  0.000E+00  0.000E+00  3.92433E+01  1.183E-01  2.000E+01  2.000E+04  1.774E-02
   1   11   25     2     6    5.1590E+04  5.8587E+02   5.1005E+04  0.000E+00  0.000E+00  0.000E+00  3.89927E+01  1.177E-01  2.000E+01  2.000E+04  2.929E-02
   1   12   24     2     7    5.1005E+04 -5.4909E+02   5.1554E+04  0.000E+00  0.000E+00  0.000E+00  3.87426E+01  1.176E-01  2.000E+01  2.000E+04 -2.745E-02
   1   13   23     2     8    5.1554E+04 -1.8254E+02   5.1736E+04  0.000E+00  0.000E+00  0.000E+00  3.84931E+01  1.181E-01  2.000E+01  2.000E+04 -9.127E-03
   1   14   22     2     9    5.1736E+04  2.1137E+03   4.9622E+04  0.000E+00  0.000E+00  0.000E+00  3.82418E+01  1.168E-01  2.000E+01  2.000E+04  1.057E-01
   1   14   22     3     1    1.5633E+05 -8.4222E+03   1.6475E+05  0.000E+00  0.000E+00  0.000E+00  3.77150E+01  1.595E-01  2.000E+01  2.000E+04 -4.211E-01
   1   15   23     3     2    1.6475E+05 -3.3643E+02   1.6508E+05  0.000E+00  0.000E+00  0.000E+00  3.68287E+01  1.621E-01  2.000E+01  2.000E+04 -1.682E-02
   1   15   24     3     3    1.6508E+05 -1.9824E+02   1.6528E+05  0.000E+00  0.000E+00  0.000E+00  3.59400E+01  1.622E-01  2.000E+01  2.000E+04 -9.912E-03
   1   15   25     3     4    1.6528E+05 -1.7023E+02   1.6545E+05  0.000E+00  0.000E+00  0.000E+00  3.50512E+01  1.623E-01  2.000E+01  2.000E+04 -8.511E-03
   1   15   26     3     5    1.6545E+05 -1.1999E+02   1.6557E+05  0.000E+00  0.000E+00  0.000E+00  3.41624E+01  1.624E-01  2.000E+01  2.000E+04 -6.000E-03
   1   16   27     3     6    1.6557E+05 -1.5551E+02   1.6573E+05  0.000E+00  0.000E+00  0.000E+00  3.32736E+01  1.625E-01  2.000E+01  2.000E+04 -7.775E-03
   1   17   28     3     7    1.6573E+05 -7.6756E+02   1.6650E+05  0.000E+00  0.000E+00  0.000E+00  3.23850E+01  1.628E-01  2.000E+01  2.000E+04 -3.838E-02
   1   18   29     3     8    1.6650E+05 -2.4657E+03   1.6896E+05  0.000E+00  0.000E+00  0.000E+00  3.14970E+01  1.637E-01  2.000E+01  2.000E+04 -1.233E-01
   1   18   30     3     9    1.6896E+05 -2.7683E+03   1.7173E+05  0.000E+00  0.000E+00  0.000E+00  3.06097E+01  1.652E-01  2.000E+01  2.000E+04 -1.384E-01



1
              HEAD IN LAYER   1 AT END OF TIME STEP   1 IN STRESS PERIOD    9
  ---------------------------------------------------------------------------

          1      2      3      4      5      6      7      8      9     10
         11     12     13     14     15     16     17     18     19     20
         21     22     23     24     25     26     27     28     29     30
 .........................................................................
   1  ****** ****** ****** ****** ****** ****** ****** ****** ****** ******
      ****** ****** ****** ****** ****** ****** ****** ****** ****** ******
      ****** ****** ****** ****** ****** ****** ****** ****** ****** ******
   2  ****** ****** ****** ****** ****** ****** ****** ****** ****** ******
      ****** ****** ****** ****** ****** ****** ****** ****** ****** ******
      ****** ****** ****** ****** ****** ****** ****** ****** ****** ******
   3  ****** ****** ****** ****** ****** ****** ****** ****** ****** ******
      ****** ****** ****** ****** ****** ****** ****** ****** ****** ******
      ****** ****** ****** ****** ****** ****** ****** ****** ****** ******
   4  ****** ****** ****** ****** ****** ****** ****** ****** ****** ******
      ****** ****** ****** ****** ****** ****** ****** ****** ****** ******
      ****** ****** ****** ****** ****** ****** ****** ****** ****** ******
   5  ****** ****** ****** ****** ****** ****** ****** ****** ****** ******
      ****** ****** ****** ****** ****** ****** ****** ****** ****** ******
      ****** ****** ****** ****** ****** ****** ****** ****** ****** ******
   6  ****** ****** ****** ****** ****** ****** ****** ****** ****** ******
      ****** ****** ****** ****** ****** ****** ****** ****** ****** ******
      ****** ****** ****** ****** ****** ****** ****** ****** ****** ******
   7  ****** ****** ****** ****** ****** ****** ****** ****** ****** ******
      ****** ****** ****** ****** ****** ****** ****** ****** ****** ******
      ****** ****** ****** ****** ****** ****** ****** ****** ****** ******
   8  ****** ****** ****** ****** ****** ****** ****** ****** ****** ******
      ****** ****** ****** ****** ****** ****** ****** ****** ****** ******
      ****** ****** ****** ****** ****** ****** ****** ****** ****** ******
   9  ****** ****** ****** ****** ****** ****** ****** ****** ****** ******
      ****** ****** ****** ****** ****** ****** ****** ****** ****** ******
      ****** ****** ****** ****** ****** ****** ****** ****** ****** ******
  10  ****** ****** ****** ****** ****** ****** ****** ****** ****** ******
      ****** ****** ****** ****** ****** ****** ****** ****** ****** ******
      ****** ****** ****** ****** ****** ****** ****** ****** ****** ******
  11  ****** ****** ****** ****** ****** ****** ****** ****** ****** ******
      ****** ****** ****** ****** ****** ****** ****** ****** ****** ******
      ****** ****** ****** ****** ****** ****** ****** ****** ****** ******
  12  ****** ****** ****** ****** ****** ****** ****** ****** ****** ******
      ****** ****** ****** ****** ****** ****** ****** ****** ****** ******
      ****** ****** ****** ****** ****** ****** ****** ****** ****** ******
  13  ****** ****** ****** ****** ****** ****** ****** ****** ****** ******
      ****** ****** ****** ****** ****** ****** ****** ****** ****** ******
      ****** ****** ****** ****** ****** ****** ****** ****** ****** ******
  14  ****** ****** ****** ****** ****** ****** ****** ****** ****** ******
      ****** ****** ****** ****** ****** ****** ****** ****** ****** ******
      ****** ****** ****** ****** ****** ****** ****** ****** ****** ******
  15  ****** ****** ****** ****** ****** ****** ****** ****** ****** ******
      ****** ****** ****** ****** ****** ****** ****** ****** ****** ******
      ****** ****** ****** ****** ****** ****** ****** ****** ****** ******
  16  ****** ****** ****** ****** ****** ****** ****** ****** ****** ******
      ****** ****** ****** ****** ****** ****** ****** ****** ****** ******
      ****** ****** ****** ****** ****** ****** ****** ****** ****** ******
  17  ****** ****** ****** ****** ****** ****** ****** ****** ****** ******
      ****** ****** ****** ****** ****** ****** ****** ****** ****** ******
      ****** ****** ****** ****** ****** ****** ****** ****** ****** ******
  18  ****** ****** ****** ****** ****** ****** ****** ****** ****** ******
      ****** ****** ****** ****** ****** ****** ****** ****** ****** ******
      ****** ****** ****** ****** ****** ****** ****** ****** ****** ******
  19  ****** ****** ****** ****** ****** ****** ****** ****** ****** ******
      ****** ****** ****** ****** ****** ****** ****** ****** ****** ******
      ****** ****** ****** ****** ****** ****** ****** ****** ****** ******
  20  ****** ****** ****** ****** ****** ****** ****** ****** ****** ******
      ****** ****** ****** ****** ****** ****** ****** ****** ****** ******
      ****** ****** ****** ****** ****** ****** ****** ****** ****** ******
  21  ****** ****** ****** ****** ****** ****** ****** ****** ****** ******
      ****** ****** ****** ****** ****** ****** ****** ****** ****** ******
      ****** ****** ****** ****** ****** ****** ****** ****** ****** ******
  22  ****** ****** ****** ****** ****** ****** ****** ****** ****** ******
      ****** ****** ****** ****** ****** ****** ****** ****** ****** ******
      ****** ****** ****** ****** ****** ****** ****** ****** ****** ******
  23  ****** ****** ****** ****** ****** ****** ****** ****** ****** ******
      ****** ****** ****** ****** ****** ****** ****** ****** ****** ******
      ****** ****** ****** ****** ****** ****** ****** ****** ****** ******
  24  ****** ****** ****** ****** ****** ****** ****** ****** ****** ******
      ****** ****** ****** ****** ****** ****** ****** ****** ****** ******
      ****** ****** ****** ****** ****** ****** ****** ****** ****** ******
  25  ****** ****** ****** ****** ****** ****** ****** ****** ****** ******
      ****** ****** ****** ****** ****** ****** ****** ****** ****** ******
      ****** ****** ****** ****** ****** ****** ****** ****** ****** ******

 HEAD WILL BE SAVED ON UNIT   51 AT END OF TIME STEP    1, STRESS PERIOD    9
1
  VOLUMETRIC BUDGET FOR ENTIRE MODEL AT END OF TIME STEP    1, STRESS PERIOD   9
  ------------------------------------------------------------------------------

     CUMULATIVE VOLUMES      L**3       RATES FOR THIS TIME STEP      L**3/T
     ------------------                 ------------------------

           IN:                                      IN:
           ---                                      ---
             STORAGE =    32675154.3251               STORAGE =        7167.4391
       CONSTANT HEAD =    21017075.0638         CONSTANT HEAD =       32213.1044
               WELLS =           0.0000                 WELLS =           0.0000
            RECHARGE =    18878400.0000              RECHARGE =       13800.0000
      STREAM LEAKAGE =    11841145.8352        STREAM LEAKAGE =       17795.6854

            TOTAL IN =    84411775.2241              TOTAL IN =       70976.2289

          OUT:                                     OUT:
          ----                                     ----
             STORAGE =      965301.5454               STORAGE =           0.0000
       CONSTANT HEAD =           0.0000         CONSTANT HEAD =           0.0000
               WELLS =    25852016.5292                 WELLS =       31450.1418
            RECHARGE =           0.0000              RECHARGE =           0.0000
      STREAM LEAKAGE =    57594458.9570        STREAM LEAKAGE =       39526.0879

           TOTAL OUT =    84411777.0316             TOTAL OUT =       70976.2296

            IN - OUT =          -1.8074              IN - OUT =      -7.4796E-04

 PERCENT DISCREPANCY =          -0.00     PERCENT DISCREPANCY =          -0.00






         TIME SUMMARY AT END OF TIME STEP    1 IN STRESS PERIOD    9
                    SECONDS     MINUTES      HOURS       DAYS        YEARS
                    -----------------------------------------------------------
   TIME STEP LENGTH 7.94880E+06 1.32480E+05  2208.0      92.000     0.25188    
 STRESS PERIOD TIME 7.94880E+06 1.32480E+05  2208.0      92.000     0.25188    
         TOTAL TIME 7.10208E+07 1.18368E+06  19728.      822.00      2.2505    
1
1
                            STRESS PERIOD NO.   10, LENGTH =   91.00000    
                            -----------------------------------------------

                              NUMBER OF TIME STEPS =     1

                               MULTIPLIER FOR DELT =     1.500

                            INITIAL TIME STEP SIZE =   91.00000    

 WELL NO.  LAYER   ROW   COL   STRESS RATE         
 --------------------------------------------------
      1      1     14     20     -0.1515E+05
      2      1      9      8      -2025.    
      3      1     13     19      -5167.    
      4      1     12     27      -9107.    

      4 WELLS

                 RECHARGE =  2.000000E-03

 REUSING STREAM SEGMENT DATA FROM LAST STRESS PERIOD
 
 SOLVING FOR HEAD 


     7 CALLS TO PCG ROUTINE FOR TIME STEP   1 IN STRESS PERIOD   10
    26 TOTAL ITERATIONS

 OUTPUT CONTROL FOR STRESS PERIOD   10   TIME STEP    1
    SAVE BUDGET
    SAVE HEAD FOR ALL LAYERS
    PRINT HEAD FOR ALL LAYERS
 UBDSV2 SAVING "STREAMFLOW OUT  " ON UNIT  50 AT TIME STEP  1, STRESS PERIOD  10



 STREAM LISTING     PERIOD     10   STEP        1

 LAYER ROW COL. STREAM  RCH.  FLOW INTO     FLOW TO   FLOW OUT OF   OVRLND.     DIRECT     STREAM       STREAM     STREAM     STREAM   STREAMBED  STREAMBED
                SEG.NO.  NO.  STRM. RCH.    AQUIFER    STRM. RCH.    RUNOFF     PRECIP       ET          HEAD       DEPTH      WIDTH   CONDCTNC.   GRADIENT

   1   13    1     1     1    1.0000E+05 -1.9870E+03   1.0199E+05  0.000E+00  0.000E+00  0.000E+00  4.84069E+01  1.455E-01  2.000E+01  2.000E+04 -9.935E-02
   1   13    2     1     2    1.0199E+05 -2.9569E+03   1.0494E+05  0.000E+00  0.000E+00  0.000E+00  4.79317E+01  1.476E-01  2.000E+01  2.000E+04 -1.478E-01
   1   14    3     1     3    1.0494E+05 -5.7122E+02   1.0552E+05  0.000E+00  0.000E+00  0.000E+00  4.74560E+01  1.491E-01  2.000E+01  2.000E+04 -2.856E-02
   1   15    4     1     4    1.0552E+05 -5.5869E+02   1.0607E+05  0.000E+00  0.000E+00  0.000E+00  4.69792E+01  1.496E-01  2.000E+01  2.000E+04 -2.793E-02
   1   16    5     1     5    1.0607E+05 -2.0694E+03   1.0814E+05  0.000E+00  0.000E+00  0.000E+00  4.65030E+01  1.507E-01  2.000E+01  2.000E+04 -1.035E-01
   1   16    6     1     6    1.0814E+05 -1.2798E+03   1.0942E+05  0.000E+00  0.000E+00  0.000E+00  4.60271E+01  1.521E-01  2.000E+01  2.000E+04 -6.399E-02
   1   16    7     1     7    1.0942E+05 -1.2454E+03   1.1067E+05  0.000E+00  0.000E+00  0.000E+00  4.55509E+01  1.532E-01  2.000E+01  2.000E+04 -6.227E-02
   1   16    8     1     8    1.1067E+05 -1.2369E+03   1.1191E+05  0.000E+00  0.000E+00  0.000E+00  4.50747E+01  1.542E-01  2.000E+01  2.000E+04 -6.184E-02
   1   16    9     1     9    1.1191E+05 -1.2298E+03   1.1314E+05  0.000E+00  0.000E+00  0.000E+00  4.45984E+01  1.553E-01  2.000E+01  2.000E+04 -6.149E-02
   1   16   10     1    10    1.1314E+05 -1.2203E+03   1.1436E+05  0.000E+00  0.000E+00  0.000E+00  4.41222E+01  1.563E-01  2.000E+01  2.000E+04 -6.102E-02
   1   16   11     1    11    1.1436E+05 -1.2226E+03   1.1558E+05  0.000E+00  0.000E+00  0.000E+00  4.36459E+01  1.573E-01  2.000E+01  2.000E+04 -6.113E-02
   1   16   12     1    12    1.1558E+05 -2.0006E+03   1.1758E+05  0.000E+00  0.000E+00  0.000E+00  4.31700E+01  1.586E-01  2.000E+01  2.000E+04 -1.000E-01
   1   15   13     1    13    1.1758E+05 -1.8433E+03   1.1942E+05  0.000E+00  0.000E+00  0.000E+00  4.26943E+01  1.602E-01  2.000E+01  2.000E+04 -9.217E-02
   1   14   14     1    14    1.1942E+05 -1.9960E+03   1.2142E+05  0.000E+00  0.000E+00  0.000E+00  4.22185E+01  1.617E-01  2.000E+01  2.000E+04 -9.980E-02
   1   13   15     1    15    1.2142E+05 -2.1613E+03   1.2358E+05  0.000E+00  0.000E+00  0.000E+00  4.17429E+01  1.634E-01  2.000E+01  2.000E+04 -1.081E-01
   1   12   16     1    16    1.2358E+05 -2.9327E+03   1.2651E+05  0.000E+00  0.000E+00  0.000E+00  4.12677E+01  1.654E-01  2.000E+01  2.000E+04 -1.466E-01
   1   12   17     1    17    1.2651E+05 -1.6257E+03   1.2814E+05  0.000E+00  0.000E+00  0.000E+00  4.07922E+01  1.672E-01  2.000E+01  2.000E+04 -8.129E-02
   1   12   18     1    18    1.2814E+05 -1.0214E+03   1.2916E+05  0.000E+00  0.000E+00  0.000E+00  4.03160E+01  1.683E-01  2.000E+01  2.000E+04 -5.107E-02
   1   12   19     1    19    1.2916E+05 -5.0245E+02   1.2966E+05  0.000E+00  0.000E+00  0.000E+00  3.98393E+01  1.689E-01  2.000E+01  2.000E+04 -2.512E-02
   1   13   20     1    20    1.2966E+05  4.7829E+03   1.2488E+05  0.000E+00  0.000E+00  0.000E+00  3.93604E+01  1.672E-01  2.000E+01  2.000E+04  2.391E-01
   1   14   21     1    21    1.2488E+05  3.7406E+03   1.2114E+05  0.000E+00  0.000E+00  0.000E+00  3.88797E+01  1.638E-01  2.000E+01  2.000E+04  1.870E-01
   1   14   22     1    22    1.2114E+05  4.9747E+03   1.1616E+05  0.000E+00  0.000E+00  0.000E+00  3.83989E+01  1.603E-01  2.000E+01  2.000E+04  2.487E-01
   1    9   30     2     1    5.0000E+04 -3.6210E+02   5.0362E+04  0.000E+00  0.000E+00  0.000E+00  4.02411E+01  1.161E-01  2.000E+01  2.000E+04 -1.810E-02
   1    9   29     2     2    5.0362E+04 -5.7712E+02   5.0939E+04  0.000E+00  0.000E+00  0.000E+00  3.99918E+01  1.168E-01  2.000E+01  2.000E+04 -2.886E-02
   1    9   28     2     3    5.0939E+04 -7.1220E+02   5.1651E+04  0.000E+00  0.000E+00  0.000E+00  3.97427E+01  1.177E-01  2.000E+01  2.000E+04 -3.561E-02
   1    9   27     2     4    5.1651E+04 -2.0853E+03   5.3737E+04  0.000E+00  0.000E+00  0.000E+00  3.94946E+01  1.196E-01  2.000E+01  2.000E+04 -1.043E-01
   1   10   26     2     5    5.3737E+04 -1.9848E+02   5.3935E+04  0.000E+00  0.000E+00  0.000E+00  3.92461E+01  1.211E-01  2.000E+01  2.000E+04 -9.924E-03
   1   11   25     2     6    5.3935E+04  5.7129E+01   5.3878E+04  0.000E+00  0.000E+00  0.000E+00  3.89962E+01  1.212E-01  2.000E+01  2.000E+04  2.856E-03
   1   12   24     2     7    5.3878E+04 -1.0276E+03   5.4906E+04  0.000E+00  0.000E+00  0.000E+00  3.87469E+01  1.219E-01  2.000E+01  2.000E+04 -5.138E-02
   1   13   23     2     8    5.4906E+04 -3.3128E+02   5.5237E+04  0.000E+00  0.000E+00  0.000E+00  3.84978E+01  1.228E-01  2.000E+01  2.000E+04 -1.656E-02
   1   14   22     2     9    5.5237E+04  1.9305E+03   5.3307E+04  0.000E+00  0.000E+00  0.000E+00  3.82467E+01  1.217E-01  2.000E+01  2.000E+04  9.652E-02
   1   14   22     3     1    1.6947E+05 -8.5485E+03   1.7802E+05  0.000E+00  0.000E+00  0.000E+00  3.77228E+01  1.672E-01  2.000E+01  2.000E+04 -4.274E-01
   1   15   23     3     2    1.7802E+05 -4.9911E+02   1.7852E+05  0.000E+00  0.000E+00  0.000E+00  3.68365E+01  1.698E-01  2.000E+01  2.000E+04 -2.496E-02
   1   15   24     3     3    1.7852E+05 -3.3550E+02   1.7885E+05  0.000E+00  0.000E+00  0.000E+00  3.59478E+01  1.700E-01  2.000E+01  2.000E+04 -1.677E-02
   1   15   25     3     4    1.7885E+05 -3.1089E+02   1.7916E+05  0.000E+00  0.000E+00  0.000E+00  3.50591E+01  1.702E-01  2.000E+01  2.000E+04 -1.554E-02
   1   15   26     3     5    1.7916E+05 -2.8228E+02   1.7945E+05  0.000E+00  0.000E+00  0.000E+00  3.41704E+01  1.704E-01  2.000E+01  2.000E+04 -1.411E-02
   1   16   27     3     6    1.7945E+05 -3.4146E+02   1.7979E+05  0.000E+00  0.000E+00  0.000E+00  3.32817E+01  1.706E-01  2.000E+01  2.000E+04 -1.707E-02
   1   17   28     3     7    1.7979E+05 -1.2885E+03   1.8108E+05  0.000E+00  0.000E+00  0.000E+00  3.23933E+01  1.710E-01  2.000E+01  2.000E+04 -6.443E-02
   1   18   29     3     8    1.8108E+05 -3.0178E+03   1.8409E+05  0.000E+00  0.000E+00  0.000E+00  3.15056E+01  1.723E-01  2.000E+01  2.000E+04 -1.509E-01
   1   18   30     3     9    1.8409E+05 -3.1941E+03   1.8729E+05  0.000E+00  0.000E+00  0.000E+00  3.06185E+01  1.740E-01  2.000E+01  2.000E+04 -1.597E-01



1
              HEAD IN LAYER   1 AT END OF TIME STEP   1 IN STRESS PERIOD   10
  ---------------------------------------------------------------------------

          1      2      3      4      5      6      7      8      9     10
         11     12     13     14     15     16     17     18     19     20
         21     22     23     24     25     26     27     28     29     30
 .........................................................................
   1  ****** ****** ****** ****** ****** ****** ****** ****** ****** ******
      ****** ****** ****** ****** ****** ****** ****** ****** ****** ******
      ****** ****** ****** ****** ****** ****** ****** ****** ****** ******
   2  ****** ****** ****** ****** ****** ****** ****** ****** ****** ******
      ****** ****** ****** ****** ****** ****** ****** ****** ****** ******
      ****** ****** ****** ****** ****** ****** ****** ****** ****** ******
   3  ****** ****** ****** ****** ****** ****** ****** ****** ****** ******
      ****** ****** ****** ****** ****** ****** ****** ****** ****** ******
      ****** ****** ****** ****** ****** ****** ****** ****** ****** ******
   4  ****** ****** ****** ****** ****** ****** ****** ****** ****** ******
      ****** ****** ****** ****** ****** ****** ****** ****** ****** ******
      ****** ****** ****** ****** ****** ****** ****** ****** ****** ******
   5  ****** ****** ****** ****** ****** ****** ****** ****** ****** ******
      ****** ****** ****** ****** ****** ****** ****** ****** ****** ******
      ****** ****** ****** ****** ****** ****** ****** ****** ****** ******
   6  ****** ****** ****** ****** ****** ****** ****** ****** ****** ******
      ****** ****** ****** ****** ****** ****** ****** ****** ****** ******
      ****** ****** ****** ****** ****** ****** ****** ****** ****** ******
   7  ****** ****** ****** ****** ****** ****** ****** ****** ****** ******
      ****** ****** ****** ****** ****** ****** ****** ****** ****** ******
      ****** ****** ****** ****** ****** ****** ****** ****** ****** ******
   8  ****** ****** ****** ****** ****** ****** ****** ****** ****** ******
      ****** ****** ****** ****** ****** ****** ****** ****** ****** ******
      ****** ****** ****** ****** ****** ****** ****** ****** ****** ******
   9  ****** ****** ****** ****** ****** ****** ****** ****** ****** ******
      ****** ****** ****** ****** ****** ****** ****** ****** ****** ******
      ****** ****** ****** ****** ****** ****** ****** ****** ****** ******
  10  ****** ****** ****** ****** ****** ****** ****** ****** ****** ******
      ****** ****** ****** ****** ****** ****** ****** ****** ****** ******
      ****** ****** ****** ****** ****** ****** ****** ****** ****** ******
  11  ****** ****** ****** ****** ****** ****** ****** ****** ****** ******
      ****** ****** ****** ****** ****** ****** ****** ****** ****** ******
      ****** ****** ****** ****** ****** ****** ****** ****** ****** ******
  12  ****** ****** ****** ****** ****** ****** ****** ****** ****** ******
      ****** ****** ****** ****** ****** ****** ****** ****** ****** ******
      ****** ****** ****** ****** ****** ****** ****** ****** ****** ******
  13  ****** ****** ****** ****** ****** ****** ****** ****** ****** ******
      ****** ****** ****** ****** ****** ****** ****** ****** ****** ******
      ****** ****** ****** ****** ****** ****** ****** ****** ****** ******
  14  ****** ****** ****** ****** ****** ****** ****** ****** ****** ******
      ****** ****** ****** ****** ****** ****** ****** ****** ****** ******
      ****** ****** ****** ****** ****** ****** ****** ****** ****** ******
  15  ****** ****** ****** ****** ****** ****** ****** ****** ****** ******
      ****** ****** ****** ****** ****** ****** ****** ****** ****** ******
      ****** ****** ****** ****** ****** ****** ****** ****** ****** ******
  16  ****** ****** ****** ****** ****** ****** ****** ****** ****** ******
      ****** ****** ****** ****** ****** ****** ****** ****** ****** ******
      ****** ****** ****** ****** ****** ****** ****** ****** ****** ******
  17  ****** ****** ****** ****** ****** ****** ****** ****** ****** ******
      ****** ****** ****** ****** ****** ****** ****** ****** ****** ******
      ****** ****** ****** ****** ****** ****** ****** ****** ****** ******
  18  ****** ****** ****** ****** ****** ****** ****** ****** ****** ******
      ****** ****** ****** ****** ****** ****** ****** ****** ****** ******
      ****** ****** ****** ****** ****** ****** ****** ****** ****** ******
  19  ****** ****** ****** ****** ****** ****** ****** ****** ****** ******
      ****** ****** ****** ****** ****** ****** ****** ****** ****** ******
      ****** ****** ****** ****** ****** ****** ****** ****** ****** ******
  20  ****** ****** ****** ****** ****** ****** ****** ****** ****** ******
      ****** ****** ****** ****** ****** ****** ****** ****** ****** ******
      ****** ****** ****** ****** ****** ****** ****** ****** ****** ******
  21  ****** ****** ****** ****** ****** ****** ****** ****** ****** ******
      ****** ****** ****** ****** ****** ****** ****** ****** ****** ******
      ****** ****** ****** ****** ****** ****** ****** ****** ****** ******
  22  ****** ****** ****** ****** ****** ****** ****** ****** ****** ******
      ****** ****** ****** ****** ****** ****** ****** ****** ****** ******
      ****** ****** ****** ****** ****** ****** ****** ****** ****** ******
  23  ****** ****** ****** ****** ****** ****** ****** ****** ****** ******
      ****** ****** ****** ****** ****** ****** ****** ****** ****** ******
      ****** ****** ****** ****** ****** ****** ****** ****** ****** ******
  24  ****** ****** ****** ****** ****** ****** ****** ****** ****** ******
      ****** ****** ****** ****** ****** ****** ****** ****** ****** ******
      ****** ****** ****** ****** ****** ****** ****** ****** ****** ******
  25  ****** ****** ****** ****** ****** ****** ****** ****** ****** ******
      ****** ****** ****** ****** ****** ****** ****** ****** ****** ******
      ****** ****** ****** ****** ****** ****** ****** ****** ****** ******

 HEAD WILL BE SAVED ON UNIT   51 AT END OF TIME STEP    1, STRESS PERIOD   10
1
  VOLUMETRIC BUDGET FOR ENTIRE MODEL AT END OF TIME STEP    1, STRESS PERIOD  10
  ------------------------------------------------------------------------------

     CUMULATIVE VOLUMES      L**3       RATES FOR THIS TIME STEP      L**3/T
     ------------------                 ------------------------

           IN:                                      IN:
           ---                                      ---
             STORAGE =    32675154.3251               STORAGE =           0.0000
       CONSTANT HEAD =    23679278.5437         CONSTANT HEAD =       29254.9833
               WELLS =           0.0000                 WELLS =           0.0000
            RECHARGE =    23901600.0000              RECHARGE =       55200.0000
      STREAM LEAKAGE =    13250357.4026        STREAM LEAKAGE =       15485.8414

            TOTAL IN =    93506390.2714              TOTAL IN =       99940.8247

          OUT:                                     OUT:
          ----                                     ----
             STORAGE =     2395528.4687               STORAGE =       15716.7794
       CONSTANT HEAD =           0.0000         CONSTANT HEAD =           0.0000
               WELLS =    28713979.4296                 WELLS =       31450.1418
            RECHARGE =           0.0000              RECHARGE =           0.0000
      STREAM LEAKAGE =    62396883.8433        STREAM LEAKAGE =       52773.8998

           TOTAL OUT =    93506391.7416             TOTAL OUT =       99940.8210

            IN - OUT =          -1.4702              IN - OUT =       3.7060E-03

 PERCENT DISCREPANCY =          -0.00     PERCENT DISCREPANCY =           0.00






         TIME SUMMARY AT END OF TIME STEP    1 IN STRESS PERIOD   10
                    SECONDS     MINUTES      HOURS       DAYS        YEARS
                    -----------------------------------------------------------
   TIME STEP LENGTH 7.86240E+06 1.31040E+05  2184.0      91.000     0.24914    
 STRESS PERIOD TIME 7.86240E+06 1.31040E+05  2184.0      91.000     0.24914    
         TOTAL TIME 7.88832E+07 1.31472E+06  21912.      913.00      2.4997    
1
1
                            STRESS PERIOD NO.   11, LENGTH =   91.00000    
                            -----------------------------------------------

                              NUMBER OF TIME STEPS =     1

                               MULTIPLIER FOR DELT =     1.500

                            INITIAL TIME STEP SIZE =   91.00000    

 WELL NO.  LAYER   ROW   COL   STRESS RATE         
 --------------------------------------------------
      1      1     14     20     -0.1515E+05
      2      1      9      8      -2025.    
      3      1     13     19      -5167.    
      4      1     12     27      -9107.    

      4 WELLS

                 RECHARGE =   0.00000    

 REUSING STREAM SEGMENT DATA FROM LAST STRESS PERIOD
 
 SOLVING FOR HEAD 


     7 CALLS TO PCG ROUTINE FOR TIME STEP   1 IN STRESS PERIOD   11
    26 TOTAL ITERATIONS

 OUTPUT CONTROL FOR STRESS PERIOD   11   TIME STEP    1
    SAVE BUDGET
    SAVE HEAD FOR ALL LAYERS
    PRINT HEAD FOR ALL LAYERS
 UBDSV2 SAVING "STREAMFLOW OUT  " ON UNIT  50 AT TIME STEP  1, STRESS PERIOD  11



 STREAM LISTING     PERIOD     11   STEP        1

 LAYER ROW COL. STREAM  RCH.  FLOW INTO     FLOW TO   FLOW OUT OF   OVRLND.     DIRECT     STREAM       STREAM     STREAM     STREAM   STREAMBED  STREAMBED
                SEG.NO.  NO.  STRM. RCH.    AQUIFER    STRM. RCH.    RUNOFF     PRECIP       ET          HEAD       DEPTH      WIDTH   CONDCTNC.   GRADIENT

   1   13    1     1     1    1.0000E+05 -1.4192E+03   1.0142E+05  0.000E+00  0.000E+00  0.000E+00  4.84066E+01  1.453E-01  2.000E+01  2.000E+04 -7.096E-02
   1   13    2     1     2    1.0142E+05 -2.3246E+03   1.0374E+05  0.000E+00  0.000E+00  0.000E+00  4.79310E+01  1.469E-01  2.000E+01  2.000E+04 -1.162E-01
   1   14    3     1     3    1.0374E+05 -3.4026E+02   1.0408E+05  0.000E+00  0.000E+00  0.000E+00  4.74548E+01  1.480E-01  2.000E+01  2.000E+04 -1.701E-02
   1   15    4     1     4    1.0408E+05 -3.1673E+02   1.0440E+05  0.000E+00  0.000E+00  0.000E+00  4.69778E+01  1.483E-01  2.000E+01  2.000E+04 -1.584E-02
   1   16    5     1     5    1.0440E+05 -1.3818E+03   1.0578E+05  0.000E+00  0.000E+00  0.000E+00  4.65013E+01  1.490E-01  2.000E+01  2.000E+04 -6.909E-02
   1   16    6     1     6    1.0578E+05 -8.6551E+02   1.0665E+05  0.000E+00  0.000E+00  0.000E+00  4.60250E+01  1.500E-01  2.000E+01  2.000E+04 -4.328E-02
   1   16    7     1     7    1.0665E+05 -8.4877E+02   1.0750E+05  0.000E+00  0.000E+00  0.000E+00  4.55484E+01  1.507E-01  2.000E+01  2.000E+04 -4.244E-02
   1   16    8     1     8    1.0750E+05 -8.4572E+02   1.0834E+05  0.000E+00  0.000E+00  0.000E+00  4.50719E+01  1.514E-01  2.000E+01  2.000E+04 -4.229E-02
   1   16    9     1     9    1.0834E+05 -8.4089E+02   1.0918E+05  0.000E+00  0.000E+00  0.000E+00  4.45953E+01  1.521E-01  2.000E+01  2.000E+04 -4.204E-02
   1   16   10     1    10    1.0918E+05 -8.3255E+02   1.1002E+05  0.000E+00  0.000E+00  0.000E+00  4.41187E+01  1.528E-01  2.000E+01  2.000E+04 -4.163E-02
   1   16   11     1    11    1.1002E+05 -8.3310E+02   1.1085E+05  0.000E+00  0.000E+00  0.000E+00  4.36422E+01  1.535E-01  2.000E+01  2.000E+04 -4.165E-02
   1   16   12     1    12    1.1085E+05 -1.3552E+03   1.1220E+05  0.000E+00  0.000E+00  0.000E+00  4.31658E+01  1.544E-01  2.000E+01  2.000E+04 -6.776E-02
   1   15   13     1    13    1.1220E+05 -1.1550E+03   1.1336E+05  0.000E+00  0.000E+00  0.000E+00  4.26896E+01  1.555E-01  2.000E+01  2.000E+04 -5.775E-02
   1   14   14     1    14    1.1336E+05 -1.2900E+03   1.1465E+05  0.000E+00  0.000E+00  0.000E+00  4.22133E+01  1.565E-01  2.000E+01  2.000E+04 -6.450E-02
   1   13   15     1    15    1.1465E+05 -1.4609E+03   1.1611E+05  0.000E+00  0.000E+00  0.000E+00  4.17372E+01  1.576E-01  2.000E+01  2.000E+04 -7.304E-02
   1   12   16     1    16    1.1611E+05 -2.2558E+03   1.1837E+05  0.000E+00  0.000E+00  0.000E+00  4.12614E+01  1.591E-01  2.000E+01  2.000E+04 -1.128E-01
   1   12   17     1    17    1.1837E+05 -1.1193E+03   1.1949E+05  0.000E+00  0.000E+00  0.000E+00  4.07855E+01  1.605E-01  2.000E+01  2.000E+04 -5.596E-02
   1   12   18     1    18    1.1949E+05 -5.2261E+02   1.2001E+05  0.000E+00  0.000E+00  0.000E+00  4.03089E+01  1.612E-01  2.000E+01  2.000E+04 -2.613E-02
   1   12   19     1    19    1.2001E+05  1.0990E+02   1.1990E+05  0.000E+00  0.000E+00  0.000E+00  3.98318E+01  1.613E-01  2.000E+01  2.000E+04  5.495E-03
   1   13   20     1    20    1.1990E+05  5.3950E+03   1.1450E+05  0.000E+00  0.000E+00  0.000E+00  3.93523E+01  1.591E-01  2.000E+01  2.000E+04  2.697E-01
   1   14   21     1    21    1.1450E+05  4.3369E+03   1.1017E+05  0.000E+00  0.000E+00  0.000E+00  3.88710E+01  1.551E-01  2.000E+01  2.000E+04  2.168E-01
   1   14   22     1    22    1.1017E+05  5.1203E+03   1.0505E+05  0.000E+00  0.000E+00  0.000E+00  3.83898E+01  1.512E-01  2.000E+01  2.000E+04  2.560E-01
   1    9   30     2     1    5.0000E+04  1.2580E+02   4.9874E+04  0.000E+00  0.000E+00  0.000E+00  4.02408E+01  1.158E-01  2.000E+01  2.000E+04  6.290E-03
   1    9   29     2     2    4.9874E+04 -9.2274E+01   4.9966E+04  0.000E+00  0.000E+00  0.000E+00  3.99908E+01  1.158E-01  2.000E+01  2.000E+04 -4.614E-03
   1    9   28     2     3    4.9966E+04 -2.2957E+02   5.0196E+04  0.000E+00  0.000E+00  0.000E+00  3.97410E+01  1.160E-01  2.000E+01  2.000E+04 -1.148E-02
   1    9   27     2     4    5.0196E+04 -1.4459E+03   5.1642E+04  0.000E+00  0.000E+00  0.000E+00  3.94921E+01  1.171E-01  2.000E+01  2.000E+04 -7.230E-02
   1   10   26     2     5    5.1642E+04  4.5540E+02   5.1187E+04  0.000E+00  0.000E+00  0.000E+00  3.92428E+01  1.178E-01  2.000E+01  2.000E+04  2.277E-02
   1   11   25     2     6    5.1187E+04  6.8720E+02   5.0499E+04  0.000E+00  0.000E+00  0.000E+00  3.89920E+01  1.170E-01  2.000E+01  2.000E+04  3.436E-02
   1   12   24     2     7    5.0499E+04 -4.5456E+02   5.0954E+04  0.000E+00  0.000E+00  0.000E+00  3.87419E+01  1.169E-01  2.000E+01  2.000E+04 -2.273E-02
   1   13   23     2     8    5.0954E+04 -1.4547E+02   5.1099E+04  0.000E+00  0.000E+00  0.000E+00  3.84923E+01  1.173E-01  2.000E+01  2.000E+04 -7.274E-03
   1   14   22     2     9    5.1099E+04  2.1426E+03   4.8957E+04  0.000E+00  0.000E+00  0.000E+00  3.82409E+01  1.159E-01  2.000E+01  2.000E+04  1.071E-01
   1   14   22     3     1    1.5400E+05 -8.4032E+03   1.6241E+05  0.000E+00  0.000E+00  0.000E+00  3.77136E+01  1.581E-01  2.000E+01  2.000E+04 -4.202E-01
   1   15   23     3     2    1.6241E+05 -3.0719E+02   1.6271E+05  0.000E+00  0.000E+00  0.000E+00  3.68273E+01  1.607E-01  2.000E+01  2.000E+04 -1.536E-02
   1   15   24     3     3    1.6271E+05 -1.7045E+02   1.6288E+05  0.000E+00  0.000E+00  0.000E+00  3.59386E+01  1.608E-01  2.000E+01  2.000E+04 -8.522E-03
   1   15   25     3     4    1.6288E+05 -1.4200E+02   1.6303E+05  0.000E+00  0.000E+00  0.000E+00  3.50498E+01  1.609E-01  2.000E+01  2.000E+04 -7.100E-03
   1   15   26     3     5    1.6303E+05 -8.6644E+01   1.6311E+05  0.000E+00  0.000E+00  0.000E+00  3.41610E+01  1.610E-01  2.000E+01  2.000E+04 -4.332E-03
   1   16   27     3     6    1.6311E+05 -1.1854E+02   1.6323E+05  0.000E+00  0.000E+00  0.000E+00  3.32721E+01  1.610E-01  2.000E+01  2.000E+04 -5.927E-03
   1   17   28     3     7    1.6323E+05 -6.7910E+02   1.6391E+05  0.000E+00  0.000E+00  0.000E+00  3.23835E+01  1.613E-01  2.000E+01  2.000E+04 -3.396E-02
   1   18   29     3     8    1.6391E+05 -2.3965E+03   1.6631E+05  0.000E+00  0.000E+00  0.000E+00  3.14955E+01  1.622E-01  2.000E+01  2.000E+04 -1.198E-01
   1   18   30     3     9    1.6631E+05 -2.7052E+03   1.6901E+05  0.000E+00  0.000E+00  0.000E+00  3.06081E+01  1.637E-01  2.000E+01  2.000E+04 -1.353E-01



1
              HEAD IN LAYER   1 AT END OF TIME STEP   1 IN STRESS PERIOD   11
  ---------------------------------------------------------------------------

          1      2      3      4      5      6      7      8      9     10
         11     12     13     14     15     16     17     18     19     20
         21     22     23     24     25     26     27     28     29     30
 .........................................................................
   1  ****** ****** ****** ****** ****** ****** ****** ****** ****** ******
      ****** ****** ****** ****** ****** ****** ****** ****** ****** ******
      ****** ****** ****** ****** ****** ****** ****** ****** ****** ******
   2  ****** ****** ****** ****** ****** ****** ****** ****** ****** ******
      ****** ****** ****** ****** ****** ****** ****** ****** ****** ******
      ****** ****** ****** ****** ****** ****** ****** ****** ****** ******
   3  ****** ****** ****** ****** ****** ****** ****** ****** ****** ******
      ****** ****** ****** ****** ****** ****** ****** ****** ****** ******
      ****** ****** ****** ****** ****** ****** ****** ****** ****** ******
   4  ****** ****** ****** ****** ****** ****** ****** ****** ****** ******
      ****** ****** ****** ****** ****** ****** ****** ****** ****** ******
      ****** ****** ****** ****** ****** ****** ****** ****** ****** ******
   5  ****** ****** ****** ****** ****** ****** ****** ****** ****** ******
      ****** ****** ****** ****** ****** ****** ****** ****** ****** ******
      ****** ****** ****** ****** ****** ****** ****** ****** ****** ******
   6  ****** ****** ****** ****** ****** ****** ****** ****** ****** ******
      ****** ****** ****** ****** ****** ****** ****** ****** ****** ******
      ****** ****** ****** ****** ****** ****** ****** ****** ****** ******
   7  ****** ****** ****** ****** ****** ****** ****** ****** ****** ******
      ****** ****** ****** ****** ****** ****** ****** ****** ****** ******
      ****** ****** ****** ****** ****** ****** ****** ****** ****** ******
   8  ****** ****** ****** ****** ****** ****** ****** ****** ****** ******
      ****** ****** ****** ****** ****** ****** ****** ****** ****** ******
      ****** ****** ****** ****** ****** ****** ****** ****** ****** ******
   9  ****** ****** ****** ****** ****** ****** ****** ****** ****** ******
      ****** ****** ****** ****** ****** ****** ****** ****** ****** ******
      ****** ****** ****** ****** ****** ****** ****** ****** ****** ******
  10  ****** ****** ****** ****** ****** ****** ****** ****** ****** ******
      ****** ****** ****** ****** ****** ****** ****** ****** ****** ******
      ****** ****** ****** ****** ****** ****** ****** ****** ****** ******
  11  ****** ****** ****** ****** ****** ****** ****** ****** ****** ******
      ****** ****** ****** ****** ****** ****** ****** ****** ****** ******
      ****** ****** ****** ****** ****** ****** ****** ****** ****** ******
  12  ****** ****** ****** ****** ****** ****** ****** ****** ****** ******
      ****** ****** ****** ****** ****** ****** ****** ****** ****** ******
      ****** ****** ****** ****** ****** ****** ****** ****** ****** ******
  13  ****** ****** ****** ****** ****** ****** ****** ****** ****** ******
      ****** ****** ****** ****** ****** ****** ****** ****** ****** ******
      ****** ****** ****** ****** ****** ****** ****** ****** ****** ******
  14  ****** ****** ****** ****** ****** ****** ****** ****** ****** ******
      ****** ****** ****** ****** ****** ****** ****** ****** ****** ******
      ****** ****** ****** ****** ****** ****** ****** ****** ****** ******
  15  ****** ****** ****** ****** ****** ****** ****** ****** ****** ******
      ****** ****** ****** ****** ****** ****** ****** ****** ****** ******
      ****** ****** ****** ****** ****** ****** ****** ****** ****** ******
  16  ****** ****** ****** ****** ****** ****** ****** ****** ****** ******
      ****** ****** ****** ****** ****** ****** ****** ****** ****** ******
      ****** ****** ****** ****** ****** ****** ****** ****** ****** ******
  17  ****** ****** ****** ****** ****** ****** ****** ****** ****** ******
      ****** ****** ****** ****** ****** ****** ****** ****** ****** ******
      ****** ****** ****** ****** ****** ****** ****** ****** ****** ******
  18  ****** ****** ****** ****** ****** ****** ****** ****** ****** ******
      ****** ****** ****** ****** ****** ****** ****** ****** ****** ******
      ****** ****** ****** ****** ****** ****** ****** ****** ****** ******
  19  ****** ****** ****** ****** ****** ****** ****** ****** ****** ******
      ****** ****** ****** ****** ****** ****** ****** ****** ****** ******
      ****** ****** ****** ****** ****** ****** ****** ****** ****** ******
  20  ****** ****** ****** ****** ****** ****** ****** ****** ****** ******
      ****** ****** ****** ****** ****** ****** ****** ****** ****** ******
      ****** ****** ****** ****** ****** ****** ****** ****** ****** ******
  21  ****** ****** ****** ****** ****** ****** ****** ****** ****** ******
      ****** ****** ****** ****** ****** ****** ****** ****** ****** ******
      ****** ****** ****** ****** ****** ****** ****** ****** ****** ******
  22  ****** ****** ****** ****** ****** ****** ****** ****** ****** ******
      ****** ****** ****** ****** ****** ****** ****** ****** ****** ******
      ****** ****** ****** ****** ****** ****** ****** ****** ****** ******
  23  ****** ****** ****** ****** ****** ****** ****** ****** ****** ******
      ****** ****** ****** ****** ****** ****** ****** ****** ****** ******
      ****** ****** ****** ****** ****** ****** ****** ****** ****** ******
  24  ****** ****** ****** ****** ****** ****** ****** ****** ****** ******
      ****** ****** ****** ****** ****** ****** ****** ****** ****** ******
      ****** ****** ****** ****** ****** ****** ****** ****** ****** ******
  25  ****** ****** ****** ****** ****** ****** ****** ****** ****** ******
      ****** ****** ****** ****** ****** ****** ****** ****** ****** ******
      ****** ****** ****** ****** ****** ****** ****** ****** ****** ******

 HEAD WILL BE SAVED ON UNIT   51 AT END OF TIME STEP    1, STRESS PERIOD   11
1
  VOLUMETRIC BUDGET FOR ENTIRE MODEL AT END OF TIME STEP    1, STRESS PERIOD  11
  ------------------------------------------------------------------------------

     CUMULATIVE VOLUMES      L**3       RATES FOR THIS TIME STEP      L**3/T
     ------------------                 ------------------------

           IN:                                      IN:
           ---                                      ---
             STORAGE =    34306225.1423               STORAGE =       17923.8551
       CONSTANT HEAD =    26640212.7766         CONSTANT HEAD =       32537.7388
               WELLS =           0.0000                 WELLS =           0.0000
            RECHARGE =    23901600.0000              RECHARGE =           0.0000
      STREAM LEAKAGE =    14922307.9468        STREAM LEAKAGE =       18373.0829

            TOTAL IN =    99770345.8657              TOTAL IN =       68834.6769

          OUT:                                     OUT:
          ----                                     ----
             STORAGE =     2395528.4687               STORAGE =           0.0000
       CONSTANT HEAD =           0.0000         CONSTANT HEAD =           0.0000
               WELLS =    31575942.3301                 WELLS =       31450.1418
            RECHARGE =           0.0000              RECHARGE =           0.0000
      STREAM LEAKAGE =    65798876.9701        STREAM LEAKAGE =       37384.5399

           TOTAL OUT =    99770347.7688             TOTAL OUT =       68834.6816

            IN - OUT =          -1.9031              IN - OUT =      -4.7571E-03

 PERCENT DISCREPANCY =          -0.00     PERCENT DISCREPANCY =          -0.00






         TIME SUMMARY AT END OF TIME STEP    1 IN STRESS PERIOD   11
                    SECONDS     MINUTES      HOURS       DAYS        YEARS
                    -----------------------------------------------------------
   TIME STEP LENGTH 7.86240E+06 1.31040E+05  2184.0      91.000     0.24914    
 STRESS PERIOD TIME 7.86240E+06 1.31040E+05  2184.0      91.000     0.24914    
         TOTAL TIME 8.67456E+07 1.44576E+06  24096.      1004.0      2.7488    
1
1
                            STRESS PERIOD NO.   12, LENGTH =   91.00000    
                            -----------------------------------------------

                              NUMBER OF TIME STEPS =     1

                               MULTIPLIER FOR DELT =     1.500

                            INITIAL TIME STEP SIZE =   91.00000    

 WELL NO.  LAYER   ROW   COL   STRESS RATE         
 --------------------------------------------------
      1      1     14     20     -0.1515E+05
      2      1      9      8      -2025.    
      3      1     13     19      -5167.    
      4      1     12     27      -9107.    

      4 WELLS

                 RECHARGE =  1.000000E-03

 REUSING STREAM SEGMENT DATA FROM LAST STRESS PERIOD
 
 SOLVING FOR HEAD 


     7 CALLS TO PCG ROUTINE FOR TIME STEP   1 IN STRESS PERIOD   12
    24 TOTAL ITERATIONS

 OUTPUT CONTROL FOR STRESS PERIOD   12   TIME STEP    1
    SAVE BUDGET
    SAVE HEAD FOR ALL LAYERS
    PRINT HEAD FOR ALL LAYERS
 UBDSV2 SAVING "STREAMFLOW OUT  " ON UNIT  50 AT TIME STEP  1, STRESS PERIOD  12



 STREAM LISTING     PERIOD     12   STEP        1

 LAYER ROW COL. STREAM  RCH.  FLOW INTO     FLOW TO   FLOW OUT OF   OVRLND.     DIRECT     STREAM       STREAM     STREAM     STREAM   STREAMBED  STREAMBED
                SEG.NO.  NO.  STRM. RCH.    AQUIFER    STRM. RCH.    RUNOFF     PRECIP       ET          HEAD       DEPTH      WIDTH   CONDCTNC.   GRADIENT

   1   13    1     1     1    1.0000E+05 -1.5634E+03   1.0156E+05  0.000E+00  0.000E+00  0.000E+00  4.84067E+01  1.453E-01  2.000E+01  2.000E+04 -7.817E-02
   1   13    2     1     2    1.0156E+05 -2.4796E+03   1.0404E+05  0.000E+00  0.000E+00  0.000E+00  4.79312E+01  1.471E-01  2.000E+01  2.000E+04 -1.240E-01
   1   14    3     1     3    1.0404E+05 -4.1878E+02   1.0446E+05  0.000E+00  0.000E+00  0.000E+00  4.74551E+01  1.483E-01  2.000E+01  2.000E+04 -2.094E-02
   1   15    4     1     4    1.0446E+05 -3.9906E+02   1.0486E+05  0.000E+00  0.000E+00  0.000E+00  4.69782E+01  1.487E-01  2.000E+01  2.000E+04 -1.995E-02
   1   16    5     1     5    1.0486E+05 -1.5916E+03   1.0645E+05  0.000E+00  0.000E+00  0.000E+00  4.65018E+01  1.495E-01  2.000E+01  2.000E+04 -7.958E-02
   1   16    6     1     6    1.0645E+05 -9.9598E+02   1.0745E+05  0.000E+00  0.000E+00  0.000E+00  4.60256E+01  1.506E-01  2.000E+01  2.000E+04 -4.980E-02
   1   16    7     1     7    1.0745E+05 -9.7416E+02   1.0842E+05  0.000E+00  0.000E+00  0.000E+00  4.55492E+01  1.514E-01  2.000E+01  2.000E+04 -4.871E-02
   1   16    8     1     8    1.0842E+05 -9.7007E+02   1.0939E+05  0.000E+00  0.000E+00  0.000E+00  4.50727E+01  1.523E-01  2.000E+01  2.000E+04 -4.850E-02
   1   16    9     1     9    1.0939E+05 -9.6568E+02   1.1036E+05  0.000E+00  0.000E+00  0.000E+00  4.45962E+01  1.531E-01  2.000E+01  2.000E+04 -4.828E-02
   1   16   10     1    10    1.1036E+05 -9.5867E+02   1.1132E+05  0.000E+00  0.000E+00  0.000E+00  4.41198E+01  1.539E-01  2.000E+01  2.000E+04 -4.793E-02
   1   16   11     1    11    1.1132E+05 -9.6147E+02   1.1228E+05  0.000E+00  0.000E+00  0.000E+00  4.36433E+01  1.547E-01  2.000E+01  2.000E+04 -4.807E-02
   1   16   12     1    12    1.1228E+05 -1.5570E+03   1.1384E+05  0.000E+00  0.000E+00  0.000E+00  4.31671E+01  1.557E-01  2.000E+01  2.000E+04 -7.785E-02
   1   15   13     1    13    1.1384E+05 -1.3721E+03   1.1521E+05  0.000E+00  0.000E+00  0.000E+00  4.26910E+01  1.569E-01  2.000E+01  2.000E+04 -6.861E-02
   1   14   14     1    14    1.1521E+05 -1.5077E+03   1.1672E+05  0.000E+00  0.000E+00  0.000E+00  4.22149E+01  1.581E-01  2.000E+01  2.000E+04 -7.539E-02
   1   13   15     1    15    1.1672E+05 -1.6713E+03   1.1839E+05  0.000E+00  0.000E+00  0.000E+00  4.17389E+01  1.594E-01  2.000E+01  2.000E+04 -8.357E-02
   1   12   16     1    16    1.1839E+05 -2.4399E+03   1.2083E+05  0.000E+00  0.000E+00  0.000E+00  4.12633E+01  1.611E-01  2.000E+01  2.000E+04 -1.220E-01
   1   12   17     1    17    1.2083E+05 -1.2731E+03   1.2210E+05  0.000E+00  0.000E+00  0.000E+00  4.07876E+01  1.626E-01  2.000E+01  2.000E+04 -6.365E-02
   1   12   18     1    18    1.2210E+05 -6.7857E+02   1.2278E+05  0.000E+00  0.000E+00  0.000E+00  4.03111E+01  1.633E-01  2.000E+01  2.000E+04 -3.393E-02
   1   12   19     1    19    1.2278E+05 -8.2941E+01   1.2286E+05  0.000E+00  0.000E+00  0.000E+00  3.98341E+01  1.636E-01  2.000E+01  2.000E+04 -4.147E-03
   1   13   20     1    20    1.2286E+05  5.1843E+03   1.1768E+05  0.000E+00  0.000E+00  0.000E+00  3.93548E+01  1.616E-01  2.000E+01  2.000E+04  2.592E-01
   1   14   21     1    21    1.1768E+05  4.1426E+03   1.1353E+05  0.000E+00  0.000E+00  0.000E+00  3.88737E+01  1.578E-01  2.000E+01  2.000E+04  2.071E-01
   1   14   22     1    22    1.1353E+05  5.0675E+03   1.0847E+05  0.000E+00  0.000E+00  0.000E+00  3.83926E+01  1.540E-01  2.000E+01  2.000E+04  2.534E-01
   1    9   30     2     1    5.0000E+04 -5.0706E+01   5.0051E+04  0.000E+00  0.000E+00  0.000E+00  4.02409E+01  1.159E-01  2.000E+01  2.000E+04 -2.535E-03
   1    9   29     2     2    5.0051E+04 -2.6674E+02   5.0317E+04  0.000E+00  0.000E+00  0.000E+00  3.99911E+01  1.161E-01  2.000E+01  2.000E+04 -1.334E-02
   1    9   28     2     3    5.0317E+04 -4.0054E+02   5.0718E+04  0.000E+00  0.000E+00  0.000E+00  3.97416E+01  1.166E-01  2.000E+01  2.000E+04 -2.003E-02
   1    9   27     2     4    5.0718E+04 -1.6553E+03   5.2373E+04  0.000E+00  0.000E+00  0.000E+00  3.94930E+01  1.180E-01  2.000E+01  2.000E+04 -8.277E-02
   1   10   26     2     5    5.2373E+04  2.2541E+02   5.2148E+04  0.000E+00  0.000E+00  0.000E+00  3.92440E+01  1.190E-01  2.000E+01  2.000E+04  1.127E-02
   1   11   25     2     6    5.2148E+04  4.6113E+02   5.1687E+04  0.000E+00  0.000E+00  0.000E+00  3.89935E+01  1.185E-01  2.000E+01  2.000E+04  2.306E-02
   1   12   24     2     7    5.1687E+04 -6.6089E+02   5.2348E+04  0.000E+00  0.000E+00  0.000E+00  3.87436E+01  1.186E-01  2.000E+01  2.000E+04 -3.304E-02
   1   13   23     2     8    5.2348E+04 -2.2312E+02   5.2571E+04  0.000E+00  0.000E+00  0.000E+00  3.84943E+01  1.193E-01  2.000E+01  2.000E+04 -1.116E-02
   1   14   22     2     9    5.2571E+04  2.0745E+03   5.0496E+04  0.000E+00  0.000E+00  0.000E+00  3.82430E+01  1.180E-01  2.000E+01  2.000E+04  1.037E-01
   1   14   22     3     1    1.5896E+05 -8.4535E+03   1.6742E+05  0.000E+00  0.000E+00  0.000E+00  3.77166E+01  1.610E-01  2.000E+01  2.000E+04 -4.227E-01
   1   15   23     3     2    1.6742E+05 -3.7926E+02   1.6780E+05  0.000E+00  0.000E+00  0.000E+00  3.68303E+01  1.636E-01  2.000E+01  2.000E+04 -1.896E-02
   1   15   24     3     3    1.6780E+05 -2.3556E+02   1.6803E+05  0.000E+00  0.000E+00  0.000E+00  3.59416E+01  1.638E-01  2.000E+01  2.000E+04 -1.178E-02
   1   15   25     3     4    1.6803E+05 -2.0838E+02   1.6824E+05  0.000E+00  0.000E+00  0.000E+00  3.50528E+01  1.639E-01  2.000E+01  2.000E+04 -1.042E-02
   1   15   26     3     5    1.6824E+05 -1.6414E+02   1.6840E+05  0.000E+00  0.000E+00  0.000E+00  3.41641E+01  1.641E-01  2.000E+01  2.000E+04 -8.207E-03
   1   16   27     3     6    1.6840E+05 -2.0535E+02   1.6861E+05  0.000E+00  0.000E+00  0.000E+00  3.32753E+01  1.642E-01  2.000E+01  2.000E+04 -1.027E-02
   1   17   28     3     7    1.6861E+05 -8.9993E+02   1.6951E+05  0.000E+00  0.000E+00  0.000E+00  3.23867E+01  1.645E-01  2.000E+01  2.000E+04 -4.500E-02
   1   18   29     3     8    1.6951E+05 -2.5974E+03   1.7211E+05  0.000E+00  0.000E+00  0.000E+00  3.14988E+01  1.655E-01  2.000E+01  2.000E+04 -1.299E-01
   1   18   30     3     9    1.7211E+05 -2.8735E+03   1.7498E+05  0.000E+00  0.000E+00  0.000E+00  3.06115E+01  1.671E-01  2.000E+01  2.000E+04 -1.437E-01



1
              HEAD IN LAYER   1 AT END OF TIME STEP   1 IN STRESS PERIOD   12
  ---------------------------------------------------------------------------

          1      2      3      4      5      6      7      8      9     10
         11     12     13     14     15     16     17     18     19     20
         21     22     23     24     25     26     27     28     29     30
 .........................................................................
   1  ****** ****** ****** ****** ****** ****** ****** ****** ****** ******
      ****** ****** ****** ****** ****** ****** ****** ****** ****** ******
      ****** ****** ****** ****** ****** ****** ****** ****** ****** ******
   2  ****** ****** ****** ****** ****** ****** ****** ****** ****** ******
      ****** ****** ****** ****** ****** ****** ****** ****** ****** ******
      ****** ****** ****** ****** ****** ****** ****** ****** ****** ******
   3  ****** ****** ****** ****** ****** ****** ****** ****** ****** ******
      ****** ****** ****** ****** ****** ****** ****** ****** ****** ******
      ****** ****** ****** ****** ****** ****** ****** ****** ****** ******
   4  ****** ****** ****** ****** ****** ****** ****** ****** ****** ******
      ****** ****** ****** ****** ****** ****** ****** ****** ****** ******
      ****** ****** ****** ****** ****** ****** ****** ****** ****** ******
   5  ****** ****** ****** ****** ****** ****** ****** ****** ****** ******
      ****** ****** ****** ****** ****** ****** ****** ****** ****** ******
      ****** ****** ****** ****** ****** ****** ****** ****** ****** ******
   6  ****** ****** ****** ****** ****** ****** ****** ****** ****** ******
      ****** ****** ****** ****** ****** ****** ****** ****** ****** ******
      ****** ****** ****** ****** ****** ****** ****** ****** ****** ******
   7  ****** ****** ****** ****** ****** ****** ****** ****** ****** ******
      ****** ****** ****** ****** ****** ****** ****** ****** ****** ******
      ****** ****** ****** ****** ****** ****** ****** ****** ****** ******
   8  ****** ****** ****** ****** ****** ****** ****** ****** ****** ******
      ****** ****** ****** ****** ****** ****** ****** ****** ****** ******
      ****** ****** ****** ****** ****** ****** ****** ****** ****** ******
   9  ****** ****** ****** ****** ****** ****** ****** ****** ****** ******
      ****** ****** ****** ****** ****** ****** ****** ****** ****** ******
      ****** ****** ****** ****** ****** ****** ****** ****** ****** ******
  10  ****** ****** ****** ****** ****** ****** ****** ****** ****** ******
      ****** ****** ****** ****** ****** ****** ****** ****** ****** ******
      ****** ****** ****** ****** ****** ****** ****** ****** ****** ******
  11  ****** ****** ****** ****** ****** ****** ****** ****** ****** ******
      ****** ****** ****** ****** ****** ****** ****** ****** ****** ******
      ****** ****** ****** ****** ****** ****** ****** ****** ****** ******
  12  ****** ****** ****** ****** ****** ****** ****** ****** ****** ******
      ****** ****** ****** ****** ****** ****** ****** ****** ****** ******
      ****** ****** ****** ****** ****** ****** ****** ****** ****** ******
  13  ****** ****** ****** ****** ****** ****** ****** ****** ****** ******
      ****** ****** ****** ****** ****** ****** ****** ****** ****** ******
      ****** ****** ****** ****** ****** ****** ****** ****** ****** ******
  14  ****** ****** ****** ****** ****** ****** ****** ****** ****** ******
      ****** ****** ****** ****** ****** ****** ****** ****** ****** ******
      ****** ****** ****** ****** ****** ****** ****** ****** ****** ******
  15  ****** ****** ****** ****** ****** ****** ****** ****** ****** ******
      ****** ****** ****** ****** ****** ****** ****** ****** ****** ******
      ****** ****** ****** ****** ****** ****** ****** ****** ****** ******
  16  ****** ****** ****** ****** ****** ****** ****** ****** ****** ******
      ****** ****** ****** ****** ****** ****** ****** ****** ****** ******
      ****** ****** ****** ****** ****** ****** ****** ****** ****** ******
  17  ****** ****** ****** ****** ****** ****** ****** ****** ****** ******
      ****** ****** ****** ****** ****** ****** ****** ****** ****** ******
      ****** ****** ****** ****** ****** ****** ****** ****** ****** ******
  18  ****** ****** ****** ****** ****** ****** ****** ****** ****** ******
      ****** ****** ****** ****** ****** ****** ****** ****** ****** ******
      ****** ****** ****** ****** ****** ****** ****** ****** ****** ******
  19  ****** ****** ****** ****** ****** ****** ****** ****** ****** ******
      ****** ****** ****** ****** ****** ****** ****** ****** ****** ******
      ****** ****** ****** ****** ****** ****** ****** ****** ****** ******
  20  ****** ****** ****** ****** ****** ****** ****** ****** ****** ******
      ****** ****** ****** ****** ****** ****** ****** ****** ****** ******
      ****** ****** ****** ****** ****** ****** ****** ****** ****** ******
  21  ****** ****** ****** ****** ****** ****** ****** ****** ****** ******
      ****** ****** ****** ****** ****** ****** ****** ****** ****** ******
      ****** ****** ****** ****** ****** ****** ****** ****** ****** ******
  22  ****** ****** ****** ****** ****** ****** ****** ****** ****** ******
      ****** ****** ****** ****** ****** ****** ****** ****** ****** ******
      ****** ****** ****** ****** ****** ****** ****** ****** ****** ******
  23  ****** ****** ****** ****** ****** ****** ****** ****** ****** ******
      ****** ****** ****** ****** ****** ****** ****** ****** ****** ******
      ****** ****** ****** ****** ****** ****** ****** ****** ****** ******
  24  ****** ****** ****** ****** ****** ****** ****** ****** ****** ******
      ****** ****** ****** ****** ****** ****** ****** ****** ****** ******
      ****** ****** ****** ****** ****** ****** ****** ****** ****** ******
  25  ****** ****** ****** ****** ****** ****** ****** ****** ****** ******
      ****** ****** ****** ****** ****** ****** ****** ****** ****** ******
      ****** ****** ****** ****** ****** ****** ****** ****** ****** ******

 HEAD WILL BE SAVED ON UNIT   51 AT END OF TIME STEP    1, STRESS PERIOD   12
1
  VOLUMETRIC BUDGET FOR ENTIRE MODEL AT END OF TIME STEP    1, STRESS PERIOD  12
  ------------------------------------------------------------------------------

     CUMULATIVE VOLUMES      L**3       RATES FOR THIS TIME STEP      L**3/T
     ------------------                 ------------------------

           IN:                                      IN:
           ---                                      ---
             STORAGE =    34307206.6101               STORAGE =          10.7854
       CONSTANT HEAD =    29537641.2545         CONSTANT HEAD =       31839.8734
               WELLS =           0.0000                 WELLS =           0.0000
            RECHARGE =    26413200.0000              RECHARGE =       27600.0000
      STREAM LEAKAGE =    16483451.7645        STREAM LEAKAGE =       17155.4266

            TOTAL IN =   106741499.6290              TOTAL IN =       76606.0853

          OUT:                                     OUT:
          ----                                     ----
             STORAGE =     2670388.8182               STORAGE =        3020.4434
       CONSTANT HEAD =           0.0000         CONSTANT HEAD =           0.0000
               WELLS =    34437905.2305                 WELLS =       31450.1418
            RECHARGE =           0.0000              RECHARGE =           0.0000
      STREAM LEAKAGE =    69633207.4002        STREAM LEAKAGE =       42135.4992

           TOTAL OUT =   106741501.4489             TOTAL OUT =       76606.0844

            IN - OUT =          -1.8199              IN - OUT =       9.1365E-04

 PERCENT DISCREPANCY =          -0.00     PERCENT DISCREPANCY =           0.00






         TIME SUMMARY AT END OF TIME STEP    1 IN STRESS PERIOD   12
                    SECONDS     MINUTES      HOURS       DAYS        YEARS
                    -----------------------------------------------------------
   TIME STEP LENGTH 7.86240E+06 1.31040E+05  2184.0      91.000     0.24914    
 STRESS PERIOD TIME 7.86240E+06 1.31040E+05  2184.0      91.000     0.24914    
         TOTAL TIME 9.46080E+07 1.57680E+06  26280.      1095.0      2.9979    
1

 Run end date and time (yyyy/mm/dd hh:mm:ss): 2019/03/13 15:14:26
 Elapsed run time:  0.095 Seconds

