                                  MODFLOW-2005     
      U.S. GEOLOGICAL SURVEY MODULAR FINITE-DIFFERENCE GROUND-WATER FLOW MODEL
                            VERSION 1.11.00 8/8/2013

 LIST FILE: supply2.lst
                         UNIT   10

 OPENING ..\data\supply.dis
 FILE TYPE:DIS   UNIT   11   STATUS:OLD    
 FORMAT:FORMATTED              ACCESS:SEQUENTIAL          

 OPENING ..\data\supply.ba6
 FILE TYPE:BAS6   UNIT   12   STATUS:OLD    
 FORMAT:FORMATTED              ACCESS:SEQUENTIAL          

 OPENING ..\data\supply_het.bc6
 FILE TYPE:BCF6   UNIT   13   STATUS:OLD    
 FORMAT:FORMATTED              ACCESS:SEQUENTIAL          

 OPENING ..\data\supply.rch
 FILE TYPE:RCH   UNIT   15   STATUS:OLD    
 FORMAT:FORMATTED              ACCESS:SEQUENTIAL          

 OPENING ..\data\supply2.sfr
 FILE TYPE:SFR   UNIT   16   STATUS:OLD    
 FORMAT:FORMATTED              ACCESS:SEQUENTIAL          

 OPENING ..\data\supply.oc
 FILE TYPE:OC   UNIT   17   STATUS:OLD    
 FORMAT:FORMATTED              ACCESS:SEQUENTIAL          

 OPENING ..\data\supply.pcg
 FILE TYPE:PCG   UNIT   18   STATUS:OLD    
 FORMAT:FORMATTED              ACCESS:SEQUENTIAL          

 OPENING supply2.wel
 FILE TYPE:WEL   UNIT   19   STATUS:OLD    
 FORMAT:FORMATTED              ACCESS:SEQUENTIAL          

 OPENING supply2sf.cbc
 FILE TYPE:DATA(BINARY)   UNIT   50   STATUS:UNKNOWN
 FORMAT:BINARY                 ACCESS:SEQUENTIAL          

 OPENING supply2hd.bhd
 FILE TYPE:DATA(BINARY)   UNIT   51   STATUS:UNKNOWN
 FORMAT:BINARY                 ACCESS:SEQUENTIAL          

 BAS -- BASIC PACKAGE, VERSION 7, 5/2/2005 INPUT READ FROM UNIT   12
 
 MODFLOW was compiled using uniform precision
 Precision of REAL and DOUBLE PRECISION variables:          15

 DISCRETIZATION INPUT DATA READ FROM UNIT   11
    1 LAYERS        25 ROWS        30 COLUMNS
   12 STRESS PERIOD(S) IN SIMULATION
 MODEL TIME UNIT IS DAYS
 MODEL LENGTH UNIT IS UNDEFINED
  Confining bed flag for each layer:
   0

                     DELR =   200.000    

                     DELC =   200.000    

 TOP ELEVATION OF LAYER 1 =  100.0000    

   MODEL LAYER BOTTOM EL. =   0.00000     FOR LAYER   1


 STRESS PERIOD     LENGTH       TIME STEPS     MULTIPLIER FOR DELT    SS FLAG
 ----------------------------------------------------------------------------
        1         92.00000          1                    1.500         TR
        2         91.00000          1                    1.500         TR
        3         91.00000          1                    1.500         TR
        4         91.00000          1                    1.500         TR
        5         92.00000          1                    1.500         TR
        6         91.00000          1                    1.500         TR
        7         91.00000          1                    1.500         TR
        8         91.00000          1                    1.500         TR
        9         92.00000          1                    1.500         TR
       10         91.00000          1                    1.500         TR
       11         91.00000          1                    1.500         TR
       12         91.00000          1                    1.500         TR

 TRANSIENT SIMULATION



 
 #MODOFC transient water supply sample problem                                   
 #                                                                               
 THE FREE FORMAT OPTION HAS BEEN SELECTED



                     BOUNDARY ARRAY FOR LAYER   1
 READING ON UNIT   12 WITH FORMAT: (20I4)              

 AQUIFER HEAD WILL BE SET TO   0.0000     AT ALL NO-FLOW NODES (IBOUND=0).



                       INITIAL HEAD FOR LAYER   1
 READING ON UNIT   12 WITH FORMAT: (10F13.0)           

 OUTPUT CONTROL IS SPECIFIED ONLY AT TIME STEPS FOR WHICH OUTPUT IS DESIRED
 COMPACT CELL-BY-CELL BUDGET FILES WILL BE WRITTEN
 HEAD PRINT FORMAT CODE IS  18    DRAWDOWN PRINT FORMAT CODE IS   0
 HEADS WILL BE SAVED ON UNIT   51    DRAWDOWNS WILL BE SAVED ON UNIT    0

 BCF -- BLOCK-CENTERED FLOW PACKAGE, VERSION 7, 5/2/2005
         INPUT READ FROM UNIT 13
 TRANSIENT SIMULATION
 HEAD AT CELLS THAT CONVERT TO DRY=   0.0000    
 WETTING CAPABILITY IS NOT ACTIVE
      LAYER  LAYER-TYPE CODE     INTERBLOCK T
      --------------------------------------------
         1            0          0 -- HARMONIC    

 COLUMN TO ROW ANISOTROPY =  1.000000    

     PRIMARY STORAGE COEF =  5.000000E-02 FOR LAYER   1



               TRANSMIS. ALONG ROWS FOR LAYER   1
 READING ON UNIT   13 WITH FORMAT: (FREE)              

 WEL -- WELL PACKAGE, VERSION 7, 5/2/2005 INPUT READ FROM UNIT   19
 # Well package input file written by MMProc
 No named parameters
 MAXIMUM OF      4 ACTIVE WELLS AT ONE TIME


     0 Well parameters

 RCH -- RECHARGE PACKAGE, VERSION 7, 5/2/2005 INPUT READ FROM UNIT   15
 No named parameters
 OPTION 1 -- RECHARGE TO TOP LAYER


     0 Recharge parameters

 SFR7 -- STREAMFLOW ROUTING PACKAGE, VERSION 1.0.7, 2013-01-15
         INPUT READ FROM UNIT  16
 #  Supply2 test problem for GWM-VI
 #  The eighth entry in the first data line is ISTCB2 -
 #    Setting this to a negative number indicates that
 #    streamflows out of the reach will be saved to a
 #    binary file.  The absolute value of ISTCB2 is the
 #    unit to which unformatted flows will be written.
 #
 No named parameters
 Segment information will not be 
 read by reach
 No named parameters
 No specifed inflow files


 NUMBER OF STREAM REACHES IS   40

 NUMBER OF STREAM SEGMENTS IS    3

 NUMBER OF STREAM PARAMETERS IS    0

 NUMBER OF STREAM SEGMENTS DEFINED USING PARAMETERS IS              0

 MAXIMUM ERROR FOR STREAM LEAKAGE RATES IS  1.00E-04

 CONSTANT FOR MANNINGS EQUATION IS  1.2839E+05





   STREAM NETWORK DESCRIPTION: 

   LAYER    ROW    COL   SEGMENT   REACH     LENGTH
                          NUMBER   NUMBER    IN CELL        
   --------------------------------------------------
      1     13      1       1        1    2.0000E+02
      1     13      2       1        2    2.0000E+02
      1     14      3       1        3    2.0000E+02
      1     15      4       1        4    2.0000E+02
      1     16      5       1        5    2.0000E+02
      1     16      6       1        6    2.0000E+02
      1     16      7       1        7    2.0000E+02
      1     16      8       1        8    2.0000E+02
      1     16      9       1        9    2.0000E+02
      1     16     10       1       10    2.0000E+02
      1     16     11       1       11    2.0000E+02
      1     16     12       1       12    2.0000E+02
      1     15     13       1       13    2.0000E+02
      1     14     14       1       14    2.0000E+02
      1     13     15       1       15    2.0000E+02
      1     12     16       1       16    2.0000E+02
      1     12     17       1       17    2.0000E+02
      1     12     18       1       18    2.0000E+02
      1     12     19       1       19    2.0000E+02
      1     13     20       1       20    2.0000E+02
      1     14     21       1       21    2.0000E+02
      1     14     22       1       22    2.0000E+02
      1      9     30       2        1    2.0000E+02
      1      9     29       2        2    2.0000E+02
      1      9     28       2        3    2.0000E+02
      1      9     27       2        4    2.0000E+02
      1     10     26       2        5    2.0000E+02
      1     11     25       2        6    2.0000E+02
      1     12     24       2        7    2.0000E+02
      1     13     23       2        8    2.0000E+02
      1     14     22       2        9    2.0000E+02
      1     14     22       3        1    2.0000E+02
      1     15     23       3        2    2.0000E+02
      1     15     24       3        3    2.0000E+02
      1     15     25       3        4    2.0000E+02
      1     15     26       3        5    2.0000E+02
      1     16     27       3        6    2.0000E+02
      1     17     28       3        7    2.0000E+02
      1     18     29       3        8    2.0000E+02
      1     18     30       3        9    2.0000E+02




 PCG -- CONJUGATE-GRADIENT SOLUTION PACKAGE, VERSION 7, 5/2/2005
 MAXIMUM OF    500 CALLS OF SOLUTION ROUTINE
 MAXIMUM OF      5 INTERNAL ITERATIONS PER CALL TO SOLUTION ROUTINE
 MATRIX PRECONDITIONING TYPE :    1



                                    SOLUTION BY THE CONJUGATE-GRADIENT METHOD
                                   -------------------------------------------
                    MAXIMUM NUMBER OF CALLS TO PCG ROUTINE =      500
                        MAXIMUM ITERATIONS PER CALL TO PCG =        5
                               MATRIX PRECONDITIONING TYPE =        1
        RELAXATION FACTOR (ONLY USED WITH PRECOND. TYPE 1) =    0.10000E+01
 PARAMETER OF POLYNOMIAL PRECOND. = 2 (2) OR IS CALCULATED :        0
                         HEAD CHANGE CRITERION FOR CLOSURE =    0.10000E-05
                     RESIDUAL CHANGE CRITERION FOR CLOSURE =    0.10000E+01
            PCG HEAD AND RESIDUAL CHANGE PRINTOUT INTERVAL =        1
     PRINTING FROM SOLVER IS LIMITED(1) OR SUPPRESSED (>1) =        1
                            STEADY-STATE DAMPING PARAMETER =    0.10000E+01
                               TRANSIENT DAMPING PARAMETER =    0.10000E+01
1
                            STRESS PERIOD NO.    1, LENGTH =   92.00000    
                            -----------------------------------------------

                              NUMBER OF TIME STEPS =     1

                               MULTIPLIER FOR DELT =     1.500

                            INITIAL TIME STEP SIZE =   92.00000    

 WELL NO.  LAYER   ROW   COL   STRESS RATE         
 --------------------------------------------------
      1      1     20     17      -6946.    
      2      1     18     14      -7709.    
      3      1      9      3      -2375.    
      4      1     21     12      -6598.    

      4 WELLS

                 RECHARGE =  5.000000E-04



 CLASSIFICATION & COUNT OF STREAM SEGMENTS BASED ON SOURCE OF INFLOW:

                HEADWATER     DIVERSION     RECEIVES TRIBUTARY FLOW
                ---------     ---------     -----------------------
                     2              0               1



                    INPUT DATA FOR EACH STREAM SEGMENT
 ---------------------------------------------------------------------------------------------

 SEGMENT    SEG.     INFLOW   OVERLAND   STREAM    STREAM   ICALC  OUTFLOW  DIVERSION PRIORITY
    NO.    LENGTH     RATE     RUNOFF      ET       PPT.    METH.  TO SEG.  FROM SEG.    NO.

      1  4.400E+03 1.000E+05 0.000E+00 0.000E+00 0.000E+00    1        3        0        0
      2  1.800E+03 5.000E+04 0.000E+00 0.000E+00 0.000E+00    1        3        0        0
      3  1.800E+03 0.000E+00 0.000E+00 0.000E+00 0.000E+00    1        0        0        0


         STREAMBED PROPERTIES AND STREAM DIMENSIONS

 SEGMENT     BED HYD. COND.      BED THICKNESS     ELEV.-TOP OF BED     WIDTH OF STREAM     DEPTH OF STREAM    STREAM ROUGHNESS
    No.     UPPER     LOWER     UPPER     LOWER     UPPER     LOWER     UPPER     LOWER     UPPER     LOWER   CHANNEL      BANK

     1  5.000E+00 5.000E+00 1.000E+00 1.000E+00 4.850E+01 3.800E+01 2.000E+01 2.000E+01                     5.000E-02
     2  5.000E+00 5.000E+00 1.000E+00 1.000E+00 4.025E+01 3.800E+01 2.000E+01 2.000E+01                     5.000E-02
     3  5.000E+00 5.000E+00 1.000E+00 1.000E+00 3.800E+01 3.000E+01 2.000E+01 2.000E+01                     5.000E-02



 
 SOLVING FOR HEAD 


     9 CALLS TO PCG ROUTINE FOR TIME STEP   1 IN STRESS PERIOD    1
    36 TOTAL ITERATIONS

 OUTPUT CONTROL FOR STRESS PERIOD    1   TIME STEP    1
    SAVE BUDGET
    SAVE HEAD FOR ALL LAYERS
    PRINT HEAD FOR ALL LAYERS
 UBDSV2 SAVING "STREAMFLOW OUT  " ON UNIT  50 AT TIME STEP  1, STRESS PERIOD   1



 STREAM LISTING     PERIOD      1   STEP        1

 LAYER ROW COL. STREAM  RCH.  FLOW INTO     FLOW TO   FLOW OUT OF   OVRLND.     DIRECT     STREAM       STREAM     STREAM     STREAM   STREAMBED  STREAMBED
                SEG.NO.  NO.  STRM. RCH.    AQUIFER    STRM. RCH.    RUNOFF     PRECIP       ET          HEAD       DEPTH      WIDTH   CONDCTNC.   GRADIENT

   1   13    1     1     1    1.0000E+05 -5.8848E+03   1.0588E+05  0.000E+00  0.000E+00  0.000E+00  4.84086E+01  1.472E-01  2.000E+01  2.000E+04 -2.942E-01
   1   13    2     1     2    1.0588E+05 -7.3392E+03   1.1322E+05  0.000E+00  0.000E+00  0.000E+00  4.79369E+01  1.528E-01  2.000E+01  2.000E+04 -3.670E-01
   1   14    3     1     3    1.1322E+05 -2.1823E+03   1.1541E+05  0.000E+00  0.000E+00  0.000E+00  4.74636E+01  1.567E-01  2.000E+01  2.000E+04 -1.091E-01
   1   15    4     1     4    1.1541E+05 -2.2523E+03   1.1766E+05  0.000E+00  0.000E+00  0.000E+00  4.69881E+01  1.586E-01  2.000E+01  2.000E+04 -1.126E-01
   1   16    5     1     5    1.1766E+05 -7.0118E+03   1.2467E+05  0.000E+00  0.000E+00  0.000E+00  4.65146E+01  1.623E-01  2.000E+01  2.000E+04 -3.506E-01
   1   16    6     1     6    1.2467E+05 -4.1543E+03   1.2882E+05  0.000E+00  0.000E+00  0.000E+00  4.60418E+01  1.668E-01  2.000E+01  2.000E+04 -2.077E-01
   1   16    7     1     7    1.2882E+05 -3.9403E+03   1.3276E+05  0.000E+00  0.000E+00  0.000E+00  4.55677E+01  1.699E-01  2.000E+01  2.000E+04 -1.970E-01
   1   16    8     1     8    1.3276E+05 -3.8254E+03   1.3659E+05  0.000E+00  0.000E+00  0.000E+00  4.50934E+01  1.729E-01  2.000E+01  2.000E+04 -1.913E-01
   1   16    9     1     9    1.3659E+05 -3.7089E+03   1.4030E+05  0.000E+00  0.000E+00  0.000E+00  4.46190E+01  1.758E-01  2.000E+01  2.000E+04 -1.854E-01
   1   16   10     1    10    1.4030E+05 -3.5541E+03   1.4385E+05  0.000E+00  0.000E+00  0.000E+00  4.41445E+01  1.786E-01  2.000E+01  2.000E+04 -1.777E-01
   1   16   11     1    11    1.4385E+05 -3.3475E+03   1.4720E+05  0.000E+00  0.000E+00  0.000E+00  4.36698E+01  1.812E-01  2.000E+01  2.000E+04 -1.674E-01
   1   16   12     1    12    1.4720E+05 -5.1943E+03   1.5240E+05  0.000E+00  0.000E+00  0.000E+00  4.31957E+01  1.843E-01  2.000E+01  2.000E+04 -2.597E-01
   1   15   13     1    13    1.5240E+05 -6.0949E+03   1.5849E+05  0.000E+00  0.000E+00  0.000E+00  4.27226E+01  1.885E-01  2.000E+01  2.000E+04 -3.047E-01
   1   14   14     1    14    1.5849E+05 -7.0762E+03   1.6557E+05  0.000E+00  0.000E+00  0.000E+00  4.22500E+01  1.932E-01  2.000E+01  2.000E+04 -3.538E-01
   1   13   15     1    15    1.6557E+05 -7.7803E+03   1.7335E+05  0.000E+00  0.000E+00  0.000E+00  4.17780E+01  1.985E-01  2.000E+01  2.000E+04 -3.890E-01
   1   12   16     1    16    1.7335E+05 -8.7353E+03   1.8208E+05  0.000E+00  0.000E+00  0.000E+00  4.13065E+01  2.042E-01  2.000E+01  2.000E+04 -4.368E-01
   1   12   17     1    17    1.8208E+05 -6.1440E+03   1.8823E+05  0.000E+00  0.000E+00  0.000E+00  4.08343E+01  2.093E-01  2.000E+01  2.000E+04 -3.072E-01
   1   12   18     1    18    1.8823E+05 -6.0062E+03   1.9423E+05  0.000E+00  0.000E+00  0.000E+00  4.03612E+01  2.134E-01  2.000E+01  2.000E+04 -3.003E-01
   1   12   19     1    19    1.9423E+05 -7.6593E+03   2.0189E+05  0.000E+00  0.000E+00  0.000E+00  3.98884E+01  2.180E-01  2.000E+01  2.000E+04 -3.830E-01
   1   13   20     1    20    2.0189E+05 -6.5846E+03   2.0848E+05  0.000E+00  0.000E+00  0.000E+00  3.94158E+01  2.226E-01  2.000E+01  2.000E+04 -3.292E-01
   1   14   21     1    21    2.0848E+05 -5.9984E+03   2.1447E+05  0.000E+00  0.000E+00  0.000E+00  3.89426E+01  2.267E-01  2.000E+01  2.000E+04 -2.999E-01
   1   14   22     1    22    2.1447E+05  3.6719E+03   2.1080E+05  0.000E+00  0.000E+00  0.000E+00  3.84661E+01  2.275E-01  2.000E+01  2.000E+04  1.836E-01
   1    9   30     2     1    5.0000E+04 -4.8595E+03   5.4860E+04  0.000E+00  0.000E+00  0.000E+00  4.02442E+01  1.192E-01  2.000E+01  2.000E+04 -2.430E-01
   1    9   29     2     2    5.4860E+04 -5.1557E+03   6.0015E+04  0.000E+00  0.000E+00  0.000E+00  4.00009E+01  1.259E-01  2.000E+01  2.000E+04 -2.578E-01
   1    9   28     2     3    6.0015E+04 -5.4426E+03   6.5458E+04  0.000E+00  0.000E+00  0.000E+00  3.97578E+01  1.328E-01  2.000E+01  2.000E+04 -2.721E-01
   1    9   27     2     4    6.5458E+04 -8.3094E+03   7.3767E+04  0.000E+00  0.000E+00  0.000E+00  3.95163E+01  1.413E-01  2.000E+01  2.000E+04 -4.155E-01
   1   10   26     2     5    7.3767E+04 -7.3499E+03   8.1117E+04  0.000E+00  0.000E+00  0.000E+00  3.92756E+01  1.506E-01  2.000E+01  2.000E+04 -3.675E-01
   1   11   25     2     6    8.1117E+04 -6.8081E+03   8.7925E+04  0.000E+00  0.000E+00  0.000E+00  3.90338E+01  1.588E-01  2.000E+01  2.000E+04 -3.404E-01
   1   12   24     2     7    8.7925E+04 -6.3235E+03   9.4249E+04  0.000E+00  0.000E+00  0.000E+00  3.87911E+01  1.661E-01  2.000E+01  2.000E+04 -3.162E-01
   1   13   23     2     8    9.4249E+04 -1.6561E+03   9.5905E+04  0.000E+00  0.000E+00  0.000E+00  3.85454E+01  1.704E-01  2.000E+01  2.000E+04 -8.280E-02
   1   14   22     2     9    9.5905E+04  2.7236E+02   9.5632E+04  0.000E+00  0.000E+00  0.000E+00  3.82961E+01  1.711E-01  2.000E+01  2.000E+04  1.362E-02
   1   14   22     3     1    3.0643E+05 -9.7937E+03   3.1623E+05  0.000E+00  0.000E+00  0.000E+00  3.77928E+01  2.373E-01  2.000E+01  2.000E+04 -4.897E-01
   1   15   23     3     2    3.1623E+05 -1.9201E+03   3.1815E+05  0.000E+00  0.000E+00  0.000E+00  3.69066E+01  2.399E-01  2.000E+01  2.000E+04 -9.601E-02
   1   15   24     3     3    3.1815E+05 -1.5179E+03   3.1967E+05  0.000E+00  0.000E+00  0.000E+00  3.60185E+01  2.407E-01  2.000E+01  2.000E+04 -7.589E-02
   1   15   25     3     4    3.1967E+05 -1.5737E+03   3.2124E+05  0.000E+00  0.000E+00  0.000E+00  3.51303E+01  2.414E-01  2.000E+01  2.000E+04 -7.868E-02
   1   15   26     3     5    3.2124E+05 -1.8803E+03   3.2312E+05  0.000E+00  0.000E+00  0.000E+00  3.42422E+01  2.422E-01  2.000E+01  2.000E+04 -9.402E-02
   1   16   27     3     6    3.2312E+05 -2.1596E+03   3.2528E+05  0.000E+00  0.000E+00  0.000E+00  3.33542E+01  2.431E-01  2.000E+01  2.000E+04 -1.080E-01
   1   17   28     3     7    3.2528E+05 -6.5536E+03   3.3183E+05  0.000E+00  0.000E+00  0.000E+00  3.24673E+01  2.451E-01  2.000E+01  2.000E+04 -3.277E-01
   1   18   29     3     8    3.3183E+05 -7.9298E+03   3.3976E+05  0.000E+00  0.000E+00  0.000E+00  3.15816E+01  2.483E-01  2.000E+01  2.000E+04 -3.965E-01
   1   18   30     3     9    3.3976E+05 -7.1378E+03   3.4690E+05  0.000E+00  0.000E+00  0.000E+00  3.06961E+01  2.516E-01  2.000E+01  2.000E+04 -3.569E-01



1
              HEAD IN LAYER   1 AT END OF TIME STEP   1 IN STRESS PERIOD    1
  ---------------------------------------------------------------------------

          1      2      3      4      5      6      7      8      9     10
         11     12     13     14     15     16     17     18     19     20
         21     22     23     24     25     26     27     28     29     30
 .........................................................................
   1  ****** ****** ****** ****** ****** ****** ****** ****** ****** ******
      ****** ****** ****** ****** ****** ****** ****** ****** ****** ******
      ****** ****** ****** ****** ****** ****** ****** ****** ****** ******
   2  ****** ****** ****** ****** ****** ****** ****** ****** ****** ******
      ****** ****** ****** ****** ****** ****** ****** ****** ****** ******
      ****** ****** ****** ****** ****** ****** ****** ****** ****** ******
   3  ****** ****** ****** ****** ****** ****** ****** ****** ****** ******
      ****** ****** ****** ****** ****** ****** ****** ****** ****** ******
      ****** ****** ****** ****** ****** ****** ****** ****** ****** ******
   4  ****** ****** ****** ****** ****** ****** ****** ****** ****** ******
      ****** ****** ****** ****** ****** ****** ****** ****** ****** ******
      ****** ****** ****** ****** ****** ****** ****** ****** ****** ******
   5  ****** ****** ****** ****** ****** ****** ****** ****** ****** ******
      ****** ****** ****** ****** ****** ****** ****** ****** ****** ******
      ****** ****** ****** ****** ****** ****** ****** ****** ****** ******
   6  ****** ****** ****** ****** ****** ****** ****** ****** ****** ******
      ****** ****** ****** ****** ****** ****** ****** ****** ****** ******
      ****** ****** ****** ****** ****** ****** ****** ****** ****** ******
   7  ****** ****** ****** ****** ****** ****** ****** ****** ****** ******
      ****** ****** ****** ****** ****** ****** ****** ****** ****** ******
      ****** ****** ****** ****** ****** ****** ****** ****** ****** ******
   8  ****** ****** ****** ****** ****** ****** ****** ****** ****** ******
      ****** ****** ****** ****** ****** ****** ****** ****** ****** ******
      ****** ****** ****** ****** ****** ****** ****** ****** ****** ******
   9  ****** ****** ****** ****** ****** ****** ****** ****** ****** ******
      ****** ****** ****** ****** ****** ****** ****** ****** ****** ******
      ****** ****** ****** ****** ****** ****** ****** ****** ****** ******
  10  ****** ****** ****** ****** ****** ****** ****** ****** ****** ******
      ****** ****** ****** ****** ****** ****** ****** ****** ****** ******
      ****** ****** ****** ****** ****** ****** ****** ****** ****** ******
  11  ****** ****** ****** ****** ****** ****** ****** ****** ****** ******
      ****** ****** ****** ****** ****** ****** ****** ****** ****** ******
      ****** ****** ****** ****** ****** ****** ****** ****** ****** ******
  12  ****** ****** ****** ****** ****** ****** ****** ****** ****** ******
      ****** ****** ****** ****** ****** ****** ****** ****** ****** ******
      ****** ****** ****** ****** ****** ****** ****** ****** ****** ******
  13  ****** ****** ****** ****** ****** ****** ****** ****** ****** ******
      ****** ****** ****** ****** ****** ****** ****** ****** ****** ******
      ****** ****** ****** ****** ****** ****** ****** ****** ****** ******
  14  ****** ****** ****** ****** ****** ****** ****** ****** ****** ******
      ****** ****** ****** ****** ****** ****** ****** ****** ****** ******
      ****** ****** ****** ****** ****** ****** ****** ****** ****** ******
  15  ****** ****** ****** ****** ****** ****** ****** ****** ****** ******
      ****** ****** ****** ****** ****** ****** ****** ****** ****** ******
      ****** ****** ****** ****** ****** ****** ****** ****** ****** ******
  16  ****** ****** ****** ****** ****** ****** ****** ****** ****** ******
      ****** ****** ****** ****** ****** ****** ****** ****** ****** ******
      ****** ****** ****** ****** ****** ****** ****** ****** ****** ******
  17  ****** ****** ****** ****** ****** ****** ****** ****** ****** ******
      ****** ****** ****** ****** ****** ****** ****** ****** ****** ******
      ****** ****** ****** ****** ****** ****** ****** ****** ****** ******
  18  ****** ****** ****** ****** ****** ****** ****** ****** ****** ******
      ****** ****** ****** ****** ****** ****** ****** ****** ****** ******
      ****** ****** ****** ****** ****** ****** ****** ****** ****** ******
  19  ****** ****** ****** ****** ****** ****** ****** ****** ****** ******
      ****** ****** ****** ****** ****** ****** ****** ****** ****** ******
      ****** ****** ****** ****** ****** ****** ****** ****** ****** ******
  20  ****** ****** ****** ****** ****** ****** ****** ****** ****** ******
      ****** ****** ****** ****** ****** ****** ****** ****** ****** ******
      ****** ****** ****** ****** ****** ****** ****** ****** ****** ******
  21  ****** ****** ****** ****** ****** ****** ****** ****** ****** ******
      ****** ****** ****** ****** ****** ****** ****** ****** ****** ******
      ****** ****** ****** ****** ****** ****** ****** ****** ****** ******
  22  ****** ****** ****** ****** ****** ****** ****** ****** ****** ******
      ****** ****** ****** ****** ****** ****** ****** ****** ****** ******
      ****** ****** ****** ****** ****** ****** ****** ****** ****** ******
  23  ****** ****** ****** ****** ****** ****** ****** ****** ****** ******
      ****** ****** ****** ****** ****** ****** ****** ****** ****** ******
      ****** ****** ****** ****** ****** ****** ****** ****** ****** ******
  24  ****** ****** ****** ****** ****** ****** ****** ****** ****** ******
      ****** ****** ****** ****** ****** ****** ****** ****** ****** ******
      ****** ****** ****** ****** ****** ****** ****** ****** ****** ******
  25  ****** ****** ****** ****** ****** ****** ****** ****** ****** ******
      ****** ****** ****** ****** ****** ****** ****** ****** ****** ******
      ****** ****** ****** ****** ****** ****** ****** ****** ****** ******

 HEAD WILL BE SAVED ON UNIT   51 AT END OF TIME STEP    1, STRESS PERIOD    1
1
  VOLUMETRIC BUDGET FOR ENTIRE MODEL AT END OF TIME STEP    1, STRESS PERIOD   1
  ------------------------------------------------------------------------------

     CUMULATIVE VOLUMES      L**3       RATES FOR THIS TIME STEP      L**3/T
     ------------------                 ------------------------

           IN:                                      IN:
           ---                                      ---
             STORAGE =    17833296.5626               STORAGE =      193840.1800
       CONSTANT HEAD =     1185803.7115         CONSTANT HEAD =       12889.1708
               WELLS =           0.0000                 WELLS =           0.0000
            RECHARGE =     1269600.0000              RECHARGE =       13800.0000
      STREAM LEAKAGE =      362870.7031        STREAM LEAKAGE =        3944.2468

            TOTAL IN =    20651570.9771              TOTAL IN =      224473.5976

          OUT:                                     OUT:
          ----                                     ----
             STORAGE =           0.0000               STORAGE =           0.0000
       CONSTANT HEAD =           0.0000         CONSTANT HEAD =           0.0000
               WELLS =     2173773.1374                 WELLS =       23627.9689
            RECHARGE =           0.0000              RECHARGE =           0.0000
      STREAM LEAKAGE =    18477798.1275        STREAM LEAKAGE =      200845.6318

           TOTAL OUT =    20651571.2649             TOTAL OUT =      224473.6007

            IN - OUT =          -0.2878              IN - OUT =      -3.1280E-03

 PERCENT DISCREPANCY =          -0.00     PERCENT DISCREPANCY =          -0.00






         TIME SUMMARY AT END OF TIME STEP    1 IN STRESS PERIOD    1
                    SECONDS     MINUTES      HOURS       DAYS        YEARS
                    -----------------------------------------------------------
   TIME STEP LENGTH 7.94880E+06 1.32480E+05  2208.0      92.000     0.25188    
 STRESS PERIOD TIME 7.94880E+06 1.32480E+05  2208.0      92.000     0.25188    
         TOTAL TIME 7.94880E+06 1.32480E+05  2208.0      92.000     0.25188    
1
1
                            STRESS PERIOD NO.    2, LENGTH =   91.00000    
                            -----------------------------------------------

                              NUMBER OF TIME STEPS =     1

                               MULTIPLIER FOR DELT =     1.500

                            INITIAL TIME STEP SIZE =   91.00000    

 WELL NO.  LAYER   ROW   COL   STRESS RATE         
 --------------------------------------------------
      1      1     20     17      -6946.    
      2      1     18     14      -7709.    
      3      1      9      3      -2375.    
      4      1     21     12      -6598.    

      4 WELLS

                 RECHARGE =  2.000000E-03

 REUSING STREAM SEGMENT DATA FROM LAST STRESS PERIOD
 
 SOLVING FOR HEAD 


     7 CALLS TO PCG ROUTINE FOR TIME STEP   1 IN STRESS PERIOD    2
    27 TOTAL ITERATIONS

 OUTPUT CONTROL FOR STRESS PERIOD    2   TIME STEP    1
    SAVE BUDGET
    SAVE HEAD FOR ALL LAYERS
    PRINT HEAD FOR ALL LAYERS
 UBDSV2 SAVING "STREAMFLOW OUT  " ON UNIT  50 AT TIME STEP  1, STRESS PERIOD   2



 STREAM LISTING     PERIOD      2   STEP        1

 LAYER ROW COL. STREAM  RCH.  FLOW INTO     FLOW TO   FLOW OUT OF   OVRLND.     DIRECT     STREAM       STREAM     STREAM     STREAM   STREAMBED  STREAMBED
                SEG.NO.  NO.  STRM. RCH.    AQUIFER    STRM. RCH.    RUNOFF     PRECIP       ET          HEAD       DEPTH      WIDTH   CONDCTNC.   GRADIENT

   1   13    1     1     1    1.0000E+05 -3.6273E+03   1.0363E+05  0.000E+00  0.000E+00  0.000E+00  4.84076E+01  1.462E-01  2.000E+01  2.000E+04 -1.814E-01
   1   13    2     1     2    1.0363E+05 -4.8629E+03   1.0849E+05  0.000E+00  0.000E+00  0.000E+00  4.79339E+01  1.498E-01  2.000E+01  2.000E+04 -2.431E-01
   1   14    3     1     3    1.0849E+05 -1.0815E+03   1.0957E+05  0.000E+00  0.000E+00  0.000E+00  4.74592E+01  1.524E-01  2.000E+01  2.000E+04 -5.407E-02
   1   15    4     1     4    1.0957E+05 -1.1059E+03   1.1068E+05  0.000E+00  0.000E+00  0.000E+00  4.69828E+01  1.533E-01  2.000E+01  2.000E+04 -5.530E-02
   1   16    5     1     5    1.1068E+05 -3.9210E+03   1.1460E+05  0.000E+00  0.000E+00  0.000E+00  4.65076E+01  1.554E-01  2.000E+01  2.000E+04 -1.961E-01
   1   16    6     1     6    1.1460E+05 -2.2441E+03   1.1684E+05  0.000E+00  0.000E+00  0.000E+00  4.60329E+01  1.579E-01  2.000E+01  2.000E+04 -1.122E-01
   1   16    7     1     7    1.1684E+05 -2.0817E+03   1.1892E+05  0.000E+00  0.000E+00  0.000E+00  4.55574E+01  1.597E-01  2.000E+01  2.000E+04 -1.041E-01
   1   16    8     1     8    1.1892E+05 -1.9497E+03   1.2087E+05  0.000E+00  0.000E+00  0.000E+00  4.50817E+01  1.613E-01  2.000E+01  2.000E+04 -9.748E-02
   1   16    9     1     9    1.2087E+05 -1.7860E+03   1.2266E+05  0.000E+00  0.000E+00  0.000E+00  4.46060E+01  1.628E-01  2.000E+01  2.000E+04 -8.930E-02
   1   16   10     1    10    1.2266E+05 -1.5626E+03   1.2422E+05  0.000E+00  0.000E+00  0.000E+00  4.41300E+01  1.641E-01  2.000E+01  2.000E+04 -7.813E-02
   1   16   11     1    11    1.2422E+05 -1.2610E+03   1.2548E+05  0.000E+00  0.000E+00  0.000E+00  4.36539E+01  1.653E-01  2.000E+01  2.000E+04 -6.305E-02
   1   16   12     1    12    1.2548E+05 -1.7032E+03   1.2719E+05  0.000E+00  0.000E+00  0.000E+00  4.31778E+01  1.664E-01  2.000E+01  2.000E+04 -8.516E-02
   1   15   13     1    13    1.2719E+05 -2.4636E+03   1.2965E+05  0.000E+00  0.000E+00  0.000E+00  4.27022E+01  1.681E-01  2.000E+01  2.000E+04 -1.232E-01
   1   14   14     1    14    1.2965E+05 -3.4595E+03   1.3311E+05  0.000E+00  0.000E+00  0.000E+00  4.22272E+01  1.704E-01  2.000E+01  2.000E+04 -1.730E-01
   1   13   15     1    15    1.3311E+05 -4.2901E+03   1.3740E+05  0.000E+00  0.000E+00  0.000E+00  4.17529E+01  1.734E-01  2.000E+01  2.000E+04 -2.145E-01
   1   12   16     1    16    1.3740E+05 -5.5889E+03   1.4299E+05  0.000E+00  0.000E+00  0.000E+00  4.12794E+01  1.772E-01  2.000E+01  2.000E+04 -2.794E-01
   1   12   17     1    17    1.4299E+05 -3.6047E+03   1.4659E+05  0.000E+00  0.000E+00  0.000E+00  4.08056E+01  1.806E-01  2.000E+01  2.000E+04 -1.802E-01
   1   12   18     1    18    1.4659E+05 -3.4666E+03   1.5006E+05  0.000E+00  0.000E+00  0.000E+00  4.03310E+01  1.833E-01  2.000E+01  2.000E+04 -1.733E-01
   1   12   19     1    19    1.5006E+05 -4.5520E+03   1.5461E+05  0.000E+00  0.000E+00  0.000E+00  3.98567E+01  1.862E-01  2.000E+01  2.000E+04 -2.276E-01
   1   13   20     1    20    1.5461E+05 -3.3529E+03   1.5797E+05  0.000E+00  0.000E+00  0.000E+00  3.93823E+01  1.891E-01  2.000E+01  2.000E+04 -1.676E-01
   1   14   21     1    21    1.5797E+05 -3.0152E+03   1.6098E+05  0.000E+00  0.000E+00  0.000E+00  3.89073E+01  1.914E-01  2.000E+01  2.000E+04 -1.508E-01
   1   14   22     1    22    1.6098E+05  4.4452E+03   1.5654E+05  0.000E+00  0.000E+00  0.000E+00  3.84295E+01  1.909E-01  2.000E+01  2.000E+04  2.223E-01
   1    9   30     2     1    5.0000E+04 -2.1591E+03   5.2159E+04  0.000E+00  0.000E+00  0.000E+00  4.02424E+01  1.174E-01  2.000E+01  2.000E+04 -1.080E-01
   1    9   29     2     2    5.2159E+04 -2.4705E+03   5.4630E+04  0.000E+00  0.000E+00  0.000E+00  3.99955E+01  1.205E-01  2.000E+01  2.000E+04 -1.235E-01
   1    9   28     2     3    5.4630E+04 -2.7792E+03   5.7409E+04  0.000E+00  0.000E+00  0.000E+00  3.97490E+01  1.240E-01  2.000E+01  2.000E+04 -1.390E-01
   1    9   27     2     4    5.7409E+04 -4.9024E+03   6.2311E+04  0.000E+00  0.000E+00  0.000E+00  3.95041E+01  1.291E-01  2.000E+01  2.000E+04 -2.451E-01
   1   10   26     2     5    6.2311E+04 -3.8025E+03   6.6114E+04  0.000E+00  0.000E+00  0.000E+00  3.92596E+01  1.346E-01  2.000E+01  2.000E+04 -1.901E-01
   1   11   25     2     6    6.6114E+04 -3.4173E+03   6.9531E+04  0.000E+00  0.000E+00  0.000E+00  3.90141E+01  1.391E-01  2.000E+01  2.000E+04 -1.709E-01
   1   12   24     2     7    6.9531E+04 -3.2882E+03   7.2819E+04  0.000E+00  0.000E+00  0.000E+00  3.87682E+01  1.432E-01  2.000E+01  2.000E+04 -1.644E-01
   1   13   23     2     8    7.2819E+04 -6.2163E+02   7.3441E+04  0.000E+00  0.000E+00  0.000E+00  3.85206E+01  1.456E-01  2.000E+01  2.000E+04 -3.108E-02
   1   14   22     2     9    7.3441E+04  1.2583E+03   7.2182E+04  0.000E+00  0.000E+00  0.000E+00  3.82702E+01  1.452E-01  2.000E+01  2.000E+04  6.292E-02
   1   14   22     3     1    2.2872E+05 -9.0437E+03   2.3776E+05  0.000E+00  0.000E+00  0.000E+00  3.77551E+01  1.995E-01  2.000E+01  2.000E+04 -4.522E-01
   1   15   23     3     2    2.3776E+05 -9.2933E+02   2.3869E+05  0.000E+00  0.000E+00  0.000E+00  3.68687E+01  2.021E-01  2.000E+01  2.000E+04 -4.647E-02
   1   15   24     3     3    2.3869E+05 -6.3887E+02   2.3933E+05  0.000E+00  0.000E+00  0.000E+00  3.59802E+01  2.025E-01  2.000E+01  2.000E+04 -3.194E-02
   1   15   25     3     4    2.3933E+05 -6.5722E+02   2.3999E+05  0.000E+00  0.000E+00  0.000E+00  3.50917E+01  2.028E-01  2.000E+01  2.000E+04 -3.286E-02
   1   15   26     3     5    2.3999E+05 -7.6632E+02   2.4075E+05  0.000E+00  0.000E+00  0.000E+00  3.42032E+01  2.032E-01  2.000E+01  2.000E+04 -3.832E-02
   1   16   27     3     6    2.4075E+05 -8.8590E+02   2.4164E+05  0.000E+00  0.000E+00  0.000E+00  3.33147E+01  2.036E-01  2.000E+01  2.000E+04 -4.429E-02
   1   17   28     3     7    2.4164E+05 -3.1955E+03   2.4483E+05  0.000E+00  0.000E+00  0.000E+00  3.24268E+01  2.046E-01  2.000E+01  2.000E+04 -1.598E-01
   1   18   29     3     8    2.4483E+05 -4.9048E+03   2.4974E+05  0.000E+00  0.000E+00  0.000E+00  3.15400E+01  2.066E-01  2.000E+01  2.000E+04 -2.452E-01
   1   18   30     3     9    2.4974E+05 -4.5973E+03   2.5434E+05  0.000E+00  0.000E+00  0.000E+00  3.06535E+01  2.090E-01  2.000E+01  2.000E+04 -2.299E-01



1
              HEAD IN LAYER   1 AT END OF TIME STEP   1 IN STRESS PERIOD    2
  ---------------------------------------------------------------------------

          1      2      3      4      5      6      7      8      9     10
         11     12     13     14     15     16     17     18     19     20
         21     22     23     24     25     26     27     28     29     30
 .........................................................................
   1  ****** ****** ****** ****** ****** ****** ****** ****** ****** ******
      ****** ****** ****** ****** ****** ****** ****** ****** ****** ******
      ****** ****** ****** ****** ****** ****** ****** ****** ****** ******
   2  ****** ****** ****** ****** ****** ****** ****** ****** ****** ******
      ****** ****** ****** ****** ****** ****** ****** ****** ****** ******
      ****** ****** ****** ****** ****** ****** ****** ****** ****** ******
   3  ****** ****** ****** ****** ****** ****** ****** ****** ****** ******
      ****** ****** ****** ****** ****** ****** ****** ****** ****** ******
      ****** ****** ****** ****** ****** ****** ****** ****** ****** ******
   4  ****** ****** ****** ****** ****** ****** ****** ****** ****** ******
      ****** ****** ****** ****** ****** ****** ****** ****** ****** ******
      ****** ****** ****** ****** ****** ****** ****** ****** ****** ******
   5  ****** ****** ****** ****** ****** ****** ****** ****** ****** ******
      ****** ****** ****** ****** ****** ****** ****** ****** ****** ******
      ****** ****** ****** ****** ****** ****** ****** ****** ****** ******
   6  ****** ****** ****** ****** ****** ****** ****** ****** ****** ******
      ****** ****** ****** ****** ****** ****** ****** ****** ****** ******
      ****** ****** ****** ****** ****** ****** ****** ****** ****** ******
   7  ****** ****** ****** ****** ****** ****** ****** ****** ****** ******
      ****** ****** ****** ****** ****** ****** ****** ****** ****** ******
      ****** ****** ****** ****** ****** ****** ****** ****** ****** ******
   8  ****** ****** ****** ****** ****** ****** ****** ****** ****** ******
      ****** ****** ****** ****** ****** ****** ****** ****** ****** ******
      ****** ****** ****** ****** ****** ****** ****** ****** ****** ******
   9  ****** ****** ****** ****** ****** ****** ****** ****** ****** ******
      ****** ****** ****** ****** ****** ****** ****** ****** ****** ******
      ****** ****** ****** ****** ****** ****** ****** ****** ****** ******
  10  ****** ****** ****** ****** ****** ****** ****** ****** ****** ******
      ****** ****** ****** ****** ****** ****** ****** ****** ****** ******
      ****** ****** ****** ****** ****** ****** ****** ****** ****** ******
  11  ****** ****** ****** ****** ****** ****** ****** ****** ****** ******
      ****** ****** ****** ****** ****** ****** ****** ****** ****** ******
      ****** ****** ****** ****** ****** ****** ****** ****** ****** ******
  12  ****** ****** ****** ****** ****** ****** ****** ****** ****** ******
      ****** ****** ****** ****** ****** ****** ****** ****** ****** ******
      ****** ****** ****** ****** ****** ****** ****** ****** ****** ******
  13  ****** ****** ****** ****** ****** ****** ****** ****** ****** ******
      ****** ****** ****** ****** ****** ****** ****** ****** ****** ******
      ****** ****** ****** ****** ****** ****** ****** ****** ****** ******
  14  ****** ****** ****** ****** ****** ****** ****** ****** ****** ******
      ****** ****** ****** ****** ****** ****** ****** ****** ****** ******
      ****** ****** ****** ****** ****** ****** ****** ****** ****** ******
  15  ****** ****** ****** ****** ****** ****** ****** ****** ****** ******
      ****** ****** ****** ****** ****** ****** ****** ****** ****** ******
      ****** ****** ****** ****** ****** ****** ****** ****** ****** ******
  16  ****** ****** ****** ****** ****** ****** ****** ****** ****** ******
      ****** ****** ****** ****** ****** ****** ****** ****** ****** ******
      ****** ****** ****** ****** ****** ****** ****** ****** ****** ******
  17  ****** ****** ****** ****** ****** ****** ****** ****** ****** ******
      ****** ****** ****** ****** ****** ****** ****** ****** ****** ******
      ****** ****** ****** ****** ****** ****** ****** ****** ****** ******
  18  ****** ****** ****** ****** ****** ****** ****** ****** ****** ******
      ****** ****** ****** ****** ****** ****** ****** ****** ****** ******
      ****** ****** ****** ****** ****** ****** ****** ****** ****** ******
  19  ****** ****** ****** ****** ****** ****** ****** ****** ****** ******
      ****** ****** ****** ****** ****** ****** ****** ****** ****** ******
      ****** ****** ****** ****** ****** ****** ****** ****** ****** ******
  20  ****** ****** ****** ****** ****** ****** ****** ****** ****** ******
      ****** ****** ****** ****** ****** ****** ****** ****** ****** ******
      ****** ****** ****** ****** ****** ****** ****** ****** ****** ******
  21  ****** ****** ****** ****** ****** ****** ****** ****** ****** ******
      ****** ****** ****** ****** ****** ****** ****** ****** ****** ******
      ****** ****** ****** ****** ****** ****** ****** ****** ****** ******
  22  ****** ****** ****** ****** ****** ****** ****** ****** ****** ******
      ****** ****** ****** ****** ****** ****** ****** ****** ****** ******
      ****** ****** ****** ****** ****** ****** ****** ****** ****** ******
  23  ****** ****** ****** ****** ****** ****** ****** ****** ****** ******
      ****** ****** ****** ****** ****** ****** ****** ****** ****** ******
      ****** ****** ****** ****** ****** ****** ****** ****** ****** ******
  24  ****** ****** ****** ****** ****** ****** ****** ****** ****** ******
      ****** ****** ****** ****** ****** ****** ****** ****** ****** ******
      ****** ****** ****** ****** ****** ****** ****** ****** ****** ******
  25  ****** ****** ****** ****** ****** ****** ****** ****** ****** ******
      ****** ****** ****** ****** ****** ****** ****** ****** ****** ******
      ****** ****** ****** ****** ****** ****** ****** ****** ****** ******

 HEAD WILL BE SAVED ON UNIT   51 AT END OF TIME STEP    1, STRESS PERIOD    2
1
  VOLUMETRIC BUDGET FOR ENTIRE MODEL AT END OF TIME STEP    1, STRESS PERIOD   2
  ------------------------------------------------------------------------------

     CUMULATIVE VOLUMES      L**3       RATES FOR THIS TIME STEP      L**3/T
     ------------------                 ------------------------

           IN:                                      IN:
           ---                                      ---
             STORAGE =    22844642.5486               STORAGE =       55069.7361
       CONSTANT HEAD =     2796058.1417         CONSTANT HEAD =       17695.1036
               WELLS =           0.0000                 WELLS =           0.0000
            RECHARGE =     6292800.0000              RECHARGE =       55200.0000
      STREAM LEAKAGE =      881893.6250        STREAM LEAKAGE =        5703.5486

            TOTAL IN =    32815394.3153              TOTAL IN =      133668.3883

          OUT:                                     OUT:
          ----                                     ----
             STORAGE =           0.0000               STORAGE =           0.0000
       CONSTANT HEAD =           0.0000         CONSTANT HEAD =           0.0000
               WELLS =     4323918.3060                 WELLS =       23627.9689
            RECHARGE =           0.0000              RECHARGE =           0.0000
      STREAM LEAKAGE =    28491477.2831        STREAM LEAKAGE =      110040.4303

           TOTAL OUT =    32815395.5890             TOTAL OUT =      133668.3992

            IN - OUT =          -1.2738              IN - OUT =      -1.0835E-02

 PERCENT DISCREPANCY =          -0.00     PERCENT DISCREPANCY =          -0.00






         TIME SUMMARY AT END OF TIME STEP    1 IN STRESS PERIOD    2
                    SECONDS     MINUTES      HOURS       DAYS        YEARS
                    -----------------------------------------------------------
   TIME STEP LENGTH 7.86240E+06 1.31040E+05  2184.0      91.000     0.24914    
 STRESS PERIOD TIME 7.86240E+06 1.31040E+05  2184.0      91.000     0.24914    
         TOTAL TIME 1.58112E+07 2.63520E+05  4392.0      183.00     0.50103    
1
1
                            STRESS PERIOD NO.    3, LENGTH =   91.00000    
                            -----------------------------------------------

                              NUMBER OF TIME STEPS =     1

                               MULTIPLIER FOR DELT =     1.500

                            INITIAL TIME STEP SIZE =   91.00000    

 WELL NO.  LAYER   ROW   COL   STRESS RATE         
 --------------------------------------------------
      1      1     20     17      -6946.    
      2      1     18     14      -7709.    
      3      1      9      3      -2375.    
      4      1     21     12      -6598.    

      4 WELLS

                 RECHARGE =   0.00000    

 REUSING STREAM SEGMENT DATA FROM LAST STRESS PERIOD
 
 SOLVING FOR HEAD 


     7 CALLS TO PCG ROUTINE FOR TIME STEP   1 IN STRESS PERIOD    3
    27 TOTAL ITERATIONS

 OUTPUT CONTROL FOR STRESS PERIOD    3   TIME STEP    1
    SAVE BUDGET
    SAVE HEAD FOR ALL LAYERS
    PRINT HEAD FOR ALL LAYERS
 UBDSV2 SAVING "STREAMFLOW OUT  " ON UNIT  50 AT TIME STEP  1, STRESS PERIOD   3



 STREAM LISTING     PERIOD      3   STEP        1

 LAYER ROW COL. STREAM  RCH.  FLOW INTO     FLOW TO   FLOW OUT OF   OVRLND.     DIRECT     STREAM       STREAM     STREAM     STREAM   STREAMBED  STREAMBED
                SEG.NO.  NO.  STRM. RCH.    AQUIFER    STRM. RCH.    RUNOFF     PRECIP       ET          HEAD       DEPTH      WIDTH   CONDCTNC.   GRADIENT

   1   13    1     1     1    1.0000E+05 -2.3050E+03   1.0230E+05  0.000E+00  0.000E+00  0.000E+00  4.84070E+01  1.456E-01  2.000E+01  2.000E+04 -1.152E-01
   1   13    2     1     2    1.0230E+05 -3.3803E+03   1.0569E+05  0.000E+00  0.000E+00  0.000E+00  4.79322E+01  1.481E-01  2.000E+01  2.000E+04 -1.690E-01
   1   14    3     1     3    1.0569E+05 -6.0759E+02   1.0629E+05  0.000E+00  0.000E+00  0.000E+00  4.74566E+01  1.498E-01  2.000E+01  2.000E+04 -3.038E-02
   1   15    4     1     4    1.0629E+05 -5.8596E+02   1.0688E+05  0.000E+00  0.000E+00  0.000E+00  4.69798E+01  1.503E-01  2.000E+01  2.000E+04 -2.930E-02
   1   16    5     1     5    1.0688E+05 -2.0221E+03   1.0890E+05  0.000E+00  0.000E+00  0.000E+00  4.65037E+01  1.514E-01  2.000E+01  2.000E+04 -1.011E-01
   1   16    6     1     6    1.0890E+05 -1.1753E+03   1.1008E+05  0.000E+00  0.000E+00  0.000E+00  4.60277E+01  1.527E-01  2.000E+01  2.000E+04 -5.876E-02
   1   16    7     1     7    1.1008E+05 -1.0661E+03   1.1114E+05  0.000E+00  0.000E+00  0.000E+00  4.55514E+01  1.537E-01  2.000E+01  2.000E+04 -5.330E-02
   1   16    8     1     8    1.1114E+05 -9.4314E+02   1.1209E+05  0.000E+00  0.000E+00  0.000E+00  4.50750E+01  1.545E-01  2.000E+01  2.000E+04 -4.716E-02
   1   16    9     1     9    1.1209E+05 -7.7236E+02   1.1286E+05  0.000E+00  0.000E+00  0.000E+00  4.45984E+01  1.552E-01  2.000E+01  2.000E+04 -3.862E-02
   1   16   10     1    10    1.1286E+05 -5.3503E+02   1.1339E+05  0.000E+00  0.000E+00  0.000E+00  4.41217E+01  1.558E-01  2.000E+01  2.000E+04 -2.675E-02
   1   16   11     1    11    1.1339E+05 -2.0693E+02   1.1360E+05  0.000E+00  0.000E+00  0.000E+00  4.36447E+01  1.561E-01  2.000E+01  2.000E+04 -1.035E-02
   1   16   12     1    12    1.1360E+05  1.4329E+02   1.1346E+05  0.000E+00  0.000E+00  0.000E+00  4.31675E+01  1.561E-01  2.000E+01  2.000E+04  7.164E-03
   1   15   13     1    13    1.1346E+05 -6.5811E+02   1.1411E+05  0.000E+00  0.000E+00  0.000E+00  4.26904E+01  1.563E-01  2.000E+01  2.000E+04 -3.291E-02
   1   14   14     1    14    1.1411E+05 -1.6531E+03   1.1577E+05  0.000E+00  0.000E+00  0.000E+00  4.22141E+01  1.573E-01  2.000E+01  2.000E+04 -8.265E-02
   1   13   15     1    15    1.1577E+05 -2.5242E+03   1.1829E+05  0.000E+00  0.000E+00  0.000E+00  4.17385E+01  1.590E-01  2.000E+01  2.000E+04 -1.262E-01
   1   12   16     1    16    1.1829E+05 -3.8283E+03   1.2212E+05  0.000E+00  0.000E+00  0.000E+00  4.12638E+01  1.615E-01  2.000E+01  2.000E+04 -1.914E-01
   1   12   17     1    17    1.2212E+05 -2.3099E+03   1.2443E+05  0.000E+00  0.000E+00  0.000E+00  4.07890E+01  1.640E-01  2.000E+01  2.000E+04 -1.155E-01
   1   12   18     1    18    1.2443E+05 -2.1911E+03   1.2662E+05  0.000E+00  0.000E+00  0.000E+00  4.03135E+01  1.658E-01  2.000E+01  2.000E+04 -1.096E-01
   1   12   19     1    19    1.2662E+05 -2.9772E+03   1.2960E+05  0.000E+00  0.000E+00  0.000E+00  3.98383E+01  1.678E-01  2.000E+01  2.000E+04 -1.489E-01
   1   13   20     1    20    1.2960E+05 -1.8392E+03   1.3144E+05  0.000E+00  0.000E+00  0.000E+00  3.93629E+01  1.697E-01  2.000E+01  2.000E+04 -9.196E-02
   1   14   21     1    21    1.3144E+05 -1.4049E+03   1.3284E+05  0.000E+00  0.000E+00  0.000E+00  3.88869E+01  1.710E-01  2.000E+01  2.000E+04 -7.025E-02
   1   14   22     1    22    1.3284E+05  4.8084E+03   1.2803E+05  0.000E+00  0.000E+00  0.000E+00  3.84083E+01  1.697E-01  2.000E+01  2.000E+04  2.404E-01
   1    9   30     2     1    5.0000E+04 -9.7381E+02   5.0974E+04  0.000E+00  0.000E+00  0.000E+00  4.02415E+01  1.165E-01  2.000E+01  2.000E+04 -4.869E-02
   1    9   29     2     2    5.0974E+04 -1.2879E+03   5.2262E+04  0.000E+00  0.000E+00  0.000E+00  3.99931E+01  1.181E-01  2.000E+01  2.000E+04 -6.440E-02
   1    9   28     2     3    5.2262E+04 -1.5859E+03   5.3848E+04  0.000E+00  0.000E+00  0.000E+00  3.97451E+01  1.201E-01  2.000E+01  2.000E+04 -7.929E-02
   1    9   27     2     4    5.3848E+04 -3.1950E+03   5.7043E+04  0.000E+00  0.000E+00  0.000E+00  3.94983E+01  1.233E-01  2.000E+01  2.000E+04 -1.598E-01
   1   10   26     2     5    5.7043E+04 -2.2060E+03   5.9249E+04  0.000E+00  0.000E+00  0.000E+00  3.92518E+01  1.268E-01  2.000E+01  2.000E+04 -1.103E-01
   1   11   25     2     6    5.9249E+04 -1.9301E+03   6.1179E+04  0.000E+00  0.000E+00  0.000E+00  3.90045E+01  1.295E-01  2.000E+01  2.000E+04 -9.651E-02
   1   12   24     2     7    6.1179E+04 -1.9600E+03   6.3139E+04  0.000E+00  0.000E+00  0.000E+00  3.87570E+01  1.320E-01  2.000E+01  2.000E+04 -9.800E-02
   1   13   23     2     8    6.3139E+04 -2.8959E+02   6.3428E+04  0.000E+00  0.000E+00  0.000E+00  3.85085E+01  1.335E-01  2.000E+01  2.000E+04 -1.448E-02
   1   14   22     2     9    6.3428E+04  1.7927E+03   6.1636E+04  0.000E+00  0.000E+00  0.000E+00  3.82575E+01  1.325E-01  2.000E+01  2.000E+04  8.964E-02
   1   14   22     3     1    1.8967E+05 -8.6734E+03   1.9834E+05  0.000E+00  0.000E+00  0.000E+00  3.77342E+01  1.786E-01  2.000E+01  2.000E+04 -4.337E-01
   1   15   23     3     2    1.9834E+05 -5.0842E+02   1.9885E+05  0.000E+00  0.000E+00  0.000E+00  3.68478E+01  1.812E-01  2.000E+01  2.000E+04 -2.542E-02
   1   15   24     3     3    1.9885E+05 -3.0721E+02   1.9916E+05  0.000E+00  0.000E+00  0.000E+00  3.59592E+01  1.814E-01  2.000E+01  2.000E+04 -1.536E-02
   1   15   25     3     4    1.9916E+05 -3.1228E+02   1.9947E+05  0.000E+00  0.000E+00  0.000E+00  3.50705E+01  1.816E-01  2.000E+01  2.000E+04 -1.561E-02
   1   15   26     3     5    1.9947E+05 -3.5946E+02   1.9983E+05  0.000E+00  0.000E+00  0.000E+00  3.41817E+01  1.817E-01  2.000E+01  2.000E+04 -1.797E-02
   1   16   27     3     6    1.9983E+05 -4.1435E+02   2.0024E+05  0.000E+00  0.000E+00  0.000E+00  3.32931E+01  1.820E-01  2.000E+01  2.000E+04 -2.072E-02
   1   17   28     3     7    2.0024E+05 -1.7568E+03   2.0200E+05  0.000E+00  0.000E+00  0.000E+00  3.24048E+01  1.825E-01  2.000E+01  2.000E+04 -8.784E-02
   1   18   29     3     8    2.0200E+05 -3.3244E+03   2.0533E+05  0.000E+00  0.000E+00  0.000E+00  3.15173E+01  1.839E-01  2.000E+01  2.000E+04 -1.662E-01
   1   18   30     3     9    2.0533E+05 -3.4234E+03   2.0875E+05  0.000E+00  0.000E+00  0.000E+00  3.06302E+01  1.858E-01  2.000E+01  2.000E+04 -1.712E-01



1
              HEAD IN LAYER   1 AT END OF TIME STEP   1 IN STRESS PERIOD    3
  ---------------------------------------------------------------------------

          1      2      3      4      5      6      7      8      9     10
         11     12     13     14     15     16     17     18     19     20
         21     22     23     24     25     26     27     28     29     30
 .........................................................................
   1  ****** ****** ****** ****** ****** ****** ****** ****** ****** ******
      ****** ****** ****** ****** ****** ****** ****** ****** ****** ******
      ****** ****** ****** ****** ****** ****** ****** ****** ****** ******
   2  ****** ****** ****** ****** ****** ****** ****** ****** ****** ******
      ****** ****** ****** ****** ****** ****** ****** ****** ****** ******
      ****** ****** ****** ****** ****** ****** ****** ****** ****** ******
   3  ****** ****** ****** ****** ****** ****** ****** ****** ****** ******
      ****** ****** ****** ****** ****** ****** ****** ****** ****** ******
      ****** ****** ****** ****** ****** ****** ****** ****** ****** ******
   4  ****** ****** ****** ****** ****** ****** ****** ****** ****** ******
      ****** ****** ****** ****** ****** ****** ****** ****** ****** ******
      ****** ****** ****** ****** ****** ****** ****** ****** ****** ******
   5  ****** ****** ****** ****** ****** ****** ****** ****** ****** ******
      ****** ****** ****** ****** ****** ****** ****** ****** ****** ******
      ****** ****** ****** ****** ****** ****** ****** ****** ****** ******
   6  ****** ****** ****** ****** ****** ****** ****** ****** ****** ******
      ****** ****** ****** ****** ****** ****** ****** ****** ****** ******
      ****** ****** ****** ****** ****** ****** ****** ****** ****** ******
   7  ****** ****** ****** ****** ****** ****** ****** ****** ****** ******
      ****** ****** ****** ****** ****** ****** ****** ****** ****** ******
      ****** ****** ****** ****** ****** ****** ****** ****** ****** ******
   8  ****** ****** ****** ****** ****** ****** ****** ****** ****** ******
      ****** ****** ****** ****** ****** ****** ****** ****** ****** ******
      ****** ****** ****** ****** ****** ****** ****** ****** ****** ******
   9  ****** ****** ****** ****** ****** ****** ****** ****** ****** ******
      ****** ****** ****** ****** ****** ****** ****** ****** ****** ******
      ****** ****** ****** ****** ****** ****** ****** ****** ****** ******
  10  ****** ****** ****** ****** ****** ****** ****** ****** ****** ******
      ****** ****** ****** ****** ****** ****** ****** ****** ****** ******
      ****** ****** ****** ****** ****** ****** ****** ****** ****** ******
  11  ****** ****** ****** ****** ****** ****** ****** ****** ****** ******
      ****** ****** ****** ****** ****** ****** ****** ****** ****** ******
      ****** ****** ****** ****** ****** ****** ****** ****** ****** ******
  12  ****** ****** ****** ****** ****** ****** ****** ****** ****** ******
      ****** ****** ****** ****** ****** ****** ****** ****** ****** ******
      ****** ****** ****** ****** ****** ****** ****** ****** ****** ******
  13  ****** ****** ****** ****** ****** ****** ****** ****** ****** ******
      ****** ****** ****** ****** ****** ****** ****** ****** ****** ******
      ****** ****** ****** ****** ****** ****** ****** ****** ****** ******
  14  ****** ****** ****** ****** ****** ****** ****** ****** ****** ******
      ****** ****** ****** ****** ****** ****** ****** ****** ****** ******
      ****** ****** ****** ****** ****** ****** ****** ****** ****** ******
  15  ****** ****** ****** ****** ****** ****** ****** ****** ****** ******
      ****** ****** ****** ****** ****** ****** ****** ****** ****** ******
      ****** ****** ****** ****** ****** ****** ****** ****** ****** ******
  16  ****** ****** ****** ****** ****** ****** ****** ****** ****** ******
      ****** ****** ****** ****** ****** ****** ****** ****** ****** ******
      ****** ****** ****** ****** ****** ****** ****** ****** ****** ******
  17  ****** ****** ****** ****** ****** ****** ****** ****** ****** ******
      ****** ****** ****** ****** ****** ****** ****** ****** ****** ******
      ****** ****** ****** ****** ****** ****** ****** ****** ****** ******
  18  ****** ****** ****** ****** ****** ****** ****** ****** ****** ******
      ****** ****** ****** ****** ****** ****** ****** ****** ****** ******
      ****** ****** ****** ****** ****** ****** ****** ****** ****** ******
  19  ****** ****** ****** ****** ****** ****** ****** ****** ****** ******
      ****** ****** ****** ****** ****** ****** ****** ****** ****** ******
      ****** ****** ****** ****** ****** ****** ****** ****** ****** ******
  20  ****** ****** ****** ****** ****** ****** ****** ****** ****** ******
      ****** ****** ****** ****** ****** ****** ****** ****** ****** ******
      ****** ****** ****** ****** ****** ****** ****** ****** ****** ******
  21  ****** ****** ****** ****** ****** ****** ****** ****** ****** ******
      ****** ****** ****** ****** ****** ****** ****** ****** ****** ******
      ****** ****** ****** ****** ****** ****** ****** ****** ****** ******
  22  ****** ****** ****** ****** ****** ****** ****** ****** ****** ******
      ****** ****** ****** ****** ****** ****** ****** ****** ****** ******
      ****** ****** ****** ****** ****** ****** ****** ****** ****** ******
  23  ****** ****** ****** ****** ****** ****** ****** ****** ****** ******
      ****** ****** ****** ****** ****** ****** ****** ****** ****** ******
      ****** ****** ****** ****** ****** ****** ****** ****** ****** ******
  24  ****** ****** ****** ****** ****** ****** ****** ****** ****** ******
      ****** ****** ****** ****** ****** ****** ****** ****** ****** ******
      ****** ****** ****** ****** ****** ****** ****** ****** ****** ******
  25  ****** ****** ****** ****** ****** ****** ****** ****** ****** ******
      ****** ****** ****** ****** ****** ****** ****** ****** ****** ******
      ****** ****** ****** ****** ****** ****** ****** ****** ****** ******

 HEAD WILL BE SAVED ON UNIT   51 AT END OF TIME STEP    1, STRESS PERIOD    3
1
  VOLUMETRIC BUDGET FOR ENTIRE MODEL AT END OF TIME STEP    1, STRESS PERIOD   3
  ------------------------------------------------------------------------------

     CUMULATIVE VOLUMES      L**3       RATES FOR THIS TIME STEP      L**3/T
     ------------------                 ------------------------

           IN:                                      IN:
           ---                                      ---
             STORAGE =    27935042.3655               STORAGE =       55938.4595
       CONSTANT HEAD =     5201991.7333         CONSTANT HEAD =       26438.8307
               WELLS =           0.0000                 WELLS =           0.0000
            RECHARGE =     6292800.0000              RECHARGE =           0.0000
      STREAM LEAKAGE =     1495636.7456        STREAM LEAKAGE =        6744.4299

            TOTAL IN =    40925470.8444              TOTAL IN =       89121.7201

          OUT:                                     OUT:
          ----                                     ----
             STORAGE =           0.0000               STORAGE =           0.0000
       CONSTANT HEAD =           0.0000         CONSTANT HEAD =           0.0000
               WELLS =     6474063.4745                 WELLS =       23627.9689
            RECHARGE =           0.0000              RECHARGE =           0.0000
      STREAM LEAKAGE =    34451409.3435        STREAM LEAKAGE =       65493.7589

           TOTAL OUT =    40925472.8180             TOTAL OUT =       89121.7278

            IN - OUT =          -1.9736              IN - OUT =      -7.6906E-03

 PERCENT DISCREPANCY =          -0.00     PERCENT DISCREPANCY =          -0.00






         TIME SUMMARY AT END OF TIME STEP    1 IN STRESS PERIOD    3
                    SECONDS     MINUTES      HOURS       DAYS        YEARS
                    -----------------------------------------------------------
   TIME STEP LENGTH 7.86240E+06 1.31040E+05  2184.0      91.000     0.24914    
 STRESS PERIOD TIME 7.86240E+06 1.31040E+05  2184.0      91.000     0.24914    
         TOTAL TIME 2.36736E+07 3.94560E+05  6576.0      274.00     0.75017    
1
1
                            STRESS PERIOD NO.    4, LENGTH =   91.00000    
                            -----------------------------------------------

                              NUMBER OF TIME STEPS =     1

                               MULTIPLIER FOR DELT =     1.500

                            INITIAL TIME STEP SIZE =   91.00000    

 WELL NO.  LAYER   ROW   COL   STRESS RATE         
 --------------------------------------------------
      1      1     20     17      -6946.    
      2      1     18     14      -7709.    
      3      1      9      3      -2375.    
      4      1     21     12      -6598.    

      4 WELLS

                 RECHARGE =  1.000000E-03

 REUSING STREAM SEGMENT DATA FROM LAST STRESS PERIOD
 
 SOLVING FOR HEAD 


     6 CALLS TO PCG ROUTINE FOR TIME STEP   1 IN STRESS PERIOD    4
    23 TOTAL ITERATIONS

 OUTPUT CONTROL FOR STRESS PERIOD    4   TIME STEP    1
    SAVE BUDGET
    SAVE HEAD FOR ALL LAYERS
    PRINT HEAD FOR ALL LAYERS
 UBDSV2 SAVING "STREAMFLOW OUT  " ON UNIT  50 AT TIME STEP  1, STRESS PERIOD   4



 STREAM LISTING     PERIOD      4   STEP        1

 LAYER ROW COL. STREAM  RCH.  FLOW INTO     FLOW TO   FLOW OUT OF   OVRLND.     DIRECT     STREAM       STREAM     STREAM     STREAM   STREAMBED  STREAMBED
                SEG.NO.  NO.  STRM. RCH.    AQUIFER    STRM. RCH.    RUNOFF     PRECIP       ET          HEAD       DEPTH      WIDTH   CONDCTNC.   GRADIENT

   1   13    1     1     1    1.0000E+05 -2.0329E+03   1.0203E+05  0.000E+00  0.000E+00  0.000E+00  4.84069E+01  1.455E-01  2.000E+01  2.000E+04 -1.016E-01
   1   13    2     1     2    1.0203E+05 -3.0664E+03   1.0510E+05  0.000E+00  0.000E+00  0.000E+00  4.79318E+01  1.477E-01  2.000E+01  2.000E+04 -1.533E-01
   1   14    3     1     3    1.0510E+05 -5.7104E+02   1.0567E+05  0.000E+00  0.000E+00  0.000E+00  4.74561E+01  1.493E-01  2.000E+01  2.000E+04 -2.855E-02
   1   15    4     1     4    1.0567E+05 -5.3837E+02   1.0621E+05  0.000E+00  0.000E+00  0.000E+00  4.69793E+01  1.497E-01  2.000E+01  2.000E+04 -2.692E-02
   1   16    5     1     5    1.0621E+05 -1.6608E+03   1.0787E+05  0.000E+00  0.000E+00  0.000E+00  4.65030E+01  1.507E-01  2.000E+01  2.000E+04 -8.304E-02
   1   16    6     1     6    1.0787E+05 -9.9207E+02   1.0886E+05  0.000E+00  0.000E+00  0.000E+00  4.60268E+01  1.518E-01  2.000E+01  2.000E+04 -4.960E-02
   1   16    7     1     7    1.0886E+05 -8.9372E+02   1.0976E+05  0.000E+00  0.000E+00  0.000E+00  4.55503E+01  1.526E-01  2.000E+01  2.000E+04 -4.469E-02
   1   16    8     1     8    1.0976E+05 -7.7272E+02   1.1053E+05  0.000E+00  0.000E+00  0.000E+00  4.50737E+01  1.533E-01  2.000E+01  2.000E+04 -3.864E-02
   1   16    9     1     9    1.1053E+05 -6.0138E+02   1.1113E+05  0.000E+00  0.000E+00  0.000E+00  4.45970E+01  1.539E-01  2.000E+01  2.000E+04 -3.007E-02
   1   16   10     1    10    1.1113E+05 -3.6288E+02   1.1149E+05  0.000E+00  0.000E+00  0.000E+00  4.41202E+01  1.543E-01  2.000E+01  2.000E+04 -1.814E-02
   1   16   11     1    11    1.1149E+05 -2.7535E+01   1.1152E+05  0.000E+00  0.000E+00  0.000E+00  4.36431E+01  1.544E-01  2.000E+01  2.000E+04 -1.377E-03
   1   16   12     1    12    1.1152E+05  5.0467E+02   1.1102E+05  0.000E+00  0.000E+00  0.000E+00  4.31656E+01  1.542E-01  2.000E+01  2.000E+04  2.523E-02
   1   15   13     1    13    1.1102E+05 -3.5070E+02   1.1137E+05  0.000E+00  0.000E+00  0.000E+00  4.26882E+01  1.542E-01  2.000E+01  2.000E+04 -1.754E-02
   1   14   14     1    14    1.1137E+05 -1.3433E+03   1.1271E+05  0.000E+00  0.000E+00  0.000E+00  4.22117E+01  1.549E-01  2.000E+01  2.000E+04 -6.717E-02
   1   13   15     1    15    1.1271E+05 -2.2094E+03   1.1492E+05  0.000E+00  0.000E+00  0.000E+00  4.17359E+01  1.563E-01  2.000E+01  2.000E+04 -1.105E-01
   1   12   16     1    16    1.1492E+05 -3.4490E+03   1.1837E+05  0.000E+00  0.000E+00  0.000E+00  4.12609E+01  1.586E-01  2.000E+01  2.000E+04 -1.724E-01
   1   12   17     1    17    1.1837E+05 -2.0743E+03   1.2044E+05  0.000E+00  0.000E+00  0.000E+00  4.07859E+01  1.609E-01  2.000E+01  2.000E+04 -1.037E-01
   1   12   18     1    18    1.2044E+05 -1.9719E+03   1.2241E+05  0.000E+00  0.000E+00  0.000E+00  4.03103E+01  1.625E-01  2.000E+01  2.000E+04 -9.860E-02
   1   12   19     1    19    1.2241E+05 -2.7175E+03   1.2513E+05  0.000E+00  0.000E+00  0.000E+00  3.98349E+01  1.644E-01  2.000E+01  2.000E+04 -1.359E-01
   1   13   20     1    20    1.2513E+05 -1.6411E+03   1.2677E+05  0.000E+00  0.000E+00  0.000E+00  3.93593E+01  1.661E-01  2.000E+01  2.000E+04 -8.205E-02
   1   14   21     1    21    1.2677E+05 -1.1096E+03   1.2788E+05  0.000E+00  0.000E+00  0.000E+00  3.88831E+01  1.672E-01  2.000E+01  2.000E+04 -5.548E-02
   1   14   22     1    22    1.2788E+05  4.8492E+03   1.2303E+05  0.000E+00  0.000E+00  0.000E+00  3.84044E+01  1.657E-01  2.000E+01  2.000E+04  2.425E-01
   1    9   30     2     1    5.0000E+04 -8.9505E+02   5.0895E+04  0.000E+00  0.000E+00  0.000E+00  4.02415E+01  1.165E-01  2.000E+01  2.000E+04 -4.475E-02
   1    9   29     2     2    5.0895E+04 -1.2026E+03   5.2098E+04  0.000E+00  0.000E+00  0.000E+00  3.99929E+01  1.179E-01  2.000E+01  2.000E+04 -6.013E-02
   1    9   28     2     3    5.2098E+04 -1.4817E+03   5.3579E+04  0.000E+00  0.000E+00  0.000E+00  3.97448E+01  1.198E-01  2.000E+01  2.000E+04 -7.408E-02
   1    9   27     2     4    5.3579E+04 -2.9503E+03   5.6530E+04  0.000E+00  0.000E+00  0.000E+00  3.94978E+01  1.228E-01  2.000E+01  2.000E+04 -1.475E-01
   1   10   26     2     5    5.6530E+04 -2.0679E+03   5.8597E+04  0.000E+00  0.000E+00  0.000E+00  3.92511E+01  1.261E-01  2.000E+01  2.000E+04 -1.034E-01
   1   11   25     2     6    5.8597E+04 -1.8302E+03   6.0428E+04  0.000E+00  0.000E+00  0.000E+00  3.90036E+01  1.286E-01  2.000E+01  2.000E+04 -9.151E-02
   1   12   24     2     7    6.0428E+04 -1.8757E+03   6.2303E+04  0.000E+00  0.000E+00  0.000E+00  3.87560E+01  1.310E-01  2.000E+01  2.000E+04 -9.379E-02
   1   13   23     2     8    6.2303E+04 -3.1711E+02   6.2621E+04  0.000E+00  0.000E+00  0.000E+00  3.85074E+01  1.324E-01  2.000E+01  2.000E+04 -1.586E-02
   1   14   22     2     9    6.2621E+04  1.8899E+03   6.0731E+04  0.000E+00  0.000E+00  0.000E+00  3.82564E+01  1.314E-01  2.000E+01  2.000E+04  9.450E-02
   1   14   22     3     1    1.8376E+05 -8.6203E+03   1.9238E+05  0.000E+00  0.000E+00  0.000E+00  3.77309E+01  1.753E-01  2.000E+01  2.000E+04 -4.310E-01
   1   15   23     3     2    1.9238E+05 -4.6979E+02   1.9285E+05  0.000E+00  0.000E+00  0.000E+00  3.68445E+01  1.779E-01  2.000E+01  2.000E+04 -2.349E-02
   1   15   24     3     3    1.9285E+05 -3.0086E+02   1.9315E+05  0.000E+00  0.000E+00  0.000E+00  3.59559E+01  1.781E-01  2.000E+01  2.000E+04 -1.504E-02
   1   15   25     3     4    1.9315E+05 -3.0748E+02   1.9346E+05  0.000E+00  0.000E+00  0.000E+00  3.50671E+01  1.783E-01  2.000E+01  2.000E+04 -1.537E-02
   1   15   26     3     5    1.9346E+05 -3.6632E+02   1.9383E+05  0.000E+00  0.000E+00  0.000E+00  3.41784E+01  1.784E-01  2.000E+01  2.000E+04 -1.832E-02
   1   16   27     3     6    1.9383E+05 -4.1039E+02   1.9424E+05  0.000E+00  0.000E+00  0.000E+00  3.32898E+01  1.787E-01  2.000E+01  2.000E+04 -2.052E-02
   1   17   28     3     7    1.9424E+05 -1.6758E+03   1.9591E+05  0.000E+00  0.000E+00  0.000E+00  3.24015E+01  1.792E-01  2.000E+01  2.000E+04 -8.379E-02
   1   18   29     3     8    1.9591E+05 -3.0666E+03   1.9898E+05  0.000E+00  0.000E+00  0.000E+00  3.15139E+01  1.805E-01  2.000E+01  2.000E+04 -1.533E-01
   1   18   30     3     9    1.9898E+05 -3.2916E+03   2.0227E+05  0.000E+00  0.000E+00  0.000E+00  3.06267E+01  1.823E-01  2.000E+01  2.000E+04 -1.646E-01



1
              HEAD IN LAYER   1 AT END OF TIME STEP   1 IN STRESS PERIOD    4
  ---------------------------------------------------------------------------

          1      2      3      4      5      6      7      8      9     10
         11     12     13     14     15     16     17     18     19     20
         21     22     23     24     25     26     27     28     29     30
 .........................................................................
   1  ****** ****** ****** ****** ****** ****** ****** ****** ****** ******
      ****** ****** ****** ****** ****** ****** ****** ****** ****** ******
      ****** ****** ****** ****** ****** ****** ****** ****** ****** ******
   2  ****** ****** ****** ****** ****** ****** ****** ****** ****** ******
      ****** ****** ****** ****** ****** ****** ****** ****** ****** ******
      ****** ****** ****** ****** ****** ****** ****** ****** ****** ******
   3  ****** ****** ****** ****** ****** ****** ****** ****** ****** ******
      ****** ****** ****** ****** ****** ****** ****** ****** ****** ******
      ****** ****** ****** ****** ****** ****** ****** ****** ****** ******
   4  ****** ****** ****** ****** ****** ****** ****** ****** ****** ******
      ****** ****** ****** ****** ****** ****** ****** ****** ****** ******
      ****** ****** ****** ****** ****** ****** ****** ****** ****** ******
   5  ****** ****** ****** ****** ****** ****** ****** ****** ****** ******
      ****** ****** ****** ****** ****** ****** ****** ****** ****** ******
      ****** ****** ****** ****** ****** ****** ****** ****** ****** ******
   6  ****** ****** ****** ****** ****** ****** ****** ****** ****** ******
      ****** ****** ****** ****** ****** ****** ****** ****** ****** ******
      ****** ****** ****** ****** ****** ****** ****** ****** ****** ******
   7  ****** ****** ****** ****** ****** ****** ****** ****** ****** ******
      ****** ****** ****** ****** ****** ****** ****** ****** ****** ******
      ****** ****** ****** ****** ****** ****** ****** ****** ****** ******
   8  ****** ****** ****** ****** ****** ****** ****** ****** ****** ******
      ****** ****** ****** ****** ****** ****** ****** ****** ****** ******
      ****** ****** ****** ****** ****** ****** ****** ****** ****** ******
   9  ****** ****** ****** ****** ****** ****** ****** ****** ****** ******
      ****** ****** ****** ****** ****** ****** ****** ****** ****** ******
      ****** ****** ****** ****** ****** ****** ****** ****** ****** ******
  10  ****** ****** ****** ****** ****** ****** ****** ****** ****** ******
      ****** ****** ****** ****** ****** ****** ****** ****** ****** ******
      ****** ****** ****** ****** ****** ****** ****** ****** ****** ******
  11  ****** ****** ****** ****** ****** ****** ****** ****** ****** ******
      ****** ****** ****** ****** ****** ****** ****** ****** ****** ******
      ****** ****** ****** ****** ****** ****** ****** ****** ****** ******
  12  ****** ****** ****** ****** ****** ****** ****** ****** ****** ******
      ****** ****** ****** ****** ****** ****** ****** ****** ****** ******
      ****** ****** ****** ****** ****** ****** ****** ****** ****** ******
  13  ****** ****** ****** ****** ****** ****** ****** ****** ****** ******
      ****** ****** ****** ****** ****** ****** ****** ****** ****** ******
      ****** ****** ****** ****** ****** ****** ****** ****** ****** ******
  14  ****** ****** ****** ****** ****** ****** ****** ****** ****** ******
      ****** ****** ****** ****** ****** ****** ****** ****** ****** ******
      ****** ****** ****** ****** ****** ****** ****** ****** ****** ******
  15  ****** ****** ****** ****** ****** ****** ****** ****** ****** ******
      ****** ****** ****** ****** ****** ****** ****** ****** ****** ******
      ****** ****** ****** ****** ****** ****** ****** ****** ****** ******
  16  ****** ****** ****** ****** ****** ****** ****** ****** ****** ******
      ****** ****** ****** ****** ****** ****** ****** ****** ****** ******
      ****** ****** ****** ****** ****** ****** ****** ****** ****** ******
  17  ****** ****** ****** ****** ****** ****** ****** ****** ****** ******
      ****** ****** ****** ****** ****** ****** ****** ****** ****** ******
      ****** ****** ****** ****** ****** ****** ****** ****** ****** ******
  18  ****** ****** ****** ****** ****** ****** ****** ****** ****** ******
      ****** ****** ****** ****** ****** ****** ****** ****** ****** ******
      ****** ****** ****** ****** ****** ****** ****** ****** ****** ******
  19  ****** ****** ****** ****** ****** ****** ****** ****** ****** ******
      ****** ****** ****** ****** ****** ****** ****** ****** ****** ******
      ****** ****** ****** ****** ****** ****** ****** ****** ****** ******
  20  ****** ****** ****** ****** ****** ****** ****** ****** ****** ******
      ****** ****** ****** ****** ****** ****** ****** ****** ****** ******
      ****** ****** ****** ****** ****** ****** ****** ****** ****** ******
  21  ****** ****** ****** ****** ****** ****** ****** ****** ****** ******
      ****** ****** ****** ****** ****** ****** ****** ****** ****** ******
      ****** ****** ****** ****** ****** ****** ****** ****** ****** ******
  22  ****** ****** ****** ****** ****** ****** ****** ****** ****** ******
      ****** ****** ****** ****** ****** ****** ****** ****** ****** ******
      ****** ****** ****** ****** ****** ****** ****** ****** ****** ******
  23  ****** ****** ****** ****** ****** ****** ****** ****** ****** ******
      ****** ****** ****** ****** ****** ****** ****** ****** ****** ******
      ****** ****** ****** ****** ****** ****** ****** ****** ****** ******
  24  ****** ****** ****** ****** ****** ****** ****** ****** ****** ******
      ****** ****** ****** ****** ****** ****** ****** ****** ****** ******
      ****** ****** ****** ****** ****** ****** ****** ****** ****** ******
  25  ****** ****** ****** ****** ****** ****** ****** ****** ****** ******
      ****** ****** ****** ****** ****** ****** ****** ****** ****** ******
      ****** ****** ****** ****** ****** ****** ****** ****** ****** ******

 HEAD WILL BE SAVED ON UNIT   51 AT END OF TIME STEP    1, STRESS PERIOD    4
1
  VOLUMETRIC BUDGET FOR ENTIRE MODEL AT END OF TIME STEP    1, STRESS PERIOD   4
  ------------------------------------------------------------------------------

     CUMULATIVE VOLUMES      L**3       RATES FOR THIS TIME STEP      L**3/T
     ------------------                 ------------------------

           IN:                                      IN:
           ---                                      ---
             STORAGE =    29677768.3869               STORAGE =       19150.8354
       CONSTANT HEAD =     7855846.5980         CONSTANT HEAD =       29163.2403
               WELLS =           0.0000                 WELLS =           0.0000
            RECHARGE =     8804400.0000              RECHARGE =       27600.0000
      STREAM LEAKAGE =     2154820.0593        STREAM LEAKAGE =        7243.7727

            TOTAL IN =    48492835.0441              TOTAL IN =       83157.8483

          OUT:                                     OUT:
          ----                                     ----
             STORAGE =        1243.6548               STORAGE =          13.6665
       CONSTANT HEAD =           0.0000         CONSTANT HEAD =           0.0000
               WELLS =     8624208.6430                 WELLS =       23627.9689
            RECHARGE =           0.0000              RECHARGE =           0.0000
      STREAM LEAKAGE =    39867384.8078        STREAM LEAKAGE =       59516.2139

           TOTAL OUT =    48492837.1056             TOTAL OUT =       83157.8493

            IN - OUT =          -2.0614              IN - OUT =      -9.6487E-04

 PERCENT DISCREPANCY =          -0.00     PERCENT DISCREPANCY =          -0.00






         TIME SUMMARY AT END OF TIME STEP    1 IN STRESS PERIOD    4
                    SECONDS     MINUTES      HOURS       DAYS        YEARS
                    -----------------------------------------------------------
   TIME STEP LENGTH 7.86240E+06 1.31040E+05  2184.0      91.000     0.24914    
 STRESS PERIOD TIME 7.86240E+06 1.31040E+05  2184.0      91.000     0.24914    
         TOTAL TIME 3.15360E+07 5.25600E+05  8760.0      365.00     0.99932    
1
1
                            STRESS PERIOD NO.    5, LENGTH =   92.00000    
                            -----------------------------------------------

                              NUMBER OF TIME STEPS =     1

                               MULTIPLIER FOR DELT =     1.500

                            INITIAL TIME STEP SIZE =   92.00000    

 WELL NO.  LAYER   ROW   COL   STRESS RATE         
 --------------------------------------------------
      1      1     20     17      -6946.    
      2      1     18     14      -7709.    
      3      1      9      3      -2375.    
      4      1     21     12      -6598.    

      4 WELLS

                 RECHARGE =  5.000000E-04

 REUSING STREAM SEGMENT DATA FROM LAST STRESS PERIOD
 
 SOLVING FOR HEAD 


     7 CALLS TO PCG ROUTINE FOR TIME STEP   1 IN STRESS PERIOD    5
    26 TOTAL ITERATIONS

 OUTPUT CONTROL FOR STRESS PERIOD    5   TIME STEP    1
    SAVE BUDGET
    SAVE HEAD FOR ALL LAYERS
    PRINT HEAD FOR ALL LAYERS
 UBDSV2 SAVING "STREAMFLOW OUT  " ON UNIT  50 AT TIME STEP  1, STRESS PERIOD   5



 STREAM LISTING     PERIOD      5   STEP        1

 LAYER ROW COL. STREAM  RCH.  FLOW INTO     FLOW TO   FLOW OUT OF   OVRLND.     DIRECT     STREAM       STREAM     STREAM     STREAM   STREAMBED  STREAMBED
                SEG.NO.  NO.  STRM. RCH.    AQUIFER    STRM. RCH.    RUNOFF     PRECIP       ET          HEAD       DEPTH      WIDTH   CONDCTNC.   GRADIENT

   1   13    1     1     1    1.0000E+05 -1.5985E+03   1.0160E+05  0.000E+00  0.000E+00  0.000E+00  4.84067E+01  1.453E-01  2.000E+01  2.000E+04 -7.993E-02
   1   13    2     1     2    1.0160E+05 -2.5759E+03   1.0417E+05  0.000E+00  0.000E+00  0.000E+00  4.79312E+01  1.471E-01  2.000E+01  2.000E+04 -1.288E-01
   1   14    3     1     3    1.0417E+05 -4.4410E+02   1.0462E+05  0.000E+00  0.000E+00  0.000E+00  4.74553E+01  1.484E-01  2.000E+01  2.000E+04 -2.220E-02
   1   15    4     1     4    1.0462E+05 -4.0416E+02   1.0502E+05  0.000E+00  0.000E+00  0.000E+00  4.69783E+01  1.488E-01  2.000E+01  2.000E+04 -2.021E-02
   1   16    5     1     5    1.0502E+05 -1.1973E+03   1.0622E+05  0.000E+00  0.000E+00  0.000E+00  4.65018E+01  1.495E-01  2.000E+01  2.000E+04 -5.986E-02
   1   16    6     1     6    1.0622E+05 -7.2158E+02   1.0694E+05  0.000E+00  0.000E+00  0.000E+00  4.60253E+01  1.503E-01  2.000E+01  2.000E+04 -3.608E-02
   1   16    7     1     7    1.0694E+05 -6.3403E+02   1.0758E+05  0.000E+00  0.000E+00  0.000E+00  4.55486E+01  1.509E-01  2.000E+01  2.000E+04 -3.170E-02
   1   16    8     1     8    1.0758E+05 -5.1614E+02   1.0809E+05  0.000E+00  0.000E+00  0.000E+00  4.50718E+01  1.513E-01  2.000E+01  2.000E+04 -2.581E-02
   1   16    9     1     9    1.0809E+05 -3.4671E+02   1.0844E+05  0.000E+00  0.000E+00  0.000E+00  4.45949E+01  1.517E-01  2.000E+01  2.000E+04 -1.734E-02
   1   16   10     1    10    1.0844E+05 -1.0995E+02   1.0855E+05  0.000E+00  0.000E+00  0.000E+00  4.41178E+01  1.519E-01  2.000E+01  2.000E+04 -5.497E-03
   1   16   11     1    11    1.0855E+05  2.2889E+02   1.0832E+05  0.000E+00  0.000E+00  0.000E+00  4.36405E+01  1.519E-01  2.000E+01  2.000E+04  1.144E-02
   1   16   12     1    12    1.0832E+05  9.6378E+02   1.0736E+05  0.000E+00  0.000E+00  0.000E+00  4.31627E+01  1.514E-01  2.000E+01  2.000E+04  4.819E-02
   1   15   13     1    13    1.0736E+05  1.1432E+02   1.0724E+05  0.000E+00  0.000E+00  0.000E+00  4.26850E+01  1.509E-01  2.000E+01  2.000E+04  5.716E-03
   1   14   14     1    14    1.0724E+05 -8.5972E+02   1.0810E+05  0.000E+00  0.000E+00  0.000E+00  4.22080E+01  1.512E-01  2.000E+01  2.000E+04 -4.299E-02
   1   13   15     1    15    1.0810E+05 -1.7177E+03   1.0982E+05  0.000E+00  0.000E+00  0.000E+00  4.17318E+01  1.523E-01  2.000E+01  2.000E+04 -8.588E-02
   1   12   16     1    16    1.0982E+05 -2.9265E+03   1.1275E+05  0.000E+00  0.000E+00  0.000E+00  4.12565E+01  1.542E-01  2.000E+01  2.000E+04 -1.463E-01
   1   12   17     1    17    1.1275E+05 -1.7189E+03   1.1446E+05  0.000E+00  0.000E+00  0.000E+00  4.07812E+01  1.562E-01  2.000E+01  2.000E+04 -8.594E-02
   1   12   18     1    18    1.1446E+05 -1.6335E+03   1.1610E+05  0.000E+00  0.000E+00  0.000E+00  4.03053E+01  1.575E-01  2.000E+01  2.000E+04 -8.167E-02
   1   12   19     1    19    1.1610E+05 -2.3135E+03   1.1841E+05  0.000E+00  0.000E+00  0.000E+00  3.98296E+01  1.591E-01  2.000E+01  2.000E+04 -1.157E-01
   1   13   20     1    20    1.1841E+05 -1.2719E+03   1.1968E+05  0.000E+00  0.000E+00  0.000E+00  3.93538E+01  1.606E-01  2.000E+01  2.000E+04 -6.359E-02
   1   14   21     1    21    1.1968E+05 -6.9674E+02   1.2038E+05  0.000E+00  0.000E+00  0.000E+00  3.88773E+01  1.614E-01  2.000E+01  2.000E+04 -3.484E-02
   1   14   22     1    22    1.2038E+05  4.9302E+03   1.1545E+05  0.000E+00  0.000E+00  0.000E+00  3.83983E+01  1.597E-01  2.000E+01  2.000E+04  2.465E-01
   1    9   30     2     1    5.0000E+04 -6.6941E+02   5.0669E+04  0.000E+00  0.000E+00  0.000E+00  4.02413E+01  1.163E-01  2.000E+01  2.000E+04 -3.347E-02
   1    9   29     2     2    5.0669E+04 -9.7373E+02   5.1643E+04  0.000E+00  0.000E+00  0.000E+00  3.99925E+01  1.175E-01  2.000E+01  2.000E+04 -4.869E-02
   1    9   28     2     3    5.1643E+04 -1.2417E+03   5.2885E+04  0.000E+00  0.000E+00  0.000E+00  3.97440E+01  1.190E-01  2.000E+01  2.000E+04 -6.208E-02
   1    9   27     2     4    5.2885E+04 -2.5741E+03   5.5459E+04  0.000E+00  0.000E+00  0.000E+00  3.94966E+01  1.216E-01  2.000E+01  2.000E+04 -1.287E-01
   1   10   26     2     5    5.5459E+04 -1.7383E+03   5.7197E+04  0.000E+00  0.000E+00  0.000E+00  3.92495E+01  1.245E-01  2.000E+01  2.000E+04 -8.691E-02
   1   11   25     2     6    5.7197E+04 -1.5272E+03   5.8724E+04  0.000E+00  0.000E+00  0.000E+00  3.90016E+01  1.266E-01  2.000E+01  2.000E+04 -7.636E-02
   1   12   24     2     7    5.8724E+04 -1.5988E+03   6.0323E+04  0.000E+00  0.000E+00  0.000E+00  3.87536E+01  1.286E-01  2.000E+01  2.000E+04 -7.994E-02
   1   13   23     2     8    6.0323E+04 -2.4965E+02   6.0573E+04  0.000E+00  0.000E+00  0.000E+00  3.85048E+01  1.298E-01  2.000E+01  2.000E+04 -1.248E-02
   1   14   22     2     9    6.0573E+04  2.0374E+03   5.8535E+04  0.000E+00  0.000E+00  0.000E+00  3.82537E+01  1.287E-01  2.000E+01  2.000E+04  1.019E-01
   1   14   22     3     1    1.7398E+05 -8.5293E+03   1.8251E+05  0.000E+00  0.000E+00  0.000E+00  3.77253E+01  1.698E-01  2.000E+01  2.000E+04 -4.265E-01
   1   15   23     3     2    1.8251E+05 -3.6252E+02   1.8288E+05  0.000E+00  0.000E+00  0.000E+00  3.68390E+01  1.723E-01  2.000E+01  2.000E+04 -1.813E-02
   1   15   24     3     3    1.8288E+05 -2.2487E+02   1.8310E+05  0.000E+00  0.000E+00  0.000E+00  3.59503E+01  1.725E-01  2.000E+01  2.000E+04 -1.124E-02
   1   15   25     3     4    1.8310E+05 -2.3301E+02   1.8333E+05  0.000E+00  0.000E+00  0.000E+00  3.50615E+01  1.726E-01  2.000E+01  2.000E+04 -1.165E-02
   1   15   26     3     5    1.8333E+05 -2.9231E+02   1.8363E+05  0.000E+00  0.000E+00  0.000E+00  3.41728E+01  1.728E-01  2.000E+01  2.000E+04 -1.462E-02
   1   16   27     3     6    1.8363E+05 -3.1630E+02   1.8394E+05  0.000E+00  0.000E+00  0.000E+00  3.32840E+01  1.729E-01  2.000E+01  2.000E+04 -1.582E-02
   1   17   28     3     7    1.8394E+05 -1.3942E+03   1.8534E+05  0.000E+00  0.000E+00  0.000E+00  3.23956E+01  1.734E-01  2.000E+01  2.000E+04 -6.971E-02
   1   18   29     3     8    1.8534E+05 -2.6624E+03   1.8800E+05  0.000E+00  0.000E+00  0.000E+00  3.15079E+01  1.746E-01  2.000E+01  2.000E+04 -1.331E-01
   1   18   30     3     9    1.8800E+05 -3.0160E+03   1.9102E+05  0.000E+00  0.000E+00  0.000E+00  3.06206E+01  1.761E-01  2.000E+01  2.000E+04 -1.508E-01



1
              HEAD IN LAYER   1 AT END OF TIME STEP   1 IN STRESS PERIOD    5
  ---------------------------------------------------------------------------

          1      2      3      4      5      6      7      8      9     10
         11     12     13     14     15     16     17     18     19     20
         21     22     23     24     25     26     27     28     29     30
 .........................................................................
   1  ****** ****** ****** ****** ****** ****** ****** ****** ****** ******
      ****** ****** ****** ****** ****** ****** ****** ****** ****** ******
      ****** ****** ****** ****** ****** ****** ****** ****** ****** ******
   2  ****** ****** ****** ****** ****** ****** ****** ****** ****** ******
      ****** ****** ****** ****** ****** ****** ****** ****** ****** ******
      ****** ****** ****** ****** ****** ****** ****** ****** ****** ******
   3  ****** ****** ****** ****** ****** ****** ****** ****** ****** ******
      ****** ****** ****** ****** ****** ****** ****** ****** ****** ******
      ****** ****** ****** ****** ****** ****** ****** ****** ****** ******
   4  ****** ****** ****** ****** ****** ****** ****** ****** ****** ******
      ****** ****** ****** ****** ****** ****** ****** ****** ****** ******
      ****** ****** ****** ****** ****** ****** ****** ****** ****** ******
   5  ****** ****** ****** ****** ****** ****** ****** ****** ****** ******
      ****** ****** ****** ****** ****** ****** ****** ****** ****** ******
      ****** ****** ****** ****** ****** ****** ****** ****** ****** ******
   6  ****** ****** ****** ****** ****** ****** ****** ****** ****** ******
      ****** ****** ****** ****** ****** ****** ****** ****** ****** ******
      ****** ****** ****** ****** ****** ****** ****** ****** ****** ******
   7  ****** ****** ****** ****** ****** ****** ****** ****** ****** ******
      ****** ****** ****** ****** ****** ****** ****** ****** ****** ******
      ****** ****** ****** ****** ****** ****** ****** ****** ****** ******
   8  ****** ****** ****** ****** ****** ****** ****** ****** ****** ******
      ****** ****** ****** ****** ****** ****** ****** ****** ****** ******
      ****** ****** ****** ****** ****** ****** ****** ****** ****** ******
   9  ****** ****** ****** ****** ****** ****** ****** ****** ****** ******
      ****** ****** ****** ****** ****** ****** ****** ****** ****** ******
      ****** ****** ****** ****** ****** ****** ****** ****** ****** ******
  10  ****** ****** ****** ****** ****** ****** ****** ****** ****** ******
      ****** ****** ****** ****** ****** ****** ****** ****** ****** ******
      ****** ****** ****** ****** ****** ****** ****** ****** ****** ******
  11  ****** ****** ****** ****** ****** ****** ****** ****** ****** ******
      ****** ****** ****** ****** ****** ****** ****** ****** ****** ******
      ****** ****** ****** ****** ****** ****** ****** ****** ****** ******
  12  ****** ****** ****** ****** ****** ****** ****** ****** ****** ******
      ****** ****** ****** ****** ****** ****** ****** ****** ****** ******
      ****** ****** ****** ****** ****** ****** ****** ****** ****** ******
  13  ****** ****** ****** ****** ****** ****** ****** ****** ****** ******
      ****** ****** ****** ****** ****** ****** ****** ****** ****** ******
      ****** ****** ****** ****** ****** ****** ****** ****** ****** ******
  14  ****** ****** ****** ****** ****** ****** ****** ****** ****** ******
      ****** ****** ****** ****** ****** ****** ****** ****** ****** ******
      ****** ****** ****** ****** ****** ****** ****** ****** ****** ******
  15  ****** ****** ****** ****** ****** ****** ****** ****** ****** ******
      ****** ****** ****** ****** ****** ****** ****** ****** ****** ******
      ****** ****** ****** ****** ****** ****** ****** ****** ****** ******
  16  ****** ****** ****** ****** ****** ****** ****** ****** ****** ******
      ****** ****** ****** ****** ****** ****** ****** ****** ****** ******
      ****** ****** ****** ****** ****** ****** ****** ****** ****** ******
  17  ****** ****** ****** ****** ****** ****** ****** ****** ****** ******
      ****** ****** ****** ****** ****** ****** ****** ****** ****** ******
      ****** ****** ****** ****** ****** ****** ****** ****** ****** ******
  18  ****** ****** ****** ****** ****** ****** ****** ****** ****** ******
      ****** ****** ****** ****** ****** ****** ****** ****** ****** ******
      ****** ****** ****** ****** ****** ****** ****** ****** ****** ******
  19  ****** ****** ****** ****** ****** ****** ****** ****** ****** ******
      ****** ****** ****** ****** ****** ****** ****** ****** ****** ******
      ****** ****** ****** ****** ****** ****** ****** ****** ****** ******
  20  ****** ****** ****** ****** ****** ****** ****** ****** ****** ******
      ****** ****** ****** ****** ****** ****** ****** ****** ****** ******
      ****** ****** ****** ****** ****** ****** ****** ****** ****** ******
  21  ****** ****** ****** ****** ****** ****** ****** ****** ****** ******
      ****** ****** ****** ****** ****** ****** ****** ****** ****** ******
      ****** ****** ****** ****** ****** ****** ****** ****** ****** ******
  22  ****** ****** ****** ****** ****** ****** ****** ****** ****** ******
      ****** ****** ****** ****** ****** ****** ****** ****** ****** ******
      ****** ****** ****** ****** ****** ****** ****** ****** ****** ******
  23  ****** ****** ****** ****** ****** ****** ****** ****** ****** ******
      ****** ****** ****** ****** ****** ****** ****** ****** ****** ******
      ****** ****** ****** ****** ****** ****** ****** ****** ****** ******
  24  ****** ****** ****** ****** ****** ****** ****** ****** ****** ******
      ****** ****** ****** ****** ****** ****** ****** ****** ****** ******
      ****** ****** ****** ****** ****** ****** ****** ****** ****** ******
  25  ****** ****** ****** ****** ****** ****** ****** ****** ****** ******
      ****** ****** ****** ****** ****** ****** ****** ****** ****** ******
      ****** ****** ****** ****** ****** ****** ****** ****** ****** ******

 HEAD WILL BE SAVED ON UNIT   51 AT END OF TIME STEP    1, STRESS PERIOD    5
1
  VOLUMETRIC BUDGET FOR ENTIRE MODEL AT END OF TIME STEP    1, STRESS PERIOD   5
  ------------------------------------------------------------------------------

     CUMULATIVE VOLUMES      L**3       RATES FOR THIS TIME STEP      L**3/T
     ------------------                 ------------------------

           IN:                                      IN:
           ---                                      ---
             STORAGE =    31396684.0285               STORAGE =       18683.8657
       CONSTANT HEAD =    10814553.1378         CONSTANT HEAD =       32159.8537
               WELLS =           0.0000                 WELLS =           0.0000
            RECHARGE =    10074000.0000              RECHARGE =       13800.0000
      STREAM LEAKAGE =     2916084.9249        STREAM LEAKAGE =        8274.6181

            TOTAL IN =    55201322.0912              TOTAL IN =       72918.3375

          OUT:                                     OUT:
          ----                                     ----
             STORAGE =        1243.6548               STORAGE =           0.0000
       CONSTANT HEAD =           0.0000         CONSTANT HEAD =           0.0000
               WELLS =    10797981.7804                 WELLS =       23627.9689
            RECHARGE =           0.0000              RECHARGE =           0.0000
      STREAM LEAKAGE =    44402099.0209        STREAM LEAKAGE =       49290.3719

           TOTAL OUT =    55201324.4561             TOTAL OUT =       72918.3408

            IN - OUT =          -2.3649              IN - OUT =      -3.2984E-03

 PERCENT DISCREPANCY =          -0.00     PERCENT DISCREPANCY =          -0.00






         TIME SUMMARY AT END OF TIME STEP    1 IN STRESS PERIOD    5
                    SECONDS     MINUTES      HOURS       DAYS        YEARS
                    -----------------------------------------------------------
   TIME STEP LENGTH 7.94880E+06 1.32480E+05  2208.0      92.000     0.25188    
 STRESS PERIOD TIME 7.94880E+06 1.32480E+05  2208.0      92.000     0.25188    
         TOTAL TIME 3.94848E+07 6.58080E+05  10968.      457.00      1.2512    
1
1
                            STRESS PERIOD NO.    6, LENGTH =   91.00000    
                            -----------------------------------------------

                              NUMBER OF TIME STEPS =     1

                               MULTIPLIER FOR DELT =     1.500

                            INITIAL TIME STEP SIZE =   91.00000    

 WELL NO.  LAYER   ROW   COL   STRESS RATE         
 --------------------------------------------------
      1      1     20     17      -6946.    
      2      1     18     14      -7709.    
      3      1      9      3      -2375.    
      4      1     21     12      -6598.    

      4 WELLS

                 RECHARGE =  2.000000E-03

 REUSING STREAM SEGMENT DATA FROM LAST STRESS PERIOD
 
 SOLVING FOR HEAD 


     7 CALLS TO PCG ROUTINE FOR TIME STEP   1 IN STRESS PERIOD    6
    26 TOTAL ITERATIONS

 OUTPUT CONTROL FOR STRESS PERIOD    6   TIME STEP    1
    SAVE BUDGET
    SAVE HEAD FOR ALL LAYERS
    PRINT HEAD FOR ALL LAYERS
 UBDSV2 SAVING "STREAMFLOW OUT  " ON UNIT  50 AT TIME STEP  1, STRESS PERIOD   6



 STREAM LISTING     PERIOD      6   STEP        1

 LAYER ROW COL. STREAM  RCH.  FLOW INTO     FLOW TO   FLOW OUT OF   OVRLND.     DIRECT     STREAM       STREAM     STREAM     STREAM   STREAMBED  STREAMBED
                SEG.NO.  NO.  STRM. RCH.    AQUIFER    STRM. RCH.    RUNOFF     PRECIP       ET          HEAD       DEPTH      WIDTH   CONDCTNC.   GRADIENT

   1   13    1     1     1    1.0000E+05 -1.9035E+03   1.0190E+05  0.000E+00  0.000E+00  0.000E+00  4.84068E+01  1.455E-01  2.000E+01  2.000E+04 -9.518E-02
   1   13    2     1     2    1.0190E+05 -2.9098E+03   1.0481E+05  0.000E+00  0.000E+00  0.000E+00  4.79316E+01  1.475E-01  2.000E+01  2.000E+04 -1.455E-01
   1   14    3     1     3    1.0481E+05 -5.9641E+02   1.0541E+05  0.000E+00  0.000E+00  0.000E+00  4.74559E+01  1.490E-01  2.000E+01  2.000E+04 -2.982E-02
   1   15    4     1     4    1.0541E+05 -5.6750E+02   1.0598E+05  0.000E+00  0.000E+00  0.000E+00  4.69791E+01  1.495E-01  2.000E+01  2.000E+04 -2.838E-02
   1   16    5     1     5    1.0598E+05 -1.6763E+03   1.0765E+05  0.000E+00  0.000E+00  0.000E+00  4.65028E+01  1.505E-01  2.000E+01  2.000E+04 -8.382E-02
   1   16    6     1     6    1.0765E+05 -1.0033E+03   1.0866E+05  0.000E+00  0.000E+00  0.000E+00  4.60266E+01  1.516E-01  2.000E+01  2.000E+04 -5.017E-02
   1   16    7     1     7    1.0866E+05 -9.0091E+02   1.0956E+05  0.000E+00  0.000E+00  0.000E+00  4.55501E+01  1.524E-01  2.000E+01  2.000E+04 -4.505E-02
   1   16    8     1     8    1.0956E+05 -7.7838E+02   1.1034E+05  0.000E+00  0.000E+00  0.000E+00  4.50736E+01  1.531E-01  2.000E+01  2.000E+04 -3.892E-02
   1   16    9     1     9    1.1034E+05 -6.0814E+02   1.1094E+05  0.000E+00  0.000E+00  0.000E+00  4.45969E+01  1.537E-01  2.000E+01  2.000E+04 -3.041E-02
   1   16   10     1    10    1.1094E+05 -3.7232E+02   1.1132E+05  0.000E+00  0.000E+00  0.000E+00  4.41200E+01  1.541E-01  2.000E+01  2.000E+04 -1.862E-02
   1   16   11     1    11    1.1132E+05 -3.5410E+01   1.1135E+05  0.000E+00  0.000E+00  0.000E+00  4.36429E+01  1.543E-01  2.000E+01  2.000E+04 -1.771E-03
   1   16   12     1    12    1.1135E+05  5.3902E+02   1.1081E+05  0.000E+00  0.000E+00  0.000E+00  4.31654E+01  1.541E-01  2.000E+01  2.000E+04  2.695E-02
   1   15   13     1    13    1.1081E+05 -3.2792E+02   1.1114E+05  0.000E+00  0.000E+00  0.000E+00  4.26881E+01  1.540E-01  2.000E+01  2.000E+04 -1.640E-02
   1   14   14     1    14    1.1114E+05 -1.3013E+03   1.1244E+05  0.000E+00  0.000E+00  0.000E+00  4.22115E+01  1.547E-01  2.000E+01  2.000E+04 -6.506E-02
   1   13   15     1    15    1.1244E+05 -2.1442E+03   1.1459E+05  0.000E+00  0.000E+00  0.000E+00  4.17356E+01  1.561E-01  2.000E+01  2.000E+04 -1.072E-01
   1   12   16     1    16    1.1459E+05 -3.3144E+03   1.1790E+05  0.000E+00  0.000E+00  0.000E+00  4.12606E+01  1.583E-01  2.000E+01  2.000E+04 -1.657E-01
   1   12   17     1    17    1.1790E+05 -2.0324E+03   1.1993E+05  0.000E+00  0.000E+00  0.000E+00  4.07855E+01  1.605E-01  2.000E+01  2.000E+04 -1.016E-01
   1   12   18     1    18    1.1993E+05 -1.9506E+03   1.2188E+05  0.000E+00  0.000E+00  0.000E+00  4.03098E+01  1.621E-01  2.000E+01  2.000E+04 -9.753E-02
   1   12   19     1    19    1.2188E+05 -2.7107E+03   1.2459E+05  0.000E+00  0.000E+00  0.000E+00  3.98344E+01  1.640E-01  2.000E+01  2.000E+04 -1.355E-01
   1   13   20     1    20    1.2459E+05 -1.6872E+03   1.2628E+05  0.000E+00  0.000E+00  0.000E+00  3.93589E+01  1.657E-01  2.000E+01  2.000E+04 -8.436E-02
   1   14   21     1    21    1.2628E+05 -1.0914E+03   1.2737E+05  0.000E+00  0.000E+00  0.000E+00  3.88827E+01  1.668E-01  2.000E+01  2.000E+04 -5.457E-02
   1   14   22     1    22    1.2737E+05  4.8271E+03   1.2255E+05  0.000E+00  0.000E+00  0.000E+00  3.84040E+01  1.653E-01  2.000E+01  2.000E+04  2.414E-01
   1    9   30     2     1    5.0000E+04 -1.0364E+03   5.1036E+04  0.000E+00  0.000E+00  0.000E+00  4.02416E+01  1.166E-01  2.000E+01  2.000E+04 -5.182E-02
   1    9   29     2     2    5.1036E+04 -1.3366E+03   5.2373E+04  0.000E+00  0.000E+00  0.000E+00  3.99932E+01  1.182E-01  2.000E+01  2.000E+04 -6.683E-02
   1    9   28     2     3    5.2373E+04 -1.5982E+03   5.3971E+04  0.000E+00  0.000E+00  0.000E+00  3.97452E+01  1.202E-01  2.000E+01  2.000E+04 -7.991E-02
   1    9   27     2     4    5.3971E+04 -3.0273E+03   5.6999E+04  0.000E+00  0.000E+00  0.000E+00  3.94983E+01  1.233E-01  2.000E+01  2.000E+04 -1.514E-01
   1   10   26     2     5    5.6999E+04 -2.2139E+03   5.9212E+04  0.000E+00  0.000E+00  0.000E+00  3.92518E+01  1.268E-01  2.000E+01  2.000E+04 -1.107E-01
   1   11   25     2     6    5.9212E+04 -1.9874E+03   6.1200E+04  0.000E+00  0.000E+00  0.000E+00  3.90045E+01  1.295E-01  2.000E+01  2.000E+04 -9.937E-02
   1   12   24     2     7    6.1200E+04 -2.0137E+03   6.3214E+04  0.000E+00  0.000E+00  0.000E+00  3.87571E+01  1.321E-01  2.000E+01  2.000E+04 -1.007E-01
   1   13   23     2     8    6.3214E+04 -3.8823E+02   6.3602E+04  0.000E+00  0.000E+00  0.000E+00  3.85086E+01  1.336E-01  2.000E+01  2.000E+04 -1.941E-02
   1   14   22     2     9    6.3602E+04  1.9006E+03   6.1701E+04  0.000E+00  0.000E+00  0.000E+00  3.82577E+01  1.327E-01  2.000E+01  2.000E+04  9.503E-02
   1   14   22     3     1    1.8425E+05 -8.6290E+03   1.9288E+05  0.000E+00  0.000E+00  0.000E+00  3.77312E+01  1.756E-01  2.000E+01  2.000E+04 -4.315E-01
   1   15   23     3     2    1.9288E+05 -4.9550E+02   1.9337E+05  0.000E+00  0.000E+00  0.000E+00  3.68448E+01  1.782E-01  2.000E+01  2.000E+04 -2.478E-02
   1   15   24     3     3    1.9337E+05 -3.4482E+02   1.9372E+05  0.000E+00  0.000E+00  0.000E+00  3.59562E+01  1.784E-01  2.000E+01  2.000E+04 -1.724E-02
   1   15   25     3     4    1.9372E+05 -3.5785E+02   1.9407E+05  0.000E+00  0.000E+00  0.000E+00  3.50675E+01  1.786E-01  2.000E+01  2.000E+04 -1.789E-02
   1   15   26     3     5    1.9407E+05 -4.4276E+02   1.9452E+05  0.000E+00  0.000E+00  0.000E+00  3.41788E+01  1.788E-01  2.000E+01  2.000E+04 -2.214E-02
   1   16   27     3     6    1.9452E+05 -4.8325E+02   1.9500E+05  0.000E+00  0.000E+00  0.000E+00  3.32902E+01  1.791E-01  2.000E+01  2.000E+04 -2.416E-02
   1   17   28     3     7    1.9500E+05 -1.8506E+03   1.9685E+05  0.000E+00  0.000E+00  0.000E+00  3.24019E+01  1.797E-01  2.000E+01  2.000E+04 -9.253E-02
   1   18   29     3     8    1.9685E+05 -3.0878E+03   1.9994E+05  0.000E+00  0.000E+00  0.000E+00  3.15144E+01  1.811E-01  2.000E+01  2.000E+04 -1.544E-01
   1   18   30     3     9    1.9994E+05 -3.3638E+03   2.0330E+05  0.000E+00  0.000E+00  0.000E+00  3.06273E+01  1.828E-01  2.000E+01  2.000E+04 -1.682E-01



1
              HEAD IN LAYER   1 AT END OF TIME STEP   1 IN STRESS PERIOD    6
  ---------------------------------------------------------------------------

          1      2      3      4      5      6      7      8      9     10
         11     12     13     14     15     16     17     18     19     20
         21     22     23     24     25     26     27     28     29     30
 .........................................................................
   1  ****** ****** ****** ****** ****** ****** ****** ****** ****** ******
      ****** ****** ****** ****** ****** ****** ****** ****** ****** ******
      ****** ****** ****** ****** ****** ****** ****** ****** ****** ******
   2  ****** ****** ****** ****** ****** ****** ****** ****** ****** ******
      ****** ****** ****** ****** ****** ****** ****** ****** ****** ******
      ****** ****** ****** ****** ****** ****** ****** ****** ****** ******
   3  ****** ****** ****** ****** ****** ****** ****** ****** ****** ******
      ****** ****** ****** ****** ****** ****** ****** ****** ****** ******
      ****** ****** ****** ****** ****** ****** ****** ****** ****** ******
   4  ****** ****** ****** ****** ****** ****** ****** ****** ****** ******
      ****** ****** ****** ****** ****** ****** ****** ****** ****** ******
      ****** ****** ****** ****** ****** ****** ****** ****** ****** ******
   5  ****** ****** ****** ****** ****** ****** ****** ****** ****** ******
      ****** ****** ****** ****** ****** ****** ****** ****** ****** ******
      ****** ****** ****** ****** ****** ****** ****** ****** ****** ******
   6  ****** ****** ****** ****** ****** ****** ****** ****** ****** ******
      ****** ****** ****** ****** ****** ****** ****** ****** ****** ******
      ****** ****** ****** ****** ****** ****** ****** ****** ****** ******
   7  ****** ****** ****** ****** ****** ****** ****** ****** ****** ******
      ****** ****** ****** ****** ****** ****** ****** ****** ****** ******
      ****** ****** ****** ****** ****** ****** ****** ****** ****** ******
   8  ****** ****** ****** ****** ****** ****** ****** ****** ****** ******
      ****** ****** ****** ****** ****** ****** ****** ****** ****** ******
      ****** ****** ****** ****** ****** ****** ****** ****** ****** ******
   9  ****** ****** ****** ****** ****** ****** ****** ****** ****** ******
      ****** ****** ****** ****** ****** ****** ****** ****** ****** ******
      ****** ****** ****** ****** ****** ****** ****** ****** ****** ******
  10  ****** ****** ****** ****** ****** ****** ****** ****** ****** ******
      ****** ****** ****** ****** ****** ****** ****** ****** ****** ******
      ****** ****** ****** ****** ****** ****** ****** ****** ****** ******
  11  ****** ****** ****** ****** ****** ****** ****** ****** ****** ******
      ****** ****** ****** ****** ****** ****** ****** ****** ****** ******
      ****** ****** ****** ****** ****** ****** ****** ****** ****** ******
  12  ****** ****** ****** ****** ****** ****** ****** ****** ****** ******
      ****** ****** ****** ****** ****** ****** ****** ****** ****** ******
      ****** ****** ****** ****** ****** ****** ****** ****** ****** ******
  13  ****** ****** ****** ****** ****** ****** ****** ****** ****** ******
      ****** ****** ****** ****** ****** ****** ****** ****** ****** ******
      ****** ****** ****** ****** ****** ****** ****** ****** ****** ******
  14  ****** ****** ****** ****** ****** ****** ****** ****** ****** ******
      ****** ****** ****** ****** ****** ****** ****** ****** ****** ******
      ****** ****** ****** ****** ****** ****** ****** ****** ****** ******
  15  ****** ****** ****** ****** ****** ****** ****** ****** ****** ******
      ****** ****** ****** ****** ****** ****** ****** ****** ****** ******
      ****** ****** ****** ****** ****** ****** ****** ****** ****** ******
  16  ****** ****** ****** ****** ****** ****** ****** ****** ****** ******
      ****** ****** ****** ****** ****** ****** ****** ****** ****** ******
      ****** ****** ****** ****** ****** ****** ****** ****** ****** ******
  17  ****** ****** ****** ****** ****** ****** ****** ****** ****** ******
      ****** ****** ****** ****** ****** ****** ****** ****** ****** ******
      ****** ****** ****** ****** ****** ****** ****** ****** ****** ******
  18  ****** ****** ****** ****** ****** ****** ****** ****** ****** ******
      ****** ****** ****** ****** ****** ****** ****** ****** ****** ******
      ****** ****** ****** ****** ****** ****** ****** ****** ****** ******
  19  ****** ****** ****** ****** ****** ****** ****** ****** ****** ******
      ****** ****** ****** ****** ****** ****** ****** ****** ****** ******
      ****** ****** ****** ****** ****** ****** ****** ****** ****** ******
  20  ****** ****** ****** ****** ****** ****** ****** ****** ****** ******
      ****** ****** ****** ****** ****** ****** ****** ****** ****** ******
      ****** ****** ****** ****** ****** ****** ****** ****** ****** ******
  21  ****** ****** ****** ****** ****** ****** ****** ****** ****** ******
      ****** ****** ****** ****** ****** ****** ****** ****** ****** ******
      ****** ****** ****** ****** ****** ****** ****** ****** ****** ******
  22  ****** ****** ****** ****** ****** ****** ****** ****** ****** ******
      ****** ****** ****** ****** ****** ****** ****** ****** ****** ******
      ****** ****** ****** ****** ****** ****** ****** ****** ****** ******
  23  ****** ****** ****** ****** ****** ****** ****** ****** ****** ******
      ****** ****** ****** ****** ****** ****** ****** ****** ****** ******
      ****** ****** ****** ****** ****** ****** ****** ****** ****** ******
  24  ****** ****** ****** ****** ****** ****** ****** ****** ****** ******
      ****** ****** ****** ****** ****** ****** ****** ****** ****** ******
      ****** ****** ****** ****** ****** ****** ****** ****** ****** ******
  25  ****** ****** ****** ****** ****** ****** ****** ****** ****** ******
      ****** ****** ****** ****** ****** ****** ****** ****** ****** ******
      ****** ****** ****** ****** ****** ****** ****** ****** ****** ******

 HEAD WILL BE SAVED ON UNIT   51 AT END OF TIME STEP    1, STRESS PERIOD    6
1
  VOLUMETRIC BUDGET FOR ENTIRE MODEL AT END OF TIME STEP    1, STRESS PERIOD   6
  ------------------------------------------------------------------------------

     CUMULATIVE VOLUMES      L**3       RATES FOR THIS TIME STEP      L**3/T
     ------------------                 ------------------------

           IN:                                      IN:
           ---                                      ---
             STORAGE =    31396684.0285               STORAGE =           0.0000
       CONSTANT HEAD =    13571399.8976         CONSTANT HEAD =       30295.0193
               WELLS =           0.0000                 WELLS =           0.0000
            RECHARGE =    15097200.0000              RECHARGE =       55200.0000
      STREAM LEAKAGE =     3577354.4590        STREAM LEAKAGE =        7266.6982

            TOTAL IN =    63642638.3851              TOTAL IN =       92761.7175

          OUT:                                     OUT:
          ----                                     ----
             STORAGE =      780611.0103               STORAGE =        8564.4764
       CONSTANT HEAD =           0.0000         CONSTANT HEAD =           0.0000
               WELLS =    12948126.9490                 WELLS =       23627.9689
            RECHARGE =           0.0000              RECHARGE =           0.0000
      STREAM LEAKAGE =    49913902.5321        STREAM LEAKAGE =       60569.2694

           TOTAL OUT =    63642640.4914             TOTAL OUT =       92761.7147

            IN - OUT =          -2.1062              IN - OUT =       2.8422E-03

 PERCENT DISCREPANCY =          -0.00     PERCENT DISCREPANCY =           0.00






         TIME SUMMARY AT END OF TIME STEP    1 IN STRESS PERIOD    6
                    SECONDS     MINUTES      HOURS       DAYS        YEARS
                    -----------------------------------------------------------
   TIME STEP LENGTH 7.86240E+06 1.31040E+05  2184.0      91.000     0.24914    
 STRESS PERIOD TIME 7.86240E+06 1.31040E+05  2184.0      91.000     0.24914    
         TOTAL TIME 4.73472E+07 7.89120E+05  13152.      548.00      1.5003    
1
1
                            STRESS PERIOD NO.    7, LENGTH =   91.00000    
                            -----------------------------------------------

                              NUMBER OF TIME STEPS =     1

                               MULTIPLIER FOR DELT =     1.500

                            INITIAL TIME STEP SIZE =   91.00000    

 WELL NO.  LAYER   ROW   COL   STRESS RATE         
 --------------------------------------------------
      1      1     20     17      -6946.    
      2      1     18     14      -7709.    
      3      1      9      3      -2375.    
      4      1     21     12      -6598.    

      4 WELLS

                 RECHARGE =   0.00000    

 REUSING STREAM SEGMENT DATA FROM LAST STRESS PERIOD
 
 SOLVING FOR HEAD 


     7 CALLS TO PCG ROUTINE FOR TIME STEP   1 IN STRESS PERIOD    7
    26 TOTAL ITERATIONS

 OUTPUT CONTROL FOR STRESS PERIOD    7   TIME STEP    1
    SAVE BUDGET
    SAVE HEAD FOR ALL LAYERS
    PRINT HEAD FOR ALL LAYERS
 UBDSV2 SAVING "STREAMFLOW OUT  " ON UNIT  50 AT TIME STEP  1, STRESS PERIOD   7



 STREAM LISTING     PERIOD      7   STEP        1

 LAYER ROW COL. STREAM  RCH.  FLOW INTO     FLOW TO   FLOW OUT OF   OVRLND.     DIRECT     STREAM       STREAM     STREAM     STREAM   STREAMBED  STREAMBED
                SEG.NO.  NO.  STRM. RCH.    AQUIFER    STRM. RCH.    RUNOFF     PRECIP       ET          HEAD       DEPTH      WIDTH   CONDCTNC.   GRADIENT

   1   13    1     1     1    1.0000E+05 -1.2328E+03   1.0123E+05  0.000E+00  0.000E+00  0.000E+00  4.84065E+01  1.452E-01  2.000E+01  2.000E+04 -6.164E-02
   1   13    2     1     2    1.0123E+05 -2.1594E+03   1.0339E+05  0.000E+00  0.000E+00  0.000E+00  4.79307E+01  1.466E-01  2.000E+01  2.000E+04 -1.080E-01
   1   14    3     1     3    1.0339E+05 -3.4309E+02   1.0374E+05  0.000E+00  0.000E+00  0.000E+00  4.74545E+01  1.477E-01  2.000E+01  2.000E+04 -1.715E-02
   1   15    4     1     4    1.0374E+05 -3.0318E+02   1.0404E+05  0.000E+00  0.000E+00  0.000E+00  4.69775E+01  1.480E-01  2.000E+01  2.000E+04 -1.516E-02
   1   16    5     1     5    1.0404E+05 -9.1376E+02   1.0495E+05  0.000E+00  0.000E+00  0.000E+00  4.65008E+01  1.485E-01  2.000E+01  2.000E+04 -4.569E-02
   1   16    6     1     6    1.0495E+05 -5.4392E+02   1.0550E+05  0.000E+00  0.000E+00  0.000E+00  4.60241E+01  1.491E-01  2.000E+01  2.000E+04 -2.720E-02
   1   16    7     1     7    1.0550E+05 -4.6017E+02   1.0596E+05  0.000E+00  0.000E+00  0.000E+00  4.55473E+01  1.496E-01  2.000E+01  2.000E+04 -2.301E-02
   1   16    8     1     8    1.0596E+05 -3.4358E+02   1.0630E+05  0.000E+00  0.000E+00  0.000E+00  4.50704E+01  1.499E-01  2.000E+01  2.000E+04 -1.718E-02
   1   16    9     1     9    1.0630E+05 -1.7635E+02   1.0648E+05  0.000E+00  0.000E+00  0.000E+00  4.45933E+01  1.501E-01  2.000E+01  2.000E+04 -8.817E-03
   1   16   10     1    10    1.0648E+05  5.7338E+01   1.0642E+05  0.000E+00  0.000E+00  0.000E+00  4.41161E+01  1.502E-01  2.000E+01  2.000E+04  2.867E-03
   1   16   11     1    11    1.0642E+05  3.9615E+02   1.0602E+05  0.000E+00  0.000E+00  0.000E+00  4.36386E+01  1.500E-01  2.000E+01  2.000E+04  1.981E-02
   1   16   12     1    12    1.0602E+05  1.2650E+03   1.0476E+05  0.000E+00  0.000E+00  0.000E+00  4.31606E+01  1.493E-01  2.000E+01  2.000E+04  6.325E-02
   1   15   13     1    13    1.0476E+05  4.4613E+02   1.0431E+05  0.000E+00  0.000E+00  0.000E+00  4.26826E+01  1.486E-01  2.000E+01  2.000E+04  2.231E-02
   1   14   14     1    14    1.0431E+05 -5.0167E+02   1.0481E+05  0.000E+00  0.000E+00  0.000E+00  4.22054E+01  1.486E-01  2.000E+01  2.000E+04 -2.508E-02
   1   13   15     1    15    1.0481E+05 -1.3450E+03   1.0616E+05  0.000E+00  0.000E+00  0.000E+00  4.17289E+01  1.494E-01  2.000E+01  2.000E+04 -6.725E-02
   1   12   16     1    16    1.0616E+05 -2.5255E+03   1.0868E+05  0.000E+00  0.000E+00  0.000E+00  4.12533E+01  1.510E-01  2.000E+01  2.000E+04 -1.263E-01
   1   12   17     1    17    1.0868E+05 -1.4570E+03   1.1014E+05  0.000E+00  0.000E+00  0.000E+00  4.07777E+01  1.527E-01  2.000E+01  2.000E+04 -7.285E-02
   1   12   18     1    18    1.1014E+05 -1.3891E+03   1.1153E+05  0.000E+00  0.000E+00  0.000E+00  4.03016E+01  1.539E-01  2.000E+01  2.000E+04 -6.945E-02
   1   12   19     1    19    1.1153E+05 -2.0262E+03   1.1356E+05  0.000E+00  0.000E+00  0.000E+00  3.98257E+01  1.553E-01  2.000E+01  2.000E+04 -1.013E-01
   1   13   20     1    20    1.1356E+05 -1.0151E+03   1.1457E+05  0.000E+00  0.000E+00  0.000E+00  3.93497E+01  1.565E-01  2.000E+01  2.000E+04 -5.075E-02
   1   14   21     1    21    1.1457E+05 -4.2233E+02   1.1499E+05  0.000E+00  0.000E+00  0.000E+00  3.88730E+01  1.571E-01  2.000E+01  2.000E+04 -2.112E-02
   1   14   22     1    22    1.1499E+05  4.9823E+03   1.1001E+05  0.000E+00  0.000E+00  0.000E+00  3.83939E+01  1.552E-01  2.000E+01  2.000E+04  2.491E-01
   1    9   30     2     1    5.0000E+04 -5.2468E+02   5.0525E+04  0.000E+00  0.000E+00  0.000E+00  4.02412E+01  1.162E-01  2.000E+01  2.000E+04 -2.623E-02
   1    9   29     2     2    5.0525E+04 -8.2668E+02   5.1351E+04  0.000E+00  0.000E+00  0.000E+00  3.99922E+01  1.172E-01  2.000E+01  2.000E+04 -4.133E-02
   1    9   28     2     3    5.1351E+04 -1.0873E+03   5.2439E+04  0.000E+00  0.000E+00  0.000E+00  3.97435E+01  1.185E-01  2.000E+01  2.000E+04 -5.436E-02
   1    9   27     2     4    5.2439E+04 -2.3342E+03   5.4773E+04  0.000E+00  0.000E+00  0.000E+00  3.94958E+01  1.208E-01  2.000E+01  2.000E+04 -1.167E-01
   1   10   26     2     5    5.4773E+04 -1.5179E+03   5.6291E+04  0.000E+00  0.000E+00  0.000E+00  3.92484E+01  1.234E-01  2.000E+01  2.000E+04 -7.590E-02
   1   11   25     2     6    5.6291E+04 -1.3197E+03   5.7610E+04  0.000E+00  0.000E+00  0.000E+00  3.90003E+01  1.253E-01  2.000E+01  2.000E+04 -6.598E-02
   1   12   24     2     7    5.7610E+04 -1.4049E+03   5.9015E+04  0.000E+00  0.000E+00  0.000E+00  3.87521E+01  1.271E-01  2.000E+01  2.000E+04 -7.025E-02
   1   13   23     2     8    5.9015E+04 -1.9671E+02   5.9212E+04  0.000E+00  0.000E+00  0.000E+00  3.85031E+01  1.281E-01  2.000E+01  2.000E+04 -9.835E-03
   1   14   22     2     9    5.9212E+04  2.1415E+03   5.7071E+04  0.000E+00  0.000E+00  0.000E+00  3.82518E+01  1.268E-01  2.000E+01  2.000E+04  1.071E-01
   1   14   22     3     1    1.6708E+05 -8.4683E+03   1.7555E+05  0.000E+00  0.000E+00  0.000E+00  3.77214E+01  1.658E-01  2.000E+01  2.000E+04 -4.234E-01
   1   15   23     3     2    1.7555E+05 -2.8712E+02   1.7584E+05  0.000E+00  0.000E+00  0.000E+00  3.68350E+01  1.683E-01  2.000E+01  2.000E+04 -1.436E-02
   1   15   24     3     3    1.7584E+05 -1.7027E+02   1.7601E+05  0.000E+00  0.000E+00  0.000E+00  3.59462E+01  1.685E-01  2.000E+01  2.000E+04 -8.513E-03
   1   15   25     3     4    1.7601E+05 -1.8041E+02   1.7619E+05  0.000E+00  0.000E+00  0.000E+00  3.50574E+01  1.686E-01  2.000E+01  2.000E+04 -9.021E-03
   1   15   26     3     5    1.7619E+05 -2.4112E+02   1.7643E+05  0.000E+00  0.000E+00  0.000E+00  3.41687E+01  1.687E-01  2.000E+01  2.000E+04 -1.206E-02
   1   16   27     3     6    1.7643E+05 -2.5010E+02   1.7668E+05  0.000E+00  0.000E+00  0.000E+00  3.32799E+01  1.688E-01  2.000E+01  2.000E+04 -1.250E-02
   1   17   28     3     7    1.7668E+05 -1.2061E+03   1.7789E+05  0.000E+00  0.000E+00  0.000E+00  3.23915E+01  1.692E-01  2.000E+01  2.000E+04 -6.030E-02
   1   18   29     3     8    1.7789E+05 -2.3949E+03   1.8028E+05  0.000E+00  0.000E+00  0.000E+00  3.15036E+01  1.703E-01  2.000E+01  2.000E+04 -1.197E-01
   1   18   30     3     9    1.8028E+05 -2.8312E+03   1.8311E+05  0.000E+00  0.000E+00  0.000E+00  3.06162E+01  1.718E-01  2.000E+01  2.000E+04 -1.416E-01



1
              HEAD IN LAYER   1 AT END OF TIME STEP   1 IN STRESS PERIOD    7
  ---------------------------------------------------------------------------

          1      2      3      4      5      6      7      8      9     10
         11     12     13     14     15     16     17     18     19     20
         21     22     23     24     25     26     27     28     29     30
 .........................................................................
   1  ****** ****** ****** ****** ****** ****** ****** ****** ****** ******
      ****** ****** ****** ****** ****** ****** ****** ****** ****** ******
      ****** ****** ****** ****** ****** ****** ****** ****** ****** ******
   2  ****** ****** ****** ****** ****** ****** ****** ****** ****** ******
      ****** ****** ****** ****** ****** ****** ****** ****** ****** ******
      ****** ****** ****** ****** ****** ****** ****** ****** ****** ******
   3  ****** ****** ****** ****** ****** ****** ****** ****** ****** ******
      ****** ****** ****** ****** ****** ****** ****** ****** ****** ******
      ****** ****** ****** ****** ****** ****** ****** ****** ****** ******
   4  ****** ****** ****** ****** ****** ****** ****** ****** ****** ******
      ****** ****** ****** ****** ****** ****** ****** ****** ****** ******
      ****** ****** ****** ****** ****** ****** ****** ****** ****** ******
   5  ****** ****** ****** ****** ****** ****** ****** ****** ****** ******
      ****** ****** ****** ****** ****** ****** ****** ****** ****** ******
      ****** ****** ****** ****** ****** ****** ****** ****** ****** ******
   6  ****** ****** ****** ****** ****** ****** ****** ****** ****** ******
      ****** ****** ****** ****** ****** ****** ****** ****** ****** ******
      ****** ****** ****** ****** ****** ****** ****** ****** ****** ******
   7  ****** ****** ****** ****** ****** ****** ****** ****** ****** ******
      ****** ****** ****** ****** ****** ****** ****** ****** ****** ******
      ****** ****** ****** ****** ****** ****** ****** ****** ****** ******
   8  ****** ****** ****** ****** ****** ****** ****** ****** ****** ******
      ****** ****** ****** ****** ****** ****** ****** ****** ****** ******
      ****** ****** ****** ****** ****** ****** ****** ****** ****** ******
   9  ****** ****** ****** ****** ****** ****** ****** ****** ****** ******
      ****** ****** ****** ****** ****** ****** ****** ****** ****** ******
      ****** ****** ****** ****** ****** ****** ****** ****** ****** ******
  10  ****** ****** ****** ****** ****** ****** ****** ****** ****** ******
      ****** ****** ****** ****** ****** ****** ****** ****** ****** ******
      ****** ****** ****** ****** ****** ****** ****** ****** ****** ******
  11  ****** ****** ****** ****** ****** ****** ****** ****** ****** ******
      ****** ****** ****** ****** ****** ****** ****** ****** ****** ******
      ****** ****** ****** ****** ****** ****** ****** ****** ****** ******
  12  ****** ****** ****** ****** ****** ****** ****** ****** ****** ******
      ****** ****** ****** ****** ****** ****** ****** ****** ****** ******
      ****** ****** ****** ****** ****** ****** ****** ****** ****** ******
  13  ****** ****** ****** ****** ****** ****** ****** ****** ****** ******
      ****** ****** ****** ****** ****** ****** ****** ****** ****** ******
      ****** ****** ****** ****** ****** ****** ****** ****** ****** ******
  14  ****** ****** ****** ****** ****** ****** ****** ****** ****** ******
      ****** ****** ****** ****** ****** ****** ****** ****** ****** ******
      ****** ****** ****** ****** ****** ****** ****** ****** ****** ******
  15  ****** ****** ****** ****** ****** ****** ****** ****** ****** ******
      ****** ****** ****** ****** ****** ****** ****** ****** ****** ******
      ****** ****** ****** ****** ****** ****** ****** ****** ****** ******
  16  ****** ****** ****** ****** ****** ****** ****** ****** ****** ******
      ****** ****** ****** ****** ****** ****** ****** ****** ****** ******
      ****** ****** ****** ****** ****** ****** ****** ****** ****** ******
  17  ****** ****** ****** ****** ****** ****** ****** ****** ****** ******
      ****** ****** ****** ****** ****** ****** ****** ****** ****** ******
      ****** ****** ****** ****** ****** ****** ****** ****** ****** ******
  18  ****** ****** ****** ****** ****** ****** ****** ****** ****** ******
      ****** ****** ****** ****** ****** ****** ****** ****** ****** ******
      ****** ****** ****** ****** ****** ****** ****** ****** ****** ******
  19  ****** ****** ****** ****** ****** ****** ****** ****** ****** ******
      ****** ****** ****** ****** ****** ****** ****** ****** ****** ******
      ****** ****** ****** ****** ****** ****** ****** ****** ****** ******
  20  ****** ****** ****** ****** ****** ****** ****** ****** ****** ******
      ****** ****** ****** ****** ****** ****** ****** ****** ****** ******
      ****** ****** ****** ****** ****** ****** ****** ****** ****** ******
  21  ****** ****** ****** ****** ****** ****** ****** ****** ****** ******
      ****** ****** ****** ****** ****** ****** ****** ****** ****** ******
      ****** ****** ****** ****** ****** ****** ****** ****** ****** ******
  22  ****** ****** ****** ****** ****** ****** ****** ****** ****** ******
      ****** ****** ****** ****** ****** ****** ****** ****** ****** ******
      ****** ****** ****** ****** ****** ****** ****** ****** ****** ******
  23  ****** ****** ****** ****** ****** ****** ****** ****** ****** ******
      ****** ****** ****** ****** ****** ****** ****** ****** ****** ******
      ****** ****** ****** ****** ****** ****** ****** ****** ****** ******
  24  ****** ****** ****** ****** ****** ****** ****** ****** ****** ******
      ****** ****** ****** ****** ****** ****** ****** ****** ****** ******
      ****** ****** ****** ****** ****** ****** ****** ****** ****** ******
  25  ****** ****** ****** ****** ****** ****** ****** ****** ****** ******
      ****** ****** ****** ****** ****** ****** ****** ****** ****** ******
      ****** ****** ****** ****** ****** ****** ****** ****** ****** ******

 HEAD WILL BE SAVED ON UNIT   51 AT END OF TIME STEP    1, STRESS PERIOD    7
1
  VOLUMETRIC BUDGET FOR ENTIRE MODEL AT END OF TIME STEP    1, STRESS PERIOD   7
  ------------------------------------------------------------------------------

     CUMULATIVE VOLUMES      L**3       RATES FOR THIS TIME STEP      L**3/T
     ------------------                 ------------------------

           IN:                                      IN:
           ---                                      ---
             STORAGE =    33443645.3420               STORAGE =       22494.0804
       CONSTANT HEAD =    16687700.3582         CONSTANT HEAD =       34245.0600
               WELLS =           0.0000                 WELLS =           0.0000
            RECHARGE =    15097200.0000              RECHARGE =           0.0000
      STREAM LEAKAGE =     4422600.9392        STREAM LEAKAGE =        9288.4229

            TOTAL IN =    69651146.6395              TOTAL IN =       66027.5632

          OUT:                                     OUT:
          ----                                     ----
             STORAGE =      780611.0103               STORAGE =           0.0000
       CONSTANT HEAD =           0.0000         CONSTANT HEAD =           0.0000
               WELLS =    15098272.1175                 WELLS =       23627.9689
            RECHARGE =           0.0000              RECHARGE =           0.0000
      STREAM LEAKAGE =    53772266.1263        STREAM LEAKAGE =       42399.5999

           TOTAL OUT =    69651149.2542             TOTAL OUT =       66027.5688

            IN - OUT =          -2.6147              IN - OUT =      -5.5873E-03

 PERCENT DISCREPANCY =          -0.00     PERCENT DISCREPANCY =          -0.00






         TIME SUMMARY AT END OF TIME STEP    1 IN STRESS PERIOD    7
                    SECONDS     MINUTES      HOURS       DAYS        YEARS
                    -----------------------------------------------------------
   TIME STEP LENGTH 7.86240E+06 1.31040E+05  2184.0      91.000     0.24914    
 STRESS PERIOD TIME 7.86240E+06 1.31040E+05  2184.0      91.000     0.24914    
         TOTAL TIME 5.52096E+07 9.20160E+05  15336.      639.00      1.7495    
1
1
                            STRESS PERIOD NO.    8, LENGTH =   91.00000    
                            -----------------------------------------------

                              NUMBER OF TIME STEPS =     1

                               MULTIPLIER FOR DELT =     1.500

                            INITIAL TIME STEP SIZE =   91.00000    

 WELL NO.  LAYER   ROW   COL   STRESS RATE         
 --------------------------------------------------
      1      1     20     17      -6946.    
      2      1     18     14      -7709.    
      3      1      9      3      -2375.    
      4      1     21     12      -6598.    

      4 WELLS

                 RECHARGE =  1.000000E-03

 REUSING STREAM SEGMENT DATA FROM LAST STRESS PERIOD
 
 SOLVING FOR HEAD 


     6 CALLS TO PCG ROUTINE FOR TIME STEP   1 IN STRESS PERIOD    8
    22 TOTAL ITERATIONS

 OUTPUT CONTROL FOR STRESS PERIOD    8   TIME STEP    1
    SAVE BUDGET
    SAVE HEAD FOR ALL LAYERS
    PRINT HEAD FOR ALL LAYERS
 UBDSV2 SAVING "STREAMFLOW OUT  " ON UNIT  50 AT TIME STEP  1, STRESS PERIOD   8



 STREAM LISTING     PERIOD      8   STEP        1

 LAYER ROW COL. STREAM  RCH.  FLOW INTO     FLOW TO   FLOW OUT OF   OVRLND.     DIRECT     STREAM       STREAM     STREAM     STREAM   STREAMBED  STREAMBED
                SEG.NO.  NO.  STRM. RCH.    AQUIFER    STRM. RCH.    RUNOFF     PRECIP       ET          HEAD       DEPTH      WIDTH   CONDCTNC.   GRADIENT

   1   13    1     1     1    1.0000E+05 -1.3040E+03   1.0130E+05  0.000E+00  0.000E+00  0.000E+00  4.84066E+01  1.452E-01  2.000E+01  2.000E+04 -6.520E-02
   1   13    2     1     2    1.0130E+05 -2.2298E+03   1.0353E+05  0.000E+00  0.000E+00  0.000E+00  4.79308E+01  1.467E-01  2.000E+01  2.000E+04 -1.115E-01
   1   14    3     1     3    1.0353E+05 -4.0639E+02   1.0394E+05  0.000E+00  0.000E+00  0.000E+00  4.74547E+01  1.479E-01  2.000E+01  2.000E+04 -2.032E-02
   1   15    4     1     4    1.0394E+05 -3.7097E+02   1.0431E+05  0.000E+00  0.000E+00  0.000E+00  4.69777E+01  1.482E-01  2.000E+01  2.000E+04 -1.855E-02
   1   16    5     1     5    1.0431E+05 -1.0827E+03   1.0539E+05  0.000E+00  0.000E+00  0.000E+00  4.65011E+01  1.488E-01  2.000E+01  2.000E+04 -5.414E-02
   1   16    6     1     6    1.0539E+05 -6.4822E+02   1.0604E+05  0.000E+00  0.000E+00  0.000E+00  4.60246E+01  1.496E-01  2.000E+01  2.000E+04 -3.241E-02
   1   16    7     1     7    1.0604E+05 -5.5963E+02   1.0660E+05  0.000E+00  0.000E+00  0.000E+00  4.55478E+01  1.501E-01  2.000E+01  2.000E+04 -2.798E-02
   1   16    8     1     8    1.0660E+05 -4.4224E+02   1.0704E+05  0.000E+00  0.000E+00  0.000E+00  4.50709E+01  1.505E-01  2.000E+01  2.000E+04 -2.211E-02
   1   16    9     1     9    1.0704E+05 -2.7613E+02   1.0732E+05  0.000E+00  0.000E+00  0.000E+00  4.45940E+01  1.508E-01  2.000E+01  2.000E+04 -1.381E-02
   1   16   10     1    10    1.0732E+05 -4.4835E+01   1.0736E+05  0.000E+00  0.000E+00  0.000E+00  4.41168E+01  1.509E-01  2.000E+01  2.000E+04 -2.242E-03
   1   16   11     1    11    1.0736E+05  2.9122E+02   1.0707E+05  0.000E+00  0.000E+00  0.000E+00  4.36395E+01  1.508E-01  2.000E+01  2.000E+04  1.456E-02
   1   16   12     1    12    1.0707E+05  1.1090E+03   1.0596E+05  0.000E+00  0.000E+00  0.000E+00  4.31616E+01  1.502E-01  2.000E+01  2.000E+04  5.545E-02
   1   15   13     1    13    1.0596E+05  2.8153E+02   1.0568E+05  0.000E+00  0.000E+00  0.000E+00  4.26837E+01  1.496E-01  2.000E+01  2.000E+04  1.408E-02
   1   14   14     1    14    1.0568E+05 -6.6014E+02   1.0634E+05  0.000E+00  0.000E+00  0.000E+00  4.22066E+01  1.498E-01  2.000E+01  2.000E+04 -3.301E-02
   1   13   15     1    15    1.0634E+05 -1.4915E+03   1.0783E+05  0.000E+00  0.000E+00  0.000E+00  4.17303E+01  1.507E-01  2.000E+01  2.000E+04 -7.457E-02
   1   12   16     1    16    1.0783E+05 -2.6356E+03   1.1047E+05  0.000E+00  0.000E+00  0.000E+00  4.12547E+01  1.525E-01  2.000E+01  2.000E+04 -1.318E-01
   1   12   17     1    17    1.1047E+05 -1.5672E+03   1.1204E+05  0.000E+00  0.000E+00  0.000E+00  4.07792E+01  1.542E-01  2.000E+01  2.000E+04 -7.836E-02
   1   12   18     1    18    1.1204E+05 -1.5060E+03   1.1354E+05  0.000E+00  0.000E+00  0.000E+00  4.03032E+01  1.555E-01  2.000E+01  2.000E+04 -7.530E-02
   1   12   19     1    19    1.1354E+05 -2.1745E+03   1.1572E+05  0.000E+00  0.000E+00  0.000E+00  3.98275E+01  1.570E-01  2.000E+01  2.000E+04 -1.087E-01
   1   13   20     1    20    1.1572E+05 -1.1908E+03   1.1691E+05  0.000E+00  0.000E+00  0.000E+00  3.93516E+01  1.584E-01  2.000E+01  2.000E+04 -5.954E-02
   1   14   21     1    21    1.1691E+05 -5.7597E+02   1.1749E+05  0.000E+00  0.000E+00  0.000E+00  3.88750E+01  1.591E-01  2.000E+01  2.000E+04 -2.880E-02
   1   14   22     1    22    1.1749E+05  4.9360E+03   1.1255E+05  0.000E+00  0.000E+00  0.000E+00  3.83960E+01  1.573E-01  2.000E+01  2.000E+04  2.468E-01
   1    9   30     2     1    5.0000E+04 -6.8842E+02   5.0688E+04  0.000E+00  0.000E+00  0.000E+00  4.02413E+01  1.163E-01  2.000E+01  2.000E+04 -3.442E-02
   1    9   29     2     2    5.0688E+04 -9.8764E+02   5.1676E+04  0.000E+00  0.000E+00  0.000E+00  3.99925E+01  1.175E-01  2.000E+01  2.000E+04 -4.938E-02
   1    9   28     2     3    5.1676E+04 -1.2427E+03   5.2919E+04  0.000E+00  0.000E+00  0.000E+00  3.97440E+01  1.190E-01  2.000E+01  2.000E+04 -6.213E-02
   1    9   27     2     4    5.2919E+04 -2.5133E+03   5.5432E+04  0.000E+00  0.000E+00  0.000E+00  3.94966E+01  1.216E-01  2.000E+01  2.000E+04 -1.257E-01
   1   10   26     2     5    5.5432E+04 -1.7238E+03   5.7156E+04  0.000E+00  0.000E+00  0.000E+00  3.92494E+01  1.244E-01  2.000E+01  2.000E+04 -8.619E-02
   1   11   25     2     6    5.7156E+04 -1.5239E+03   5.8680E+04  0.000E+00  0.000E+00  0.000E+00  3.90015E+01  1.265E-01  2.000E+01  2.000E+04 -7.619E-02
   1   12   24     2     7    5.8680E+04 -1.5902E+03   6.0270E+04  0.000E+00  0.000E+00  0.000E+00  3.87536E+01  1.286E-01  2.000E+01  2.000E+04 -7.951E-02
   1   13   23     2     8    6.0270E+04 -2.7103E+02   6.0541E+04  0.000E+00  0.000E+00  0.000E+00  3.85048E+01  1.298E-01  2.000E+01  2.000E+04 -1.355E-02
   1   14   22     2     9    6.0541E+04  2.0890E+03   5.8452E+04  0.000E+00  0.000E+00  0.000E+00  3.82536E+01  1.286E-01  2.000E+01  2.000E+04  1.045E-01
   1   14   22     3     1    1.7100E+05 -8.5105E+03   1.7951E+05  0.000E+00  0.000E+00  0.000E+00  3.77236E+01  1.681E-01  2.000E+01  2.000E+04 -4.255E-01
   1   15   23     3     2    1.7951E+05 -3.5009E+02   1.7986E+05  0.000E+00  0.000E+00  0.000E+00  3.68373E+01  1.706E-01  2.000E+01  2.000E+04 -1.750E-02
   1   15   24     3     3    1.7986E+05 -2.3014E+02   1.8009E+05  0.000E+00  0.000E+00  0.000E+00  3.59486E+01  1.708E-01  2.000E+01  2.000E+04 -1.151E-02
   1   15   25     3     4    1.8009E+05 -2.4211E+02   1.8033E+05  0.000E+00  0.000E+00  0.000E+00  3.50598E+01  1.709E-01  2.000E+01  2.000E+04 -1.211E-02
   1   15   26     3     5    1.8033E+05 -3.1545E+02   1.8065E+05  0.000E+00  0.000E+00  0.000E+00  3.41711E+01  1.711E-01  2.000E+01  2.000E+04 -1.577E-02
   1   16   27     3     6    1.8065E+05 -3.3130E+02   1.8098E+05  0.000E+00  0.000E+00  0.000E+00  3.32824E+01  1.713E-01  2.000E+01  2.000E+04 -1.657E-02
   1   17   28     3     7    1.8098E+05 -1.4076E+03   1.8239E+05  0.000E+00  0.000E+00  0.000E+00  3.23940E+01  1.717E-01  2.000E+01  2.000E+04 -7.038E-02
   1   18   29     3     8    1.8239E+05 -2.5555E+03   1.8494E+05  0.000E+00  0.000E+00  0.000E+00  3.15062E+01  1.729E-01  2.000E+01  2.000E+04 -1.278E-01
   1   18   30     3     9    1.8494E+05 -2.9750E+03   1.8792E+05  0.000E+00  0.000E+00  0.000E+00  3.06189E+01  1.744E-01  2.000E+01  2.000E+04 -1.487E-01



1
              HEAD IN LAYER   1 AT END OF TIME STEP   1 IN STRESS PERIOD    8
  ---------------------------------------------------------------------------

          1      2      3      4      5      6      7      8      9     10
         11     12     13     14     15     16     17     18     19     20
         21     22     23     24     25     26     27     28     29     30
 .........................................................................
   1  ****** ****** ****** ****** ****** ****** ****** ****** ****** ******
      ****** ****** ****** ****** ****** ****** ****** ****** ****** ******
      ****** ****** ****** ****** ****** ****** ****** ****** ****** ******
   2  ****** ****** ****** ****** ****** ****** ****** ****** ****** ******
      ****** ****** ****** ****** ****** ****** ****** ****** ****** ******
      ****** ****** ****** ****** ****** ****** ****** ****** ****** ******
   3  ****** ****** ****** ****** ****** ****** ****** ****** ****** ******
      ****** ****** ****** ****** ****** ****** ****** ****** ****** ******
      ****** ****** ****** ****** ****** ****** ****** ****** ****** ******
   4  ****** ****** ****** ****** ****** ****** ****** ****** ****** ******
      ****** ****** ****** ****** ****** ****** ****** ****** ****** ******
      ****** ****** ****** ****** ****** ****** ****** ****** ****** ******
   5  ****** ****** ****** ****** ****** ****** ****** ****** ****** ******
      ****** ****** ****** ****** ****** ****** ****** ****** ****** ******
      ****** ****** ****** ****** ****** ****** ****** ****** ****** ******
   6  ****** ****** ****** ****** ****** ****** ****** ****** ****** ******
      ****** ****** ****** ****** ****** ****** ****** ****** ****** ******
      ****** ****** ****** ****** ****** ****** ****** ****** ****** ******
   7  ****** ****** ****** ****** ****** ****** ****** ****** ****** ******
      ****** ****** ****** ****** ****** ****** ****** ****** ****** ******
      ****** ****** ****** ****** ****** ****** ****** ****** ****** ******
   8  ****** ****** ****** ****** ****** ****** ****** ****** ****** ******
      ****** ****** ****** ****** ****** ****** ****** ****** ****** ******
      ****** ****** ****** ****** ****** ****** ****** ****** ****** ******
   9  ****** ****** ****** ****** ****** ****** ****** ****** ****** ******
      ****** ****** ****** ****** ****** ****** ****** ****** ****** ******
      ****** ****** ****** ****** ****** ****** ****** ****** ****** ******
  10  ****** ****** ****** ****** ****** ****** ****** ****** ****** ******
      ****** ****** ****** ****** ****** ****** ****** ****** ****** ******
      ****** ****** ****** ****** ****** ****** ****** ****** ****** ******
  11  ****** ****** ****** ****** ****** ****** ****** ****** ****** ******
      ****** ****** ****** ****** ****** ****** ****** ****** ****** ******
      ****** ****** ****** ****** ****** ****** ****** ****** ****** ******
  12  ****** ****** ****** ****** ****** ****** ****** ****** ****** ******
      ****** ****** ****** ****** ****** ****** ****** ****** ****** ******
      ****** ****** ****** ****** ****** ****** ****** ****** ****** ******
  13  ****** ****** ****** ****** ****** ****** ****** ****** ****** ******
      ****** ****** ****** ****** ****** ****** ****** ****** ****** ******
      ****** ****** ****** ****** ****** ****** ****** ****** ****** ******
  14  ****** ****** ****** ****** ****** ****** ****** ****** ****** ******
      ****** ****** ****** ****** ****** ****** ****** ****** ****** ******
      ****** ****** ****** ****** ****** ****** ****** ****** ****** ******
  15  ****** ****** ****** ****** ****** ****** ****** ****** ****** ******
      ****** ****** ****** ****** ****** ****** ****** ****** ****** ******
      ****** ****** ****** ****** ****** ****** ****** ****** ****** ******
  16  ****** ****** ****** ****** ****** ****** ****** ****** ****** ******
      ****** ****** ****** ****** ****** ****** ****** ****** ****** ******
      ****** ****** ****** ****** ****** ****** ****** ****** ****** ******
  17  ****** ****** ****** ****** ****** ****** ****** ****** ****** ******
      ****** ****** ****** ****** ****** ****** ****** ****** ****** ******
      ****** ****** ****** ****** ****** ****** ****** ****** ****** ******
  18  ****** ****** ****** ****** ****** ****** ****** ****** ****** ******
      ****** ****** ****** ****** ****** ****** ****** ****** ****** ******
      ****** ****** ****** ****** ****** ****** ****** ****** ****** ******
  19  ****** ****** ****** ****** ****** ****** ****** ****** ****** ******
      ****** ****** ****** ****** ****** ****** ****** ****** ****** ******
      ****** ****** ****** ****** ****** ****** ****** ****** ****** ******
  20  ****** ****** ****** ****** ****** ****** ****** ****** ****** ******
      ****** ****** ****** ****** ****** ****** ****** ****** ****** ******
      ****** ****** ****** ****** ****** ****** ****** ****** ****** ******
  21  ****** ****** ****** ****** ****** ****** ****** ****** ****** ******
      ****** ****** ****** ****** ****** ****** ****** ****** ****** ******
      ****** ****** ****** ****** ****** ****** ****** ****** ****** ******
  22  ****** ****** ****** ****** ****** ****** ****** ****** ****** ******
      ****** ****** ****** ****** ****** ****** ****** ****** ****** ******
      ****** ****** ****** ****** ****** ****** ****** ****** ****** ******
  23  ****** ****** ****** ****** ****** ****** ****** ****** ****** ******
      ****** ****** ****** ****** ****** ****** ****** ****** ****** ******
      ****** ****** ****** ****** ****** ****** ****** ****** ****** ******
  24  ****** ****** ****** ****** ****** ****** ****** ****** ****** ******
      ****** ****** ****** ****** ****** ****** ****** ****** ****** ******
      ****** ****** ****** ****** ****** ****** ****** ****** ****** ******
  25  ****** ****** ****** ****** ****** ****** ****** ****** ****** ******
      ****** ****** ****** ****** ****** ****** ****** ****** ****** ******
      ****** ****** ****** ****** ****** ****** ****** ****** ****** ******

 HEAD WILL BE SAVED ON UNIT   51 AT END OF TIME STEP    1, STRESS PERIOD    8
1
  VOLUMETRIC BUDGET FOR ENTIRE MODEL AT END OF TIME STEP    1, STRESS PERIOD   8
  ------------------------------------------------------------------------------

     CUMULATIVE VOLUMES      L**3       RATES FOR THIS TIME STEP      L**3/T
     ------------------                 ------------------------

           IN:                                      IN:
           ---                                      ---
             STORAGE =    33577334.4117               STORAGE =        1469.1107
       CONSTANT HEAD =    19778364.4544         CONSTANT HEAD =       33963.3417
               WELLS =           0.0000                 WELLS =           0.0000
            RECHARGE =    17608800.0000              RECHARGE =       27600.0000
      STREAM LEAKAGE =     5214910.0997        STREAM LEAKAGE =        8706.6941

            TOTAL IN =    76179408.9658              TOTAL IN =       71739.1464

          OUT:                                     OUT:
          ----                                     ----
             STORAGE =      915816.5944               STORAGE =        1485.7756
       CONSTANT HEAD =           0.0000         CONSTANT HEAD =           0.0000
               WELLS =    17248417.2861                 WELLS =       23627.9689
            RECHARGE =           0.0000              RECHARGE =           0.0000
      STREAM LEAKAGE =    58015176.9578        STREAM LEAKAGE =       46625.3938

           TOTAL OUT =    76179410.8382             TOTAL OUT =       71739.1383

            IN - OUT =          -1.8724              IN - OUT =       8.1573E-03

 PERCENT DISCREPANCY =          -0.00     PERCENT DISCREPANCY =           0.00






         TIME SUMMARY AT END OF TIME STEP    1 IN STRESS PERIOD    8
                    SECONDS     MINUTES      HOURS       DAYS        YEARS
                    -----------------------------------------------------------
   TIME STEP LENGTH 7.86240E+06 1.31040E+05  2184.0      91.000     0.24914    
 STRESS PERIOD TIME 7.86240E+06 1.31040E+05  2184.0      91.000     0.24914    
         TOTAL TIME 6.30720E+07 1.05120E+06  17520.      730.00      1.9986    
1
1
                            STRESS PERIOD NO.    9, LENGTH =   92.00000    
                            -----------------------------------------------

                              NUMBER OF TIME STEPS =     1

                               MULTIPLIER FOR DELT =     1.500

                            INITIAL TIME STEP SIZE =   92.00000    

 WELL NO.  LAYER   ROW   COL   STRESS RATE         
 --------------------------------------------------
      1      1     20     17      -6946.    
      2      1     18     14      -7709.    
      3      1      9      3      -2375.    
      4      1     21     12      -6598.    

      4 WELLS

                 RECHARGE =  5.000000E-04

 REUSING STREAM SEGMENT DATA FROM LAST STRESS PERIOD
 
 SOLVING FOR HEAD 


     6 CALLS TO PCG ROUTINE FOR TIME STEP   1 IN STRESS PERIOD    9
    23 TOTAL ITERATIONS

 OUTPUT CONTROL FOR STRESS PERIOD    9   TIME STEP    1
    SAVE BUDGET
    SAVE HEAD FOR ALL LAYERS
    PRINT HEAD FOR ALL LAYERS
 UBDSV2 SAVING "STREAMFLOW OUT  " ON UNIT  50 AT TIME STEP  1, STRESS PERIOD   9



 STREAM LISTING     PERIOD      9   STEP        1

 LAYER ROW COL. STREAM  RCH.  FLOW INTO     FLOW TO   FLOW OUT OF   OVRLND.     DIRECT     STREAM       STREAM     STREAM     STREAM   STREAMBED  STREAMBED
                SEG.NO.  NO.  STRM. RCH.    AQUIFER    STRM. RCH.    RUNOFF     PRECIP       ET          HEAD       DEPTH      WIDTH   CONDCTNC.   GRADIENT

   1   13    1     1     1    1.0000E+05 -1.0884E+03   1.0109E+05  0.000E+00  0.000E+00  0.000E+00  4.84065E+01  1.451E-01  2.000E+01  2.000E+04 -5.442E-02
   1   13    2     1     2    1.0109E+05 -1.9857E+03   1.0307E+05  0.000E+00  0.000E+00  0.000E+00  4.79305E+01  1.465E-01  2.000E+01  2.000E+04 -9.929E-02
   1   14    3     1     3    1.0307E+05 -3.3517E+02   1.0341E+05  0.000E+00  0.000E+00  0.000E+00  4.74543E+01  1.474E-01  2.000E+01  2.000E+04 -1.676E-02
   1   15    4     1     4    1.0341E+05 -2.9867E+02   1.0371E+05  0.000E+00  0.000E+00  0.000E+00  4.69773E+01  1.477E-01  2.000E+01  2.000E+04 -1.493E-02
   1   16    5     1     5    1.0371E+05 -8.8780E+02   1.0460E+05  0.000E+00  0.000E+00  0.000E+00  4.65005E+01  1.482E-01  2.000E+01  2.000E+04 -4.439E-02
   1   16    6     1     6    1.0460E+05 -5.2691E+02   1.0512E+05  0.000E+00  0.000E+00  0.000E+00  4.60238E+01  1.488E-01  2.000E+01  2.000E+04 -2.635E-02
   1   16    7     1     7    1.0512E+05 -4.4212E+02   1.0556E+05  0.000E+00  0.000E+00  0.000E+00  4.55470E+01  1.492E-01  2.000E+01  2.000E+04 -2.211E-02
   1   16    8     1     8    1.0556E+05 -3.2628E+02   1.0589E+05  0.000E+00  0.000E+00  0.000E+00  4.50700E+01  1.496E-01  2.000E+01  2.000E+04 -1.631E-02
   1   16    9     1     9    1.0589E+05 -1.6177E+02   1.0605E+05  0.000E+00  0.000E+00  0.000E+00  4.45930E+01  1.498E-01  2.000E+01  2.000E+04 -8.089E-03
   1   16   10     1    10    1.0605E+05  6.7558E+01   1.0599E+05  0.000E+00  0.000E+00  0.000E+00  4.41157E+01  1.498E-01  2.000E+01  2.000E+04  3.378E-03
   1   16   11     1    11    1.0599E+05  4.0275E+02   1.0558E+05  0.000E+00  0.000E+00  0.000E+00  4.36383E+01  1.496E-01  2.000E+01  2.000E+04  2.014E-02
   1   16   12     1    12    1.0558E+05  1.2999E+03   1.0428E+05  0.000E+00  0.000E+00  0.000E+00  4.31603E+01  1.489E-01  2.000E+01  2.000E+04  6.500E-02
   1   15   13     1    13    1.0428E+05  4.9284E+02   1.0379E+05  0.000E+00  0.000E+00  0.000E+00  4.26822E+01  1.481E-01  2.000E+01  2.000E+04  2.464E-02
   1   14   14     1    14    1.0379E+05 -4.3595E+02   1.0423E+05  0.000E+00  0.000E+00  0.000E+00  4.22049E+01  1.481E-01  2.000E+01  2.000E+04 -2.180E-02
   1   13   15     1    15    1.0423E+05 -1.2620E+03   1.0549E+05  0.000E+00  0.000E+00  0.000E+00  4.17284E+01  1.488E-01  2.000E+01  2.000E+04 -6.310E-02
   1   12   16     1    16    1.0549E+05 -2.3989E+03   1.0789E+05  0.000E+00  0.000E+00  0.000E+00  4.12527E+01  1.504E-01  2.000E+01  2.000E+04 -1.199E-01
   1   12   17     1    17    1.0789E+05 -1.4044E+03   1.0929E+05  0.000E+00  0.000E+00  0.000E+00  4.07770E+01  1.520E-01  2.000E+01  2.000E+04 -7.022E-02
   1   12   18     1    18    1.0929E+05 -1.3507E+03   1.1064E+05  0.000E+00  0.000E+00  0.000E+00  4.03009E+01  1.531E-01  2.000E+01  2.000E+04 -6.753E-02
   1   12   19     1    19    1.1064E+05 -1.9879E+03   1.1263E+05  0.000E+00  0.000E+00  0.000E+00  3.98250E+01  1.545E-01  2.000E+01  2.000E+04 -9.940E-02
   1   13   20     1    20    1.1263E+05 -1.0164E+03   1.1365E+05  0.000E+00  0.000E+00  0.000E+00  3.93490E+01  1.558E-01  2.000E+01  2.000E+04 -5.082E-02
   1   14   21     1    21    1.1365E+05 -4.0205E+02   1.1405E+05  0.000E+00  0.000E+00  0.000E+00  3.88723E+01  1.564E-01  2.000E+01  2.000E+04 -2.010E-02
   1   14   22     1    22    1.1405E+05  4.9735E+03   1.0907E+05  0.000E+00  0.000E+00  0.000E+00  3.83931E+01  1.545E-01  2.000E+01  2.000E+04  2.487E-01
   1    9   30     2     1    5.0000E+04 -5.6551E+02   5.0566E+04  0.000E+00  0.000E+00  0.000E+00  4.02413E+01  1.163E-01  2.000E+01  2.000E+04 -2.828E-02
   1    9   29     2     2    5.0566E+04 -8.6453E+02   5.1430E+04  0.000E+00  0.000E+00  0.000E+00  3.99922E+01  1.172E-01  2.000E+01  2.000E+04 -4.323E-02
   1    9   28     2     3    5.1430E+04 -1.1177E+03   5.2548E+04  0.000E+00  0.000E+00  0.000E+00  3.97436E+01  1.186E-01  2.000E+01  2.000E+04 -5.589E-02
   1    9   27     2     4    5.2548E+04 -2.3377E+03   5.4885E+04  0.000E+00  0.000E+00  0.000E+00  3.94960E+01  1.210E-01  2.000E+01  2.000E+04 -1.169E-01
   1   10   26     2     5    5.4885E+04 -1.5508E+03   5.6436E+04  0.000E+00  0.000E+00  0.000E+00  3.92486E+01  1.236E-01  2.000E+01  2.000E+04 -7.754E-02
   1   11   25     2     6    5.6436E+04 -1.3582E+03   5.7794E+04  0.000E+00  0.000E+00  0.000E+00  3.90005E+01  1.255E-01  2.000E+01  2.000E+04 -6.791E-02
   1   12   24     2     7    5.7794E+04 -1.4379E+03   5.9232E+04  0.000E+00  0.000E+00  0.000E+00  3.87523E+01  1.273E-01  2.000E+01  2.000E+04 -7.190E-02
   1   13   23     2     8    5.9232E+04 -2.2398E+02   5.9456E+04  0.000E+00  0.000E+00  0.000E+00  3.85034E+01  1.284E-01  2.000E+01  2.000E+04 -1.120E-02
   1   14   22     2     9    5.9456E+04  2.1545E+03   5.7302E+04  0.000E+00  0.000E+00  0.000E+00  3.82522E+01  1.272E-01  2.000E+01  2.000E+04  1.077E-01
   1   14   22     3     1    1.6638E+05 -8.4696E+03   1.7485E+05  0.000E+00  0.000E+00  0.000E+00  3.77209E+01  1.654E-01  2.000E+01  2.000E+04 -4.235E-01
   1   15   23     3     2    1.7485E+05 -2.9691E+02   1.7514E+05  0.000E+00  0.000E+00  0.000E+00  3.68346E+01  1.679E-01  2.000E+01  2.000E+04 -1.485E-02
   1   15   24     3     3    1.7514E+05 -1.8681E+02   1.7533E+05  0.000E+00  0.000E+00  0.000E+00  3.59458E+01  1.681E-01  2.000E+01  2.000E+04 -9.341E-03
   1   15   25     3     4    1.7533E+05 -1.9858E+02   1.7553E+05  0.000E+00  0.000E+00  0.000E+00  3.50571E+01  1.682E-01  2.000E+01  2.000E+04 -9.929E-03
   1   15   26     3     5    1.7553E+05 -2.6768E+02   1.7580E+05  0.000E+00  0.000E+00  0.000E+00  3.41683E+01  1.683E-01  2.000E+01  2.000E+04 -1.338E-02
   1   16   27     3     6    1.7580E+05 -2.7499E+02   1.7607E+05  0.000E+00  0.000E+00  0.000E+00  3.32796E+01  1.685E-01  2.000E+01  2.000E+04 -1.375E-02
   1   17   28     3     7    1.7607E+05 -1.2529E+03   1.7732E+05  0.000E+00  0.000E+00  0.000E+00  3.23911E+01  1.689E-01  2.000E+01  2.000E+04 -6.265E-02
   1   18   29     3     8    1.7732E+05 -2.3771E+03   1.7970E+05  0.000E+00  0.000E+00  0.000E+00  3.15033E+01  1.699E-01  2.000E+01  2.000E+04 -1.189E-01
   1   18   30     3     9    1.7970E+05 -2.8413E+03   1.8254E+05  0.000E+00  0.000E+00  0.000E+00  3.06159E+01  1.714E-01  2.000E+01  2.000E+04 -1.421E-01



1
              HEAD IN LAYER   1 AT END OF TIME STEP   1 IN STRESS PERIOD    9
  ---------------------------------------------------------------------------

          1      2      3      4      5      6      7      8      9     10
         11     12     13     14     15     16     17     18     19     20
         21     22     23     24     25     26     27     28     29     30
 .........................................................................
   1  ****** ****** ****** ****** ****** ****** ****** ****** ****** ******
      ****** ****** ****** ****** ****** ****** ****** ****** ****** ******
      ****** ****** ****** ****** ****** ****** ****** ****** ****** ******
   2  ****** ****** ****** ****** ****** ****** ****** ****** ****** ******
      ****** ****** ****** ****** ****** ****** ****** ****** ****** ******
      ****** ****** ****** ****** ****** ****** ****** ****** ****** ******
   3  ****** ****** ****** ****** ****** ****** ****** ****** ****** ******
      ****** ****** ****** ****** ****** ****** ****** ****** ****** ******
      ****** ****** ****** ****** ****** ****** ****** ****** ****** ******
   4  ****** ****** ****** ****** ****** ****** ****** ****** ****** ******
      ****** ****** ****** ****** ****** ****** ****** ****** ****** ******
      ****** ****** ****** ****** ****** ****** ****** ****** ****** ******
   5  ****** ****** ****** ****** ****** ****** ****** ****** ****** ******
      ****** ****** ****** ****** ****** ****** ****** ****** ****** ******
      ****** ****** ****** ****** ****** ****** ****** ****** ****** ******
   6  ****** ****** ****** ****** ****** ****** ****** ****** ****** ******
      ****** ****** ****** ****** ****** ****** ****** ****** ****** ******
      ****** ****** ****** ****** ****** ****** ****** ****** ****** ******
   7  ****** ****** ****** ****** ****** ****** ****** ****** ****** ******
      ****** ****** ****** ****** ****** ****** ****** ****** ****** ******
      ****** ****** ****** ****** ****** ****** ****** ****** ****** ******
   8  ****** ****** ****** ****** ****** ****** ****** ****** ****** ******
      ****** ****** ****** ****** ****** ****** ****** ****** ****** ******
      ****** ****** ****** ****** ****** ****** ****** ****** ****** ******
   9  ****** ****** ****** ****** ****** ****** ****** ****** ****** ******
      ****** ****** ****** ****** ****** ****** ****** ****** ****** ******
      ****** ****** ****** ****** ****** ****** ****** ****** ****** ******
  10  ****** ****** ****** ****** ****** ****** ****** ****** ****** ******
      ****** ****** ****** ****** ****** ****** ****** ****** ****** ******
      ****** ****** ****** ****** ****** ****** ****** ****** ****** ******
  11  ****** ****** ****** ****** ****** ****** ****** ****** ****** ******
      ****** ****** ****** ****** ****** ****** ****** ****** ****** ******
      ****** ****** ****** ****** ****** ****** ****** ****** ****** ******
  12  ****** ****** ****** ****** ****** ****** ****** ****** ****** ******
      ****** ****** ****** ****** ****** ****** ****** ****** ****** ******
      ****** ****** ****** ****** ****** ****** ****** ****** ****** ******
  13  ****** ****** ****** ****** ****** ****** ****** ****** ****** ******
      ****** ****** ****** ****** ****** ****** ****** ****** ****** ******
      ****** ****** ****** ****** ****** ****** ****** ****** ****** ******
  14  ****** ****** ****** ****** ****** ****** ****** ****** ****** ******
      ****** ****** ****** ****** ****** ****** ****** ****** ****** ******
      ****** ****** ****** ****** ****** ****** ****** ****** ****** ******
  15  ****** ****** ****** ****** ****** ****** ****** ****** ****** ******
      ****** ****** ****** ****** ****** ****** ****** ****** ****** ******
      ****** ****** ****** ****** ****** ****** ****** ****** ****** ******
  16  ****** ****** ****** ****** ****** ****** ****** ****** ****** ******
      ****** ****** ****** ****** ****** ****** ****** ****** ****** ******
      ****** ****** ****** ****** ****** ****** ****** ****** ****** ******
  17  ****** ****** ****** ****** ****** ****** ****** ****** ****** ******
      ****** ****** ****** ****** ****** ****** ****** ****** ****** ******
      ****** ****** ****** ****** ****** ****** ****** ****** ****** ******
  18  ****** ****** ****** ****** ****** ****** ****** ****** ****** ******
      ****** ****** ****** ****** ****** ****** ****** ****** ****** ******
      ****** ****** ****** ****** ****** ****** ****** ****** ****** ******
  19  ****** ****** ****** ****** ****** ****** ****** ****** ****** ******
      ****** ****** ****** ****** ****** ****** ****** ****** ****** ******
      ****** ****** ****** ****** ****** ****** ****** ****** ****** ******
  20  ****** ****** ****** ****** ****** ****** ****** ****** ****** ******
      ****** ****** ****** ****** ****** ****** ****** ****** ****** ******
      ****** ****** ****** ****** ****** ****** ****** ****** ****** ******
  21  ****** ****** ****** ****** ****** ****** ****** ****** ****** ******
      ****** ****** ****** ****** ****** ****** ****** ****** ****** ******
      ****** ****** ****** ****** ****** ****** ****** ****** ****** ******
  22  ****** ****** ****** ****** ****** ****** ****** ****** ****** ******
      ****** ****** ****** ****** ****** ****** ****** ****** ****** ******
      ****** ****** ****** ****** ****** ****** ****** ****** ****** ******
  23  ****** ****** ****** ****** ****** ****** ****** ****** ****** ******
      ****** ****** ****** ****** ****** ****** ****** ****** ****** ******
      ****** ****** ****** ****** ****** ****** ****** ****** ****** ******
  24  ****** ****** ****** ****** ****** ****** ****** ****** ****** ******
      ****** ****** ****** ****** ****** ****** ****** ****** ****** ******
      ****** ****** ****** ****** ****** ****** ****** ****** ****** ******
  25  ****** ****** ****** ****** ****** ****** ****** ****** ****** ******
      ****** ****** ****** ****** ****** ****** ****** ****** ****** ******
      ****** ****** ****** ****** ****** ****** ****** ****** ****** ******

 HEAD WILL BE SAVED ON UNIT   51 AT END OF TIME STEP    1, STRESS PERIOD    9
1
  VOLUMETRIC BUDGET FOR ENTIRE MODEL AT END OF TIME STEP    1, STRESS PERIOD   9
  ------------------------------------------------------------------------------

     CUMULATIVE VOLUMES      L**3       RATES FOR THIS TIME STEP      L**3/T
     ------------------                 ------------------------

           IN:                                      IN:
           ---                                      ---
             STORAGE =    34242864.2896               STORAGE =        7234.0204
       CONSTANT HEAD =    23010906.2627         CONSTANT HEAD =       35136.3240
               WELLS =           0.0000                 WELLS =           0.0000
            RECHARGE =    18878400.0000              RECHARGE =       13800.0000
      STREAM LEAKAGE =     6078896.5872        STREAM LEAKAGE =        9391.1575

            TOTAL IN =    82211067.1395              TOTAL IN =       65561.5019

          OUT:                                     OUT:
          ----                                     ----
             STORAGE =      915816.5944               STORAGE =           0.0000
       CONSTANT HEAD =           0.0000         CONSTANT HEAD =           0.0000
               WELLS =    19422190.4235                 WELLS =       23627.9689
            RECHARGE =           0.0000              RECHARGE =           0.0000
      STREAM LEAKAGE =    61873062.0660        STREAM LEAKAGE =       41933.5338

           TOTAL OUT =    82211069.0838             TOTAL OUT =       65561.5027

            IN - OUT =          -1.9443              IN - OUT =      -7.8239E-04

 PERCENT DISCREPANCY =          -0.00     PERCENT DISCREPANCY =          -0.00






         TIME SUMMARY AT END OF TIME STEP    1 IN STRESS PERIOD    9
                    SECONDS     MINUTES      HOURS       DAYS        YEARS
                    -----------------------------------------------------------
   TIME STEP LENGTH 7.94880E+06 1.32480E+05  2208.0      92.000     0.25188    
 STRESS PERIOD TIME 7.94880E+06 1.32480E+05  2208.0      92.000     0.25188    
         TOTAL TIME 7.10208E+07 1.18368E+06  19728.      822.00      2.2505    
1
1
                            STRESS PERIOD NO.   10, LENGTH =   91.00000    
                            -----------------------------------------------

                              NUMBER OF TIME STEPS =     1

                               MULTIPLIER FOR DELT =     1.500

                            INITIAL TIME STEP SIZE =   91.00000    

 WELL NO.  LAYER   ROW   COL   STRESS RATE         
 --------------------------------------------------
      1      1     20     17      -6946.    
      2      1     18     14      -7709.    
      3      1      9      3      -2375.    
      4      1     21     12      -6598.    

      4 WELLS

                 RECHARGE =  2.000000E-03

 REUSING STREAM SEGMENT DATA FROM LAST STRESS PERIOD
 
 SOLVING FOR HEAD 


     7 CALLS TO PCG ROUTINE FOR TIME STEP   1 IN STRESS PERIOD   10
    26 TOTAL ITERATIONS

 OUTPUT CONTROL FOR STRESS PERIOD   10   TIME STEP    1
    SAVE BUDGET
    SAVE HEAD FOR ALL LAYERS
    PRINT HEAD FOR ALL LAYERS
 UBDSV2 SAVING "STREAMFLOW OUT  " ON UNIT  50 AT TIME STEP  1, STRESS PERIOD  10



 STREAM LISTING     PERIOD     10   STEP        1

 LAYER ROW COL. STREAM  RCH.  FLOW INTO     FLOW TO   FLOW OUT OF   OVRLND.     DIRECT     STREAM       STREAM     STREAM     STREAM   STREAMBED  STREAMBED
                SEG.NO.  NO.  STRM. RCH.    AQUIFER    STRM. RCH.    RUNOFF     PRECIP       ET          HEAD       DEPTH      WIDTH   CONDCTNC.   GRADIENT

   1   13    1     1     1    1.0000E+05 -1.5403E+03   1.0154E+05  0.000E+00  0.000E+00  0.000E+00  4.84067E+01  1.453E-01  2.000E+01  2.000E+04 -7.702E-02
   1   13    2     1     2    1.0154E+05 -2.4865E+03   1.0403E+05  0.000E+00  0.000E+00  0.000E+00  4.79311E+01  1.471E-01  2.000E+01  2.000E+04 -1.243E-01
   1   14    3     1     3    1.0403E+05 -5.2149E+02   1.0455E+05  0.000E+00  0.000E+00  0.000E+00  4.74552E+01  1.483E-01  2.000E+01  2.000E+04 -2.607E-02
   1   15    4     1     4    1.0455E+05 -4.9785E+02   1.0505E+05  0.000E+00  0.000E+00  0.000E+00  4.69783E+01  1.488E-01  2.000E+01  2.000E+04 -2.489E-02
   1   16    5     1     5    1.0505E+05 -1.5055E+03   1.0655E+05  0.000E+00  0.000E+00  0.000E+00  4.65019E+01  1.496E-01  2.000E+01  2.000E+04 -7.528E-02
   1   16    6     1     6    1.0655E+05 -8.8845E+02   1.0744E+05  0.000E+00  0.000E+00  0.000E+00  4.60256E+01  1.506E-01  2.000E+01  2.000E+04 -4.442E-02
   1   16    7     1     7    1.0744E+05 -7.8590E+02   1.0823E+05  0.000E+00  0.000E+00  0.000E+00  4.55491E+01  1.513E-01  2.000E+01  2.000E+04 -3.930E-02
   1   16    8     1     8    1.0823E+05 -6.6463E+02   1.0889E+05  0.000E+00  0.000E+00  0.000E+00  4.50724E+01  1.520E-01  2.000E+01  2.000E+04 -3.323E-02
   1   16    9     1     9    1.0889E+05 -4.9859E+02   1.0939E+05  0.000E+00  0.000E+00  0.000E+00  4.45956E+01  1.524E-01  2.000E+01  2.000E+04 -2.493E-02
   1   16   10     1    10    1.0939E+05 -2.6940E+02   1.0966E+05  0.000E+00  0.000E+00  0.000E+00  4.41187E+01  1.528E-01  2.000E+01  2.000E+04 -1.347E-02
   1   16   11     1    11    1.0966E+05  6.2411E+01   1.0960E+05  0.000E+00  0.000E+00  0.000E+00  4.36415E+01  1.529E-01  2.000E+01  2.000E+04  3.121E-03
   1   16   12     1    12    1.0960E+05  7.3191E+02   1.0886E+05  0.000E+00  0.000E+00  0.000E+00  4.31639E+01  1.525E-01  2.000E+01  2.000E+04  3.660E-02
   1   15   13     1    13    1.0886E+05 -9.2694E+01   1.0896E+05  0.000E+00  0.000E+00  0.000E+00  4.26863E+01  1.523E-01  2.000E+01  2.000E+04 -4.635E-03
   1   14   14     1    14    1.0896E+05 -1.0290E+03   1.0999E+05  0.000E+00  0.000E+00  0.000E+00  4.22095E+01  1.527E-01  2.000E+01  2.000E+04 -5.145E-02
   1   13   15     1    15    1.0999E+05 -1.8454E+03   1.1183E+05  0.000E+00  0.000E+00  0.000E+00  4.17335E+01  1.539E-01  2.000E+01  2.000E+04 -9.227E-02
   1   12   16     1    16    1.1183E+05 -2.9614E+03   1.1479E+05  0.000E+00  0.000E+00  0.000E+00  4.12582E+01  1.559E-01  2.000E+01  2.000E+04 -1.481E-01
   1   12   17     1    17    1.1479E+05 -1.8300E+03   1.1662E+05  0.000E+00  0.000E+00  0.000E+00  4.07829E+01  1.579E-01  2.000E+01  2.000E+04 -9.150E-02
   1   12   18     1    18    1.1662E+05 -1.7721E+03   1.1840E+05  0.000E+00  0.000E+00  0.000E+00  4.03071E+01  1.594E-01  2.000E+01  2.000E+04 -8.861E-02
   1   12   19     1    19    1.1840E+05 -2.5068E+03   1.2090E+05  0.000E+00  0.000E+00  0.000E+00  3.98315E+01  1.611E-01  2.000E+01  2.000E+04 -1.253E-01
   1   13   20     1    20    1.2090E+05 -1.5372E+03   1.2244E+05  0.000E+00  0.000E+00  0.000E+00  3.93559E+01  1.627E-01  2.000E+01  2.000E+04 -7.686E-02
   1   14   21     1    21    1.2244E+05 -9.2571E+02   1.2336E+05  0.000E+00  0.000E+00  0.000E+00  3.88796E+01  1.637E-01  2.000E+01  2.000E+04 -4.629E-02
   1   14   22     1    22    1.2336E+05  4.8495E+03   1.1852E+05  0.000E+00  0.000E+00  0.000E+00  3.84008E+01  1.621E-01  2.000E+01  2.000E+04  2.425E-01
   1    9   30     2     1    5.0000E+04 -9.7997E+02   5.0980E+04  0.000E+00  0.000E+00  0.000E+00  4.02415E+01  1.165E-01  2.000E+01  2.000E+04 -4.900E-02
   1    9   29     2     2    5.0980E+04 -1.2767E+03   5.2257E+04  0.000E+00  0.000E+00  0.000E+00  3.99931E+01  1.181E-01  2.000E+01  2.000E+04 -6.384E-02
   1    9   28     2     3    5.2257E+04 -1.5291E+03   5.3786E+04  0.000E+00  0.000E+00  0.000E+00  3.97450E+01  1.200E-01  2.000E+01  2.000E+04 -7.646E-02
   1    9   27     2     4    5.3786E+04 -2.8912E+03   5.6677E+04  0.000E+00  0.000E+00  0.000E+00  3.94980E+01  1.230E-01  2.000E+01  2.000E+04 -1.446E-01
   1   10   26     2     5    5.6677E+04 -2.1042E+03   5.8781E+04  0.000E+00  0.000E+00  0.000E+00  3.92513E+01  1.263E-01  2.000E+01  2.000E+04 -1.052E-01
   1   11   25     2     6    5.8781E+04 -1.8871E+03   6.0668E+04  0.000E+00  0.000E+00  0.000E+00  3.90039E+01  1.289E-01  2.000E+01  2.000E+04 -9.435E-02
   1   12   24     2     7    6.0668E+04 -1.9166E+03   6.2585E+04  0.000E+00  0.000E+00  0.000E+00  3.87564E+01  1.314E-01  2.000E+01  2.000E+04 -9.583E-02
   1   13   23     2     8    6.2585E+04 -3.7276E+02   6.2958E+04  0.000E+00  0.000E+00  0.000E+00  3.85078E+01  1.328E-01  2.000E+01  2.000E+04 -1.864E-02
   1   14   22     2     9    6.2958E+04  1.9700E+03   6.0988E+04  0.000E+00  0.000E+00  0.000E+00  3.82568E+01  1.318E-01  2.000E+01  2.000E+04  9.850E-02
   1   14   22     3     1    1.7950E+05 -8.5958E+03   1.8810E+05  0.000E+00  0.000E+00  0.000E+00  3.77285E+01  1.729E-01  2.000E+01  2.000E+04 -4.298E-01
   1   15   23     3     2    1.8810E+05 -4.5911E+02   1.8856E+05  0.000E+00  0.000E+00  0.000E+00  3.68422E+01  1.755E-01  2.000E+01  2.000E+04 -2.296E-02
   1   15   24     3     3    1.8856E+05 -3.2381E+02   1.8888E+05  0.000E+00  0.000E+00  0.000E+00  3.59535E+01  1.757E-01  2.000E+01  2.000E+04 -1.619E-02
   1   15   25     3     4    1.8888E+05 -3.3901E+02   1.8922E+05  0.000E+00  0.000E+00  0.000E+00  3.50648E+01  1.759E-01  2.000E+01  2.000E+04 -1.695E-02
   1   15   26     3     5    1.8922E+05 -4.2983E+02   1.8965E+05  0.000E+00  0.000E+00  0.000E+00  3.41761E+01  1.761E-01  2.000E+01  2.000E+04 -2.149E-02
   1   16   27     3     6    1.8965E+05 -4.6067E+02   1.9011E+05  0.000E+00  0.000E+00  0.000E+00  3.32875E+01  1.764E-01  2.000E+01  2.000E+04 -2.303E-02
   1   17   28     3     7    1.9011E+05 -1.7730E+03   1.9188E+05  0.000E+00  0.000E+00  0.000E+00  3.23992E+01  1.770E-01  2.000E+01  2.000E+04 -8.865E-02
   1   18   29     3     8    1.9188E+05 -2.9272E+03   1.9481E+05  0.000E+00  0.000E+00  0.000E+00  3.15116E+01  1.783E-01  2.000E+01  2.000E+04 -1.464E-01
   1   18   30     3     9    1.9481E+05 -3.2659E+03   1.9808E+05  0.000E+00  0.000E+00  0.000E+00  3.06244E+01  1.800E-01  2.000E+01  2.000E+04 -1.633E-01



1
              HEAD IN LAYER   1 AT END OF TIME STEP   1 IN STRESS PERIOD   10
  ---------------------------------------------------------------------------

          1      2      3      4      5      6      7      8      9     10
         11     12     13     14     15     16     17     18     19     20
         21     22     23     24     25     26     27     28     29     30
 .........................................................................
   1  ****** ****** ****** ****** ****** ****** ****** ****** ****** ******
      ****** ****** ****** ****** ****** ****** ****** ****** ****** ******
      ****** ****** ****** ****** ****** ****** ****** ****** ****** ******
   2  ****** ****** ****** ****** ****** ****** ****** ****** ****** ******
      ****** ****** ****** ****** ****** ****** ****** ****** ****** ******
      ****** ****** ****** ****** ****** ****** ****** ****** ****** ******
   3  ****** ****** ****** ****** ****** ****** ****** ****** ****** ******
      ****** ****** ****** ****** ****** ****** ****** ****** ****** ******
      ****** ****** ****** ****** ****** ****** ****** ****** ****** ******
   4  ****** ****** ****** ****** ****** ****** ****** ****** ****** ******
      ****** ****** ****** ****** ****** ****** ****** ****** ****** ******
      ****** ****** ****** ****** ****** ****** ****** ****** ****** ******
   5  ****** ****** ****** ****** ****** ****** ****** ****** ****** ******
      ****** ****** ****** ****** ****** ****** ****** ****** ****** ******
      ****** ****** ****** ****** ****** ****** ****** ****** ****** ******
   6  ****** ****** ****** ****** ****** ****** ****** ****** ****** ******
      ****** ****** ****** ****** ****** ****** ****** ****** ****** ******
      ****** ****** ****** ****** ****** ****** ****** ****** ****** ******
   7  ****** ****** ****** ****** ****** ****** ****** ****** ****** ******
      ****** ****** ****** ****** ****** ****** ****** ****** ****** ******
      ****** ****** ****** ****** ****** ****** ****** ****** ****** ******
   8  ****** ****** ****** ****** ****** ****** ****** ****** ****** ******
      ****** ****** ****** ****** ****** ****** ****** ****** ****** ******
      ****** ****** ****** ****** ****** ****** ****** ****** ****** ******
   9  ****** ****** ****** ****** ****** ****** ****** ****** ****** ******
      ****** ****** ****** ****** ****** ****** ****** ****** ****** ******
      ****** ****** ****** ****** ****** ****** ****** ****** ****** ******
  10  ****** ****** ****** ****** ****** ****** ****** ****** ****** ******
      ****** ****** ****** ****** ****** ****** ****** ****** ****** ******
      ****** ****** ****** ****** ****** ****** ****** ****** ****** ******
  11  ****** ****** ****** ****** ****** ****** ****** ****** ****** ******
      ****** ****** ****** ****** ****** ****** ****** ****** ****** ******
      ****** ****** ****** ****** ****** ****** ****** ****** ****** ******
  12  ****** ****** ****** ****** ****** ****** ****** ****** ****** ******
      ****** ****** ****** ****** ****** ****** ****** ****** ****** ******
      ****** ****** ****** ****** ****** ****** ****** ****** ****** ******
  13  ****** ****** ****** ****** ****** ****** ****** ****** ****** ******
      ****** ****** ****** ****** ****** ****** ****** ****** ****** ******
      ****** ****** ****** ****** ****** ****** ****** ****** ****** ******
  14  ****** ****** ****** ****** ****** ****** ****** ****** ****** ******
      ****** ****** ****** ****** ****** ****** ****** ****** ****** ******
      ****** ****** ****** ****** ****** ****** ****** ****** ****** ******
  15  ****** ****** ****** ****** ****** ****** ****** ****** ****** ******
      ****** ****** ****** ****** ****** ****** ****** ****** ****** ******
      ****** ****** ****** ****** ****** ****** ****** ****** ****** ******
  16  ****** ****** ****** ****** ****** ****** ****** ****** ****** ******
      ****** ****** ****** ****** ****** ****** ****** ****** ****** ******
      ****** ****** ****** ****** ****** ****** ****** ****** ****** ******
  17  ****** ****** ****** ****** ****** ****** ****** ****** ****** ******
      ****** ****** ****** ****** ****** ****** ****** ****** ****** ******
      ****** ****** ****** ****** ****** ****** ****** ****** ****** ******
  18  ****** ****** ****** ****** ****** ****** ****** ****** ****** ******
      ****** ****** ****** ****** ****** ****** ****** ****** ****** ******
      ****** ****** ****** ****** ****** ****** ****** ****** ****** ******
  19  ****** ****** ****** ****** ****** ****** ****** ****** ****** ******
      ****** ****** ****** ****** ****** ****** ****** ****** ****** ******
      ****** ****** ****** ****** ****** ****** ****** ****** ****** ******
  20  ****** ****** ****** ****** ****** ****** ****** ****** ****** ******
      ****** ****** ****** ****** ****** ****** ****** ****** ****** ******
      ****** ****** ****** ****** ****** ****** ****** ****** ****** ******
  21  ****** ****** ****** ****** ****** ****** ****** ****** ****** ******
      ****** ****** ****** ****** ****** ****** ****** ****** ****** ******
      ****** ****** ****** ****** ****** ****** ****** ****** ****** ******
  22  ****** ****** ****** ****** ****** ****** ****** ****** ****** ******
      ****** ****** ****** ****** ****** ****** ****** ****** ****** ******
      ****** ****** ****** ****** ****** ****** ****** ****** ****** ******
  23  ****** ****** ****** ****** ****** ****** ****** ****** ****** ******
      ****** ****** ****** ****** ****** ****** ****** ****** ****** ******
      ****** ****** ****** ****** ****** ****** ****** ****** ****** ******
  24  ****** ****** ****** ****** ****** ****** ****** ****** ****** ******
      ****** ****** ****** ****** ****** ****** ****** ****** ****** ******
      ****** ****** ****** ****** ****** ****** ****** ****** ****** ******
  25  ****** ****** ****** ****** ****** ****** ****** ****** ****** ******
      ****** ****** ****** ****** ****** ****** ****** ****** ****** ******
      ****** ****** ****** ****** ****** ****** ****** ****** ****** ******

 HEAD WILL BE SAVED ON UNIT   51 AT END OF TIME STEP    1, STRESS PERIOD   10
1
  VOLUMETRIC BUDGET FOR ENTIRE MODEL AT END OF TIME STEP    1, STRESS PERIOD  10
  ------------------------------------------------------------------------------

     CUMULATIVE VOLUMES      L**3       RATES FOR THIS TIME STEP      L**3/T
     ------------------                 ------------------------

           IN:                                      IN:
           ---                                      ---
             STORAGE =    34242864.2896               STORAGE =           0.0000
       CONSTANT HEAD =    25939832.4312         CONSTANT HEAD =       32186.0019
               WELLS =           0.0000                 WELLS =           0.0000
            RECHARGE =    23901600.0000              RECHARGE =       55200.0000
      STREAM LEAKAGE =     6771757.0522        STREAM LEAKAGE =        7613.8513

            TOTAL IN =    90856053.7730              TOTAL IN =       94999.8531

          OUT:                                     OUT:
          ----                                     ----
             STORAGE =     2342785.9776               STORAGE =       15680.9822
       CONSTANT HEAD =           0.0000         CONSTANT HEAD =           0.0000
               WELLS =    21572335.5920                 WELLS =       23627.9689
            RECHARGE =           0.0000              RECHARGE =           0.0000
      STREAM LEAKAGE =    66940933.8016        STREAM LEAKAGE =       55690.8982

           TOTAL OUT =    90856055.3712             TOTAL OUT =       94999.8493

            IN - OUT =          -1.5982              IN - OUT =       3.8040E-03

 PERCENT DISCREPANCY =          -0.00     PERCENT DISCREPANCY =           0.00






         TIME SUMMARY AT END OF TIME STEP    1 IN STRESS PERIOD   10
                    SECONDS     MINUTES      HOURS       DAYS        YEARS
                    -----------------------------------------------------------
   TIME STEP LENGTH 7.86240E+06 1.31040E+05  2184.0      91.000     0.24914    
 STRESS PERIOD TIME 7.86240E+06 1.31040E+05  2184.0      91.000     0.24914    
         TOTAL TIME 7.88832E+07 1.31472E+06  21912.      913.00      2.4997    
1
1
                            STRESS PERIOD NO.   11, LENGTH =   91.00000    
                            -----------------------------------------------

                              NUMBER OF TIME STEPS =     1

                               MULTIPLIER FOR DELT =     1.500

                            INITIAL TIME STEP SIZE =   91.00000    

 WELL NO.  LAYER   ROW   COL   STRESS RATE         
 --------------------------------------------------
      1      1     20     17      -6946.    
      2      1     18     14      -7709.    
      3      1      9      3      -2375.    
      4      1     21     12      -6598.    

      4 WELLS

                 RECHARGE =   0.00000    

 REUSING STREAM SEGMENT DATA FROM LAST STRESS PERIOD
 
 SOLVING FOR HEAD 


     7 CALLS TO PCG ROUTINE FOR TIME STEP   1 IN STRESS PERIOD   11
    26 TOTAL ITERATIONS

 OUTPUT CONTROL FOR STRESS PERIOD   11   TIME STEP    1
    SAVE BUDGET
    SAVE HEAD FOR ALL LAYERS
    PRINT HEAD FOR ALL LAYERS
 UBDSV2 SAVING "STREAMFLOW OUT  " ON UNIT  50 AT TIME STEP  1, STRESS PERIOD  11



 STREAM LISTING     PERIOD     11   STEP        1

 LAYER ROW COL. STREAM  RCH.  FLOW INTO     FLOW TO   FLOW OUT OF   OVRLND.     DIRECT     STREAM       STREAM     STREAM     STREAM   STREAMBED  STREAMBED
                SEG.NO.  NO.  STRM. RCH.    AQUIFER    STRM. RCH.    RUNOFF     PRECIP       ET          HEAD       DEPTH      WIDTH   CONDCTNC.   GRADIENT

   1   13    1     1     1    1.0000E+05 -9.7236E+02   1.0097E+05  0.000E+00  0.000E+00  0.000E+00  4.84064E+01  1.451E-01  2.000E+01  2.000E+04 -4.862E-02
   1   13    2     1     2    1.0097E+05 -1.8541E+03   1.0283E+05  0.000E+00  0.000E+00  0.000E+00  4.79304E+01  1.463E-01  2.000E+01  2.000E+04 -9.270E-02
   1   14    3     1     3    1.0283E+05 -2.9049E+02   1.0312E+05  0.000E+00  0.000E+00  0.000E+00  4.74540E+01  1.472E-01  2.000E+01  2.000E+04 -1.452E-02
   1   15    4     1     4    1.0312E+05 -2.5583E+02   1.0337E+05  0.000E+00  0.000E+00  0.000E+00  4.69770E+01  1.475E-01  2.000E+01  2.000E+04 -1.279E-02
   1   16    5     1     5    1.0337E+05 -8.1704E+02   1.0419E+05  0.000E+00  0.000E+00  0.000E+00  4.65002E+01  1.479E-01  2.000E+01  2.000E+04 -4.085E-02
   1   16    6     1     6    1.0419E+05 -4.7382E+02   1.0466E+05  0.000E+00  0.000E+00  0.000E+00  4.60235E+01  1.485E-01  2.000E+01  2.000E+04 -2.369E-02
   1   16    7     1     7    1.0466E+05 -3.8889E+02   1.0505E+05  0.000E+00  0.000E+00  0.000E+00  4.55466E+01  1.488E-01  2.000E+01  2.000E+04 -1.944E-02
   1   16    8     1     8    1.0505E+05 -2.7314E+02   1.0533E+05  0.000E+00  0.000E+00  0.000E+00  4.50696E+01  1.491E-01  2.000E+01  2.000E+04 -1.366E-02
   1   16    9     1     9    1.0533E+05 -1.0933E+02   1.0543E+05  0.000E+00  0.000E+00  0.000E+00  4.45925E+01  1.493E-01  2.000E+01  2.000E+04 -5.466E-03
   1   16   10     1    10    1.0543E+05  1.1880E+02   1.0532E+05  0.000E+00  0.000E+00  0.000E+00  4.41152E+01  1.493E-01  2.000E+01  2.000E+04  5.940E-03
   1   16   11     1    11    1.0532E+05  4.5246E+02   1.0486E+05  0.000E+00  0.000E+00  0.000E+00  4.36377E+01  1.490E-01  2.000E+01  2.000E+04  2.262E-02
   1   16   12     1    12    1.0486E+05  1.3783E+03   1.0349E+05  0.000E+00  0.000E+00  0.000E+00  4.31596E+01  1.482E-01  2.000E+01  2.000E+04  6.891E-02
   1   15   13     1    13    1.0349E+05  5.9622E+02   1.0289E+05  0.000E+00  0.000E+00  0.000E+00  4.26815E+01  1.474E-01  2.000E+01  2.000E+04  2.981E-02
   1   14   14     1    14    1.0289E+05 -3.2251E+02   1.0321E+05  0.000E+00  0.000E+00  0.000E+00  4.22041E+01  1.473E-01  2.000E+01  2.000E+04 -1.613E-02
   1   13   15     1    15    1.0321E+05 -1.1447E+03   1.0436E+05  0.000E+00  0.000E+00  0.000E+00  4.17275E+01  1.479E-01  2.000E+01  2.000E+04 -5.723E-02
   1   12   16     1    16    1.0436E+05 -2.2845E+03   1.0664E+05  0.000E+00  0.000E+00  0.000E+00  4.12516E+01  1.494E-01  2.000E+01  2.000E+04 -1.142E-01
   1   12   17     1    17    1.0664E+05 -1.3235E+03   1.0796E+05  0.000E+00  0.000E+00  0.000E+00  4.07759E+01  1.509E-01  2.000E+01  2.000E+04 -6.617E-02
   1   12   18     1    18    1.0796E+05 -1.2732E+03   1.0924E+05  0.000E+00  0.000E+00  0.000E+00  4.02997E+01  1.520E-01  2.000E+01  2.000E+04 -6.366E-02
   1   12   19     1    19    1.0924E+05 -1.8944E+03   1.1113E+05  0.000E+00  0.000E+00  0.000E+00  3.98238E+01  1.533E-01  2.000E+01  2.000E+04 -9.472E-02
   1   13   20     1    20    1.1113E+05 -9.2475E+02   1.1206E+05  0.000E+00  0.000E+00  0.000E+00  3.93477E+01  1.545E-01  2.000E+01  2.000E+04 -4.624E-02
   1   14   21     1    21    1.1206E+05 -3.2834E+02   1.1239E+05  0.000E+00  0.000E+00  0.000E+00  3.88709E+01  1.550E-01  2.000E+01  2.000E+04 -1.642E-02
   1   14   22     1    22    1.1239E+05  4.9929E+03   1.0739E+05  0.000E+00  0.000E+00  0.000E+00  3.83917E+01  1.531E-01  2.000E+01  2.000E+04  2.496E-01
   1    9   30     2     1    5.0000E+04 -4.9210E+02   5.0492E+04  0.000E+00  0.000E+00  0.000E+00  4.02412E+01  1.162E-01  2.000E+01  2.000E+04 -2.460E-02
   1    9   29     2     2    5.0492E+04 -7.9190E+02   5.1284E+04  0.000E+00  0.000E+00  0.000E+00  3.99921E+01  1.171E-01  2.000E+01  2.000E+04 -3.960E-02
   1    9   28     2     3    5.1284E+04 -1.0465E+03   5.2331E+04  0.000E+00  0.000E+00  0.000E+00  3.97434E+01  1.184E-01  2.000E+01  2.000E+04 -5.233E-02
   1    9   27     2     4    5.2331E+04 -2.2518E+03   5.4582E+04  0.000E+00  0.000E+00  0.000E+00  3.94956E+01  1.206E-01  2.000E+01  2.000E+04 -1.126E-01
   1   10   26     2     5    5.4582E+04 -1.4503E+03   5.6033E+04  0.000E+00  0.000E+00  0.000E+00  3.92481E+01  1.231E-01  2.000E+01  2.000E+04 -7.252E-02
   1   11   25     2     6    5.6033E+04 -1.2570E+03   5.7290E+04  0.000E+00  0.000E+00  0.000E+00  3.89999E+01  1.249E-01  2.000E+01  2.000E+04 -6.285E-02
   1   12   24     2     7    5.7290E+04 -1.3434E+03   5.8633E+04  0.000E+00  0.000E+00  0.000E+00  3.87516E+01  1.266E-01  2.000E+01  2.000E+04 -6.717E-02
   1   13   23     2     8    5.8633E+04 -1.8689E+02   5.8820E+04  0.000E+00  0.000E+00  0.000E+00  3.85026E+01  1.276E-01  2.000E+01  2.000E+04 -9.345E-03
   1   14   22     2     9    5.8820E+04  2.1847E+03   5.6635E+04  0.000E+00  0.000E+00  0.000E+00  3.82513E+01  1.263E-01  2.000E+01  2.000E+04  1.092E-01
   1   14   22     3     1    1.6403E+05 -8.4499E+03   1.7248E+05  0.000E+00  0.000E+00  0.000E+00  3.77196E+01  1.640E-01  2.000E+01  2.000E+04 -4.225E-01
   1   15   23     3     2    1.7248E+05 -2.6689E+02   1.7274E+05  0.000E+00  0.000E+00  0.000E+00  3.68332E+01  1.665E-01  2.000E+01  2.000E+04 -1.334E-02
   1   15   24     3     3    1.7274E+05 -1.5858E+02   1.7290E+05  0.000E+00  0.000E+00  0.000E+00  3.59444E+01  1.667E-01  2.000E+01  2.000E+04 -7.929E-03
   1   15   25     3     4    1.7290E+05 -1.6996E+02   1.7307E+05  0.000E+00  0.000E+00  0.000E+00  3.50557E+01  1.668E-01  2.000E+01  2.000E+04 -8.498E-03
   1   15   26     3     5    1.7307E+05 -2.3409E+02   1.7331E+05  0.000E+00  0.000E+00  0.000E+00  3.41669E+01  1.669E-01  2.000E+01  2.000E+04 -1.170E-02
   1   16   27     3     6    1.7331E+05 -2.3756E+02   1.7354E+05  0.000E+00  0.000E+00  0.000E+00  3.32781E+01  1.670E-01  2.000E+01  2.000E+04 -1.188E-02
   1   17   28     3     7    1.7354E+05 -1.1629E+03   1.7471E+05  0.000E+00  0.000E+00  0.000E+00  3.23896E+01  1.674E-01  2.000E+01  2.000E+04 -5.814E-02
   1   18   29     3     8    1.7471E+05 -2.3045E+03   1.7701E+05  0.000E+00  0.000E+00  0.000E+00  3.15018E+01  1.684E-01  2.000E+01  2.000E+04 -1.152E-01
   1   18   30     3     9    1.7701E+05 -2.7762E+03   1.7979E+05  0.000E+00  0.000E+00  0.000E+00  3.06143E+01  1.699E-01  2.000E+01  2.000E+04 -1.388E-01



1
              HEAD IN LAYER   1 AT END OF TIME STEP   1 IN STRESS PERIOD   11
  ---------------------------------------------------------------------------

          1      2      3      4      5      6      7      8      9     10
         11     12     13     14     15     16     17     18     19     20
         21     22     23     24     25     26     27     28     29     30
 .........................................................................
   1  ****** ****** ****** ****** ****** ****** ****** ****** ****** ******
      ****** ****** ****** ****** ****** ****** ****** ****** ****** ******
      ****** ****** ****** ****** ****** ****** ****** ****** ****** ******
   2  ****** ****** ****** ****** ****** ****** ****** ****** ****** ******
      ****** ****** ****** ****** ****** ****** ****** ****** ****** ******
      ****** ****** ****** ****** ****** ****** ****** ****** ****** ******
   3  ****** ****** ****** ****** ****** ****** ****** ****** ****** ******
      ****** ****** ****** ****** ****** ****** ****** ****** ****** ******
      ****** ****** ****** ****** ****** ****** ****** ****** ****** ******
   4  ****** ****** ****** ****** ****** ****** ****** ****** ****** ******
      ****** ****** ****** ****** ****** ****** ****** ****** ****** ******
      ****** ****** ****** ****** ****** ****** ****** ****** ****** ******
   5  ****** ****** ****** ****** ****** ****** ****** ****** ****** ******
      ****** ****** ****** ****** ****** ****** ****** ****** ****** ******
      ****** ****** ****** ****** ****** ****** ****** ****** ****** ******
   6  ****** ****** ****** ****** ****** ****** ****** ****** ****** ******
      ****** ****** ****** ****** ****** ****** ****** ****** ****** ******
      ****** ****** ****** ****** ****** ****** ****** ****** ****** ******
   7  ****** ****** ****** ****** ****** ****** ****** ****** ****** ******
      ****** ****** ****** ****** ****** ****** ****** ****** ****** ******
      ****** ****** ****** ****** ****** ****** ****** ****** ****** ******
   8  ****** ****** ****** ****** ****** ****** ****** ****** ****** ******
      ****** ****** ****** ****** ****** ****** ****** ****** ****** ******
      ****** ****** ****** ****** ****** ****** ****** ****** ****** ******
   9  ****** ****** ****** ****** ****** ****** ****** ****** ****** ******
      ****** ****** ****** ****** ****** ****** ****** ****** ****** ******
      ****** ****** ****** ****** ****** ****** ****** ****** ****** ******
  10  ****** ****** ****** ****** ****** ****** ****** ****** ****** ******
      ****** ****** ****** ****** ****** ****** ****** ****** ****** ******
      ****** ****** ****** ****** ****** ****** ****** ****** ****** ******
  11  ****** ****** ****** ****** ****** ****** ****** ****** ****** ******
      ****** ****** ****** ****** ****** ****** ****** ****** ****** ******
      ****** ****** ****** ****** ****** ****** ****** ****** ****** ******
  12  ****** ****** ****** ****** ****** ****** ****** ****** ****** ******
      ****** ****** ****** ****** ****** ****** ****** ****** ****** ******
      ****** ****** ****** ****** ****** ****** ****** ****** ****** ******
  13  ****** ****** ****** ****** ****** ****** ****** ****** ****** ******
      ****** ****** ****** ****** ****** ****** ****** ****** ****** ******
      ****** ****** ****** ****** ****** ****** ****** ****** ****** ******
  14  ****** ****** ****** ****** ****** ****** ****** ****** ****** ******
      ****** ****** ****** ****** ****** ****** ****** ****** ****** ******
      ****** ****** ****** ****** ****** ****** ****** ****** ****** ******
  15  ****** ****** ****** ****** ****** ****** ****** ****** ****** ******
      ****** ****** ****** ****** ****** ****** ****** ****** ****** ******
      ****** ****** ****** ****** ****** ****** ****** ****** ****** ******
  16  ****** ****** ****** ****** ****** ****** ****** ****** ****** ******
      ****** ****** ****** ****** ****** ****** ****** ****** ****** ******
      ****** ****** ****** ****** ****** ****** ****** ****** ****** ******
  17  ****** ****** ****** ****** ****** ****** ****** ****** ****** ******
      ****** ****** ****** ****** ****** ****** ****** ****** ****** ******
      ****** ****** ****** ****** ****** ****** ****** ****** ****** ******
  18  ****** ****** ****** ****** ****** ****** ****** ****** ****** ******
      ****** ****** ****** ****** ****** ****** ****** ****** ****** ******
      ****** ****** ****** ****** ****** ****** ****** ****** ****** ******
  19  ****** ****** ****** ****** ****** ****** ****** ****** ****** ******
      ****** ****** ****** ****** ****** ****** ****** ****** ****** ******
      ****** ****** ****** ****** ****** ****** ****** ****** ****** ******
  20  ****** ****** ****** ****** ****** ****** ****** ****** ****** ******
      ****** ****** ****** ****** ****** ****** ****** ****** ****** ******
      ****** ****** ****** ****** ****** ****** ****** ****** ****** ******
  21  ****** ****** ****** ****** ****** ****** ****** ****** ****** ******
      ****** ****** ****** ****** ****** ****** ****** ****** ****** ******
      ****** ****** ****** ****** ****** ****** ****** ****** ****** ******
  22  ****** ****** ****** ****** ****** ****** ****** ****** ****** ******
      ****** ****** ****** ****** ****** ****** ****** ****** ****** ******
      ****** ****** ****** ****** ****** ****** ****** ****** ****** ******
  23  ****** ****** ****** ****** ****** ****** ****** ****** ****** ******
      ****** ****** ****** ****** ****** ****** ****** ****** ****** ******
      ****** ****** ****** ****** ****** ****** ****** ****** ****** ******
  24  ****** ****** ****** ****** ****** ****** ****** ****** ****** ******
      ****** ****** ****** ****** ****** ****** ****** ****** ****** ******
      ****** ****** ****** ****** ****** ****** ****** ****** ****** ******
  25  ****** ****** ****** ****** ****** ****** ****** ****** ****** ******
      ****** ****** ****** ****** ****** ****** ****** ****** ****** ******
      ****** ****** ****** ****** ****** ****** ****** ****** ****** ******

 HEAD WILL BE SAVED ON UNIT   51 AT END OF TIME STEP    1, STRESS PERIOD   11
1
  VOLUMETRIC BUDGET FOR ENTIRE MODEL AT END OF TIME STEP    1, STRESS PERIOD  11
  ------------------------------------------------------------------------------

     CUMULATIVE VOLUMES      L**3       RATES FOR THIS TIME STEP      L**3/T
     ------------------                 ------------------------

           IN:                                      IN:
           ---                                      ---
             STORAGE =    35875686.1571               STORAGE =       17943.0974
       CONSTANT HEAD =    29167873.6085         CONSTANT HEAD =       35472.9800
               WELLS =           0.0000                 WELLS =           0.0000
            RECHARGE =    23901600.0000              RECHARGE =           0.0000
      STREAM LEAKAGE =     7656576.0640        STREAM LEAKAGE =        9723.2858

            TOTAL IN =    96601735.8296              TOTAL IN =       63139.3633

          OUT:                                     OUT:
          ----                                     ----
             STORAGE =     2342785.9776               STORAGE =           0.0000
       CONSTANT HEAD =           0.0000         CONSTANT HEAD =           0.0000
               WELLS =    23722480.7605                 WELLS =       23627.9689
            RECHARGE =           0.0000              RECHARGE =           0.0000
      STREAM LEAKAGE =    70536471.1416        STREAM LEAKAGE =       39511.3993

           TOTAL OUT =    96601737.8797             TOTAL OUT =       63139.3682

            IN - OUT =          -2.0501              IN - OUT =      -4.9666E-03

 PERCENT DISCREPANCY =          -0.00     PERCENT DISCREPANCY =          -0.00






         TIME SUMMARY AT END OF TIME STEP    1 IN STRESS PERIOD   11
                    SECONDS     MINUTES      HOURS       DAYS        YEARS
                    -----------------------------------------------------------
   TIME STEP LENGTH 7.86240E+06 1.31040E+05  2184.0      91.000     0.24914    
 STRESS PERIOD TIME 7.86240E+06 1.31040E+05  2184.0      91.000     0.24914    
         TOTAL TIME 8.67456E+07 1.44576E+06  24096.      1004.0      2.7488    
1
1
                            STRESS PERIOD NO.   12, LENGTH =   91.00000    
                            -----------------------------------------------

                              NUMBER OF TIME STEPS =     1

                               MULTIPLIER FOR DELT =     1.500

                            INITIAL TIME STEP SIZE =   91.00000    

 WELL NO.  LAYER   ROW   COL   STRESS RATE         
 --------------------------------------------------
      1      1     20     17      -6946.    
      2      1     18     14      -7709.    
      3      1      9      3      -2375.    
      4      1     21     12      -6598.    

      4 WELLS

                 RECHARGE =  1.000000E-03

 REUSING STREAM SEGMENT DATA FROM LAST STRESS PERIOD
 
 SOLVING FOR HEAD 


     7 CALLS TO PCG ROUTINE FOR TIME STEP   1 IN STRESS PERIOD   12
    24 TOTAL ITERATIONS

 OUTPUT CONTROL FOR STRESS PERIOD   12   TIME STEP    1
    SAVE BUDGET
    SAVE HEAD FOR ALL LAYERS
    PRINT HEAD FOR ALL LAYERS
 UBDSV2 SAVING "STREAMFLOW OUT  " ON UNIT  50 AT TIME STEP  1, STRESS PERIOD  12



 STREAM LISTING     PERIOD     12   STEP        1

 LAYER ROW COL. STREAM  RCH.  FLOW INTO     FLOW TO   FLOW OUT OF   OVRLND.     DIRECT     STREAM       STREAM     STREAM     STREAM   STREAMBED  STREAMBED
                SEG.NO.  NO.  STRM. RCH.    AQUIFER    STRM. RCH.    RUNOFF     PRECIP       ET          HEAD       DEPTH      WIDTH   CONDCTNC.   GRADIENT

   1   13    1     1     1    1.0000E+05 -1.1165E+03   1.0112E+05  0.000E+00  0.000E+00  0.000E+00  4.84065E+01  1.451E-01  2.000E+01  2.000E+04 -5.582E-02
   1   13    2     1     2    1.0112E+05 -2.0090E+03   1.0313E+05  0.000E+00  0.000E+00  0.000E+00  4.79306E+01  1.465E-01  2.000E+01  2.000E+04 -1.004E-01
   1   14    3     1     3    1.0313E+05 -3.6899E+02   1.0349E+05  0.000E+00  0.000E+00  0.000E+00  4.74543E+01  1.475E-01  2.000E+01  2.000E+04 -1.845E-02
   1   15    4     1     4    1.0349E+05 -3.3812E+02   1.0383E+05  0.000E+00  0.000E+00  0.000E+00  4.69774E+01  1.478E-01  2.000E+01  2.000E+04 -1.691E-02
   1   16    5     1     5    1.0383E+05 -1.0265E+03   1.0486E+05  0.000E+00  0.000E+00  0.000E+00  4.65007E+01  1.484E-01  2.000E+01  2.000E+04 -5.132E-02
   1   16    6     1     6    1.0486E+05 -6.0408E+02   1.0546E+05  0.000E+00  0.000E+00  0.000E+00  4.60241E+01  1.491E-01  2.000E+01  2.000E+04 -3.020E-02
   1   16    7     1     7    1.0546E+05 -5.1410E+02   1.0598E+05  0.000E+00  0.000E+00  0.000E+00  4.55473E+01  1.496E-01  2.000E+01  2.000E+04 -2.570E-02
   1   16    8     1     8    1.0598E+05 -3.9730E+02   1.0637E+05  0.000E+00  0.000E+00  0.000E+00  4.50704E+01  1.499E-01  2.000E+01  2.000E+04 -1.987E-02
   1   16    9     1     9    1.0637E+05 -2.3391E+02   1.0661E+05  0.000E+00  0.000E+00  0.000E+00  4.45934E+01  1.502E-01  2.000E+01  2.000E+04 -1.170E-02
   1   16   10     1    10    1.0661E+05 -7.0950E+00   1.0662E+05  0.000E+00  0.000E+00  0.000E+00  4.41162E+01  1.503E-01  2.000E+01  2.000E+04 -3.548E-04
   1   16   11     1    11    1.0662E+05  3.2438E+02   1.0629E+05  0.000E+00  0.000E+00  0.000E+00  4.36388E+01  1.502E-01  2.000E+01  2.000E+04  1.622E-02
   1   16   12     1    12    1.0629E+05  1.1770E+03   1.0511E+05  0.000E+00  0.000E+00  0.000E+00  4.31609E+01  1.495E-01  2.000E+01  2.000E+04  5.885E-02
   1   15   13     1    13    1.0511E+05  3.7951E+02   1.0473E+05  0.000E+00  0.000E+00  0.000E+00  4.26830E+01  1.489E-01  2.000E+01  2.000E+04  1.898E-02
   1   14   14     1    14    1.0473E+05 -5.3990E+02   1.0527E+05  0.000E+00  0.000E+00  0.000E+00  4.22058E+01  1.490E-01  2.000E+01  2.000E+04 -2.700E-02
   1   13   15     1    15    1.0527E+05 -1.3549E+03   1.0663E+05  0.000E+00  0.000E+00  0.000E+00  4.17293E+01  1.498E-01  2.000E+01  2.000E+04 -6.774E-02
   1   12   16     1    16    1.0663E+05 -2.4685E+03   1.0910E+05  0.000E+00  0.000E+00  0.000E+00  4.12536E+01  1.514E-01  2.000E+01  2.000E+04 -1.234E-01
   1   12   17     1    17    1.0910E+05 -1.4771E+03   1.1058E+05  0.000E+00  0.000E+00  0.000E+00  4.07780E+01  1.530E-01  2.000E+01  2.000E+04 -7.386E-02
   1   12   18     1    18    1.1058E+05 -1.4290E+03   1.1200E+05  0.000E+00  0.000E+00  0.000E+00  4.03020E+01  1.542E-01  2.000E+01  2.000E+04 -7.145E-02
   1   12   19     1    19    1.1200E+05 -2.0871E+03   1.1409E+05  0.000E+00  0.000E+00  0.000E+00  3.98262E+01  1.557E-01  2.000E+01  2.000E+04 -1.044E-01
   1   13   20     1    20    1.1409E+05 -1.1351E+03   1.1523E+05  0.000E+00  0.000E+00  0.000E+00  3.93502E+01  1.570E-01  2.000E+01  2.000E+04 -5.675E-02
   1   14   21     1    21    1.1523E+05 -5.2203E+02   1.1575E+05  0.000E+00  0.000E+00  0.000E+00  3.88736E+01  1.577E-01  2.000E+01  2.000E+04 -2.610E-02
   1   14   22     1    22    1.1575E+05  4.9410E+03   1.1081E+05  0.000E+00  0.000E+00  0.000E+00  3.83945E+01  1.559E-01  2.000E+01  2.000E+04  2.471E-01
   1    9   30     2     1    5.0000E+04 -6.6861E+02   5.0669E+04  0.000E+00  0.000E+00  0.000E+00  4.02413E+01  1.163E-01  2.000E+01  2.000E+04 -3.343E-02
   1    9   29     2     2    5.0669E+04 -9.6637E+02   5.1635E+04  0.000E+00  0.000E+00  0.000E+00  3.99925E+01  1.175E-01  2.000E+01  2.000E+04 -4.832E-02
   1    9   28     2     3    5.1635E+04 -1.2175E+03   5.2853E+04  0.000E+00  0.000E+00  0.000E+00  3.97440E+01  1.190E-01  2.000E+01  2.000E+04 -6.088E-02
   1    9   27     2     4    5.2853E+04 -2.4612E+03   5.5314E+04  0.000E+00  0.000E+00  0.000E+00  3.94965E+01  1.215E-01  2.000E+01  2.000E+04 -1.231E-01
   1   10   26     2     5    5.5314E+04 -1.6803E+03   5.6994E+04  0.000E+00  0.000E+00  0.000E+00  3.92492E+01  1.242E-01  2.000E+01  2.000E+04 -8.402E-02
   1   11   25     2     6    5.6994E+04 -1.4831E+03   5.8477E+04  0.000E+00  0.000E+00  0.000E+00  3.90013E+01  1.263E-01  2.000E+01  2.000E+04 -7.415E-02
   1   12   24     2     7    5.8477E+04 -1.5498E+03   6.0027E+04  0.000E+00  0.000E+00  0.000E+00  3.87533E+01  1.283E-01  2.000E+01  2.000E+04 -7.749E-02
   1   13   23     2     8    6.0027E+04 -2.6457E+02   6.0291E+04  0.000E+00  0.000E+00  0.000E+00  3.85045E+01  1.295E-01  2.000E+01  2.000E+04 -1.323E-02
   1   14   22     2     9    6.0291E+04  2.1159E+03   5.8176E+04  0.000E+00  0.000E+00  0.000E+00  3.82533E+01  1.283E-01  2.000E+01  2.000E+04  1.058E-01
   1   14   22     3     1    1.6898E+05 -8.5002E+03   1.7748E+05  0.000E+00  0.000E+00  0.000E+00  3.77225E+01  1.669E-01  2.000E+01  2.000E+04 -4.250E-01
   1   15   23     3     2    1.7748E+05 -3.3883E+02   1.7782E+05  0.000E+00  0.000E+00  0.000E+00  3.68361E+01  1.695E-01  2.000E+01  2.000E+04 -1.694E-02
   1   15   24     3     3    1.7782E+05 -2.2362E+02   1.7805E+05  0.000E+00  0.000E+00  0.000E+00  3.59474E+01  1.696E-01  2.000E+01  2.000E+04 -1.118E-02
   1   15   25     3     4    1.7805E+05 -2.3628E+02   1.7828E+05  0.000E+00  0.000E+00  0.000E+00  3.50586E+01  1.697E-01  2.000E+01  2.000E+04 -1.181E-02
   1   15   26     3     5    1.7828E+05 -3.1154E+02   1.7859E+05  0.000E+00  0.000E+00  0.000E+00  3.41699E+01  1.699E-01  2.000E+01  2.000E+04 -1.558E-02
   1   16   27     3     6    1.7859E+05 -3.2429E+02   1.7892E+05  0.000E+00  0.000E+00  0.000E+00  3.32812E+01  1.701E-01  2.000E+01  2.000E+04 -1.621E-02
   1   17   28     3     7    1.7892E+05 -1.3834E+03   1.8030E+05  0.000E+00  0.000E+00  0.000E+00  3.23928E+01  1.706E-01  2.000E+01  2.000E+04 -6.917E-02
   1   18   29     3     8    1.8030E+05 -2.5048E+03   1.8281E+05  0.000E+00  0.000E+00  0.000E+00  3.15050E+01  1.717E-01  2.000E+01  2.000E+04 -1.252E-01
   1   18   30     3     9    1.8281E+05 -2.9441E+03   1.8575E+05  0.000E+00  0.000E+00  0.000E+00  3.06177E+01  1.732E-01  2.000E+01  2.000E+04 -1.472E-01



1
              HEAD IN LAYER   1 AT END OF TIME STEP   1 IN STRESS PERIOD   12
  ---------------------------------------------------------------------------

          1      2      3      4      5      6      7      8      9     10
         11     12     13     14     15     16     17     18     19     20
         21     22     23     24     25     26     27     28     29     30
 .........................................................................
   1  ****** ****** ****** ****** ****** ****** ****** ****** ****** ******
      ****** ****** ****** ****** ****** ****** ****** ****** ****** ******
      ****** ****** ****** ****** ****** ****** ****** ****** ****** ******
   2  ****** ****** ****** ****** ****** ****** ****** ****** ****** ******
      ****** ****** ****** ****** ****** ****** ****** ****** ****** ******
      ****** ****** ****** ****** ****** ****** ****** ****** ****** ******
   3  ****** ****** ****** ****** ****** ****** ****** ****** ****** ******
      ****** ****** ****** ****** ****** ****** ****** ****** ****** ******
      ****** ****** ****** ****** ****** ****** ****** ****** ****** ******
   4  ****** ****** ****** ****** ****** ****** ****** ****** ****** ******
      ****** ****** ****** ****** ****** ****** ****** ****** ****** ******
      ****** ****** ****** ****** ****** ****** ****** ****** ****** ******
   5  ****** ****** ****** ****** ****** ****** ****** ****** ****** ******
      ****** ****** ****** ****** ****** ****** ****** ****** ****** ******
      ****** ****** ****** ****** ****** ****** ****** ****** ****** ******
   6  ****** ****** ****** ****** ****** ****** ****** ****** ****** ******
      ****** ****** ****** ****** ****** ****** ****** ****** ****** ******
      ****** ****** ****** ****** ****** ****** ****** ****** ****** ******
   7  ****** ****** ****** ****** ****** ****** ****** ****** ****** ******
      ****** ****** ****** ****** ****** ****** ****** ****** ****** ******
      ****** ****** ****** ****** ****** ****** ****** ****** ****** ******
   8  ****** ****** ****** ****** ****** ****** ****** ****** ****** ******
      ****** ****** ****** ****** ****** ****** ****** ****** ****** ******
      ****** ****** ****** ****** ****** ****** ****** ****** ****** ******
   9  ****** ****** ****** ****** ****** ****** ****** ****** ****** ******
      ****** ****** ****** ****** ****** ****** ****** ****** ****** ******
      ****** ****** ****** ****** ****** ****** ****** ****** ****** ******
  10  ****** ****** ****** ****** ****** ****** ****** ****** ****** ******
      ****** ****** ****** ****** ****** ****** ****** ****** ****** ******
      ****** ****** ****** ****** ****** ****** ****** ****** ****** ******
  11  ****** ****** ****** ****** ****** ****** ****** ****** ****** ******
      ****** ****** ****** ****** ****** ****** ****** ****** ****** ******
      ****** ****** ****** ****** ****** ****** ****** ****** ****** ******
  12  ****** ****** ****** ****** ****** ****** ****** ****** ****** ******
      ****** ****** ****** ****** ****** ****** ****** ****** ****** ******
      ****** ****** ****** ****** ****** ****** ****** ****** ****** ******
  13  ****** ****** ****** ****** ****** ****** ****** ****** ****** ******
      ****** ****** ****** ****** ****** ****** ****** ****** ****** ******
      ****** ****** ****** ****** ****** ****** ****** ****** ****** ******
  14  ****** ****** ****** ****** ****** ****** ****** ****** ****** ******
      ****** ****** ****** ****** ****** ****** ****** ****** ****** ******
      ****** ****** ****** ****** ****** ****** ****** ****** ****** ******
  15  ****** ****** ****** ****** ****** ****** ****** ****** ****** ******
      ****** ****** ****** ****** ****** ****** ****** ****** ****** ******
      ****** ****** ****** ****** ****** ****** ****** ****** ****** ******
  16  ****** ****** ****** ****** ****** ****** ****** ****** ****** ******
      ****** ****** ****** ****** ****** ****** ****** ****** ****** ******
      ****** ****** ****** ****** ****** ****** ****** ****** ****** ******
  17  ****** ****** ****** ****** ****** ****** ****** ****** ****** ******
      ****** ****** ****** ****** ****** ****** ****** ****** ****** ******
      ****** ****** ****** ****** ****** ****** ****** ****** ****** ******
  18  ****** ****** ****** ****** ****** ****** ****** ****** ****** ******
      ****** ****** ****** ****** ****** ****** ****** ****** ****** ******
      ****** ****** ****** ****** ****** ****** ****** ****** ****** ******
  19  ****** ****** ****** ****** ****** ****** ****** ****** ****** ******
      ****** ****** ****** ****** ****** ****** ****** ****** ****** ******
      ****** ****** ****** ****** ****** ****** ****** ****** ****** ******
  20  ****** ****** ****** ****** ****** ****** ****** ****** ****** ******
      ****** ****** ****** ****** ****** ****** ****** ****** ****** ******
      ****** ****** ****** ****** ****** ****** ****** ****** ****** ******
  21  ****** ****** ****** ****** ****** ****** ****** ****** ****** ******
      ****** ****** ****** ****** ****** ****** ****** ****** ****** ******
      ****** ****** ****** ****** ****** ****** ****** ****** ****** ******
  22  ****** ****** ****** ****** ****** ****** ****** ****** ****** ******
      ****** ****** ****** ****** ****** ****** ****** ****** ****** ******
      ****** ****** ****** ****** ****** ****** ****** ****** ****** ******
  23  ****** ****** ****** ****** ****** ****** ****** ****** ****** ******
      ****** ****** ****** ****** ****** ****** ****** ****** ****** ******
      ****** ****** ****** ****** ****** ****** ****** ****** ****** ******
  24  ****** ****** ****** ****** ****** ****** ****** ****** ****** ******
      ****** ****** ****** ****** ****** ****** ****** ****** ****** ******
      ****** ****** ****** ****** ****** ****** ****** ****** ****** ******
  25  ****** ****** ****** ****** ****** ****** ****** ****** ****** ******
      ****** ****** ****** ****** ****** ****** ****** ****** ****** ******
      ****** ****** ****** ****** ****** ****** ****** ****** ****** ******

 HEAD WILL BE SAVED ON UNIT   51 AT END OF TIME STEP    1, STRESS PERIOD   12
1
  VOLUMETRIC BUDGET FOR ENTIRE MODEL AT END OF TIME STEP    1, STRESS PERIOD  12
  ------------------------------------------------------------------------------

     CUMULATIVE VOLUMES      L**3       RATES FOR THIS TIME STEP      L**3/T
     ------------------                 ------------------------

           IN:                                      IN:
           ---                                      ---
             STORAGE =    35876643.0106               STORAGE =          10.5149
       CONSTANT HEAD =    32332616.6460         CONSTANT HEAD =       34777.3960
               WELLS =           0.0000                 WELLS =           0.0000
            RECHARGE =    26413200.0000              RECHARGE =       27600.0000
      STREAM LEAKAGE =     8469906.0417        STREAM LEAKAGE =        8937.6921

            TOTAL IN =   103092365.6983              TOTAL IN =       71325.6030

          OUT:                                     OUT:
          ----                                     ----
             STORAGE =     2616691.2049               STORAGE =        3009.9476
       CONSTANT HEAD =           0.0000         CONSTANT HEAD =           0.0000
               WELLS =    25872625.9291                 WELLS =       23627.9689
            RECHARGE =           0.0000              RECHARGE =           0.0000
      STREAM LEAKAGE =    74603050.5249        STREAM LEAKAGE =       44687.6855

           TOTAL OUT =   103092367.6589             TOTAL OUT =       71325.6020

            IN - OUT =          -1.9606              IN - OUT =       9.8349E-04

 PERCENT DISCREPANCY =          -0.00     PERCENT DISCREPANCY =           0.00






         TIME SUMMARY AT END OF TIME STEP    1 IN STRESS PERIOD   12
                    SECONDS     MINUTES      HOURS       DAYS        YEARS
                    -----------------------------------------------------------
   TIME STEP LENGTH 7.86240E+06 1.31040E+05  2184.0      91.000     0.24914    
 STRESS PERIOD TIME 7.86240E+06 1.31040E+05  2184.0      91.000     0.24914    
         TOTAL TIME 9.46080E+07 1.57680E+06  26280.      1095.0      2.9979    
1

 Run end date and time (yyyy/mm/dd hh:mm:ss): 2019/08/04 17:20:37
 Elapsed run time:  0.036 Seconds

