                                  MODFLOW-2005     
      U.S. GEOLOGICAL SURVEY MODULAR FINITE-DIFFERENCE GROUND-WATER FLOW MODEL
                            VERSION 1.11.00 8/8/2013

 LIST FILE: supply2.lst
                         UNIT   10

 OPENING ..\data\supply.dis
 FILE TYPE:DIS   UNIT   11   STATUS:OLD    
 FORMAT:FORMATTED              ACCESS:SEQUENTIAL          

 OPENING ..\data\supply.ba6
 FILE TYPE:BAS6   UNIT   12   STATUS:OLD    
 FORMAT:FORMATTED              ACCESS:SEQUENTIAL          

 OPENING ..\data\supply_het.bc6
 FILE TYPE:BCF6   UNIT   13   STATUS:OLD    
 FORMAT:FORMATTED              ACCESS:SEQUENTIAL          

 OPENING ..\data\supply.rch
 FILE TYPE:RCH   UNIT   15   STATUS:OLD    
 FORMAT:FORMATTED              ACCESS:SEQUENTIAL          

 OPENING ..\data\supply2.sfr
 FILE TYPE:SFR   UNIT   16   STATUS:OLD    
 FORMAT:FORMATTED              ACCESS:SEQUENTIAL          

 OPENING ..\data\supply.oc
 FILE TYPE:OC   UNIT   17   STATUS:OLD    
 FORMAT:FORMATTED              ACCESS:SEQUENTIAL          

 OPENING ..\data\supply.pcg
 FILE TYPE:PCG   UNIT   18   STATUS:OLD    
 FORMAT:FORMATTED              ACCESS:SEQUENTIAL          

 OPENING supply2.wel
 FILE TYPE:WEL   UNIT   19   STATUS:OLD    
 FORMAT:FORMATTED              ACCESS:SEQUENTIAL          

 OPENING supply2sf.cbc
 FILE TYPE:DATA(BINARY)   UNIT   50   STATUS:UNKNOWN
 FORMAT:BINARY                 ACCESS:SEQUENTIAL          

 OPENING supply2hd.bhd
 FILE TYPE:DATA(BINARY)   UNIT   51   STATUS:UNKNOWN
 FORMAT:BINARY                 ACCESS:SEQUENTIAL          

 BAS -- BASIC PACKAGE, VERSION 7, 5/2/2005 INPUT READ FROM UNIT   12
 
 MODFLOW was compiled using uniform precision
 Precision of REAL and DOUBLE PRECISION variables:          15

 DISCRETIZATION INPUT DATA READ FROM UNIT   11
    1 LAYERS        25 ROWS        30 COLUMNS
   12 STRESS PERIOD(S) IN SIMULATION
 MODEL TIME UNIT IS DAYS
 MODEL LENGTH UNIT IS UNDEFINED
  Confining bed flag for each layer:
   0

                     DELR =   200.000    

                     DELC =   200.000    

 TOP ELEVATION OF LAYER 1 =  100.0000    

   MODEL LAYER BOTTOM EL. =   0.00000     FOR LAYER   1


 STRESS PERIOD     LENGTH       TIME STEPS     MULTIPLIER FOR DELT    SS FLAG
 ----------------------------------------------------------------------------
        1         92.00000          1                    1.500         TR
        2         91.00000          1                    1.500         TR
        3         91.00000          1                    1.500         TR
        4         91.00000          1                    1.500         TR
        5         92.00000          1                    1.500         TR
        6         91.00000          1                    1.500         TR
        7         91.00000          1                    1.500         TR
        8         91.00000          1                    1.500         TR
        9         92.00000          1                    1.500         TR
       10         91.00000          1                    1.500         TR
       11         91.00000          1                    1.500         TR
       12         91.00000          1                    1.500         TR

 TRANSIENT SIMULATION



 
 #MODOFC transient water supply sample problem                                   
 #                                                                               
 THE FREE FORMAT OPTION HAS BEEN SELECTED



                     BOUNDARY ARRAY FOR LAYER   1
 READING ON UNIT   12 WITH FORMAT: (20I4)              

 AQUIFER HEAD WILL BE SET TO   0.0000     AT ALL NO-FLOW NODES (IBOUND=0).



                       INITIAL HEAD FOR LAYER   1
 READING ON UNIT   12 WITH FORMAT: (10F13.0)           

 OUTPUT CONTROL IS SPECIFIED ONLY AT TIME STEPS FOR WHICH OUTPUT IS DESIRED
 COMPACT CELL-BY-CELL BUDGET FILES WILL BE WRITTEN
 HEAD PRINT FORMAT CODE IS  18    DRAWDOWN PRINT FORMAT CODE IS   0
 HEADS WILL BE SAVED ON UNIT   51    DRAWDOWNS WILL BE SAVED ON UNIT    0

 BCF -- BLOCK-CENTERED FLOW PACKAGE, VERSION 7, 5/2/2005
         INPUT READ FROM UNIT 13
 TRANSIENT SIMULATION
 HEAD AT CELLS THAT CONVERT TO DRY=   0.0000    
 WETTING CAPABILITY IS NOT ACTIVE
      LAYER  LAYER-TYPE CODE     INTERBLOCK T
      --------------------------------------------
         1            0          0 -- HARMONIC    

 COLUMN TO ROW ANISOTROPY =  1.000000    

     PRIMARY STORAGE COEF =  5.000000E-02 FOR LAYER   1



               TRANSMIS. ALONG ROWS FOR LAYER   1
 READING ON UNIT   13 WITH FORMAT: (FREE)              

 WEL -- WELL PACKAGE, VERSION 7, 5/2/2005 INPUT READ FROM UNIT   19
 # Well package input file written by MMProc
 No named parameters
 MAXIMUM OF      8 ACTIVE WELLS AT ONE TIME


     0 Well parameters

 RCH -- RECHARGE PACKAGE, VERSION 7, 5/2/2005 INPUT READ FROM UNIT   15
 No named parameters
 OPTION 1 -- RECHARGE TO TOP LAYER


     0 Recharge parameters

 SFR7 -- STREAMFLOW ROUTING PACKAGE, VERSION 1.0.7, 2013-01-15
         INPUT READ FROM UNIT  16
 #  Supply2 test problem for GWM-VI
 #  The eighth entry in the first data line is ISTCB2 -
 #    Setting this to a negative number indicates that
 #    streamflows out of the reach will be saved to a
 #    binary file.  The absolute value of ISTCB2 is the
 #    unit to which unformatted flows will be written.
 #
 No named parameters
 Segment information will not be 
 read by reach
 No named parameters
 No specifed inflow files


 NUMBER OF STREAM REACHES IS   40

 NUMBER OF STREAM SEGMENTS IS    3

 NUMBER OF STREAM PARAMETERS IS    0

 NUMBER OF STREAM SEGMENTS DEFINED USING PARAMETERS IS              0

 MAXIMUM ERROR FOR STREAM LEAKAGE RATES IS  1.00E-04

 CONSTANT FOR MANNINGS EQUATION IS  1.2839E+05





   STREAM NETWORK DESCRIPTION: 

   LAYER    ROW    COL   SEGMENT   REACH     LENGTH
                          NUMBER   NUMBER    IN CELL        
   --------------------------------------------------
      1     13      1       1        1    2.0000E+02
      1     13      2       1        2    2.0000E+02
      1     14      3       1        3    2.0000E+02
      1     15      4       1        4    2.0000E+02
      1     16      5       1        5    2.0000E+02
      1     16      6       1        6    2.0000E+02
      1     16      7       1        7    2.0000E+02
      1     16      8       1        8    2.0000E+02
      1     16      9       1        9    2.0000E+02
      1     16     10       1       10    2.0000E+02
      1     16     11       1       11    2.0000E+02
      1     16     12       1       12    2.0000E+02
      1     15     13       1       13    2.0000E+02
      1     14     14       1       14    2.0000E+02
      1     13     15       1       15    2.0000E+02
      1     12     16       1       16    2.0000E+02
      1     12     17       1       17    2.0000E+02
      1     12     18       1       18    2.0000E+02
      1     12     19       1       19    2.0000E+02
      1     13     20       1       20    2.0000E+02
      1     14     21       1       21    2.0000E+02
      1     14     22       1       22    2.0000E+02
      1      9     30       2        1    2.0000E+02
      1      9     29       2        2    2.0000E+02
      1      9     28       2        3    2.0000E+02
      1      9     27       2        4    2.0000E+02
      1     10     26       2        5    2.0000E+02
      1     11     25       2        6    2.0000E+02
      1     12     24       2        7    2.0000E+02
      1     13     23       2        8    2.0000E+02
      1     14     22       2        9    2.0000E+02
      1     14     22       3        1    2.0000E+02
      1     15     23       3        2    2.0000E+02
      1     15     24       3        3    2.0000E+02
      1     15     25       3        4    2.0000E+02
      1     15     26       3        5    2.0000E+02
      1     16     27       3        6    2.0000E+02
      1     17     28       3        7    2.0000E+02
      1     18     29       3        8    2.0000E+02
      1     18     30       3        9    2.0000E+02




 PCG -- CONJUGATE-GRADIENT SOLUTION PACKAGE, VERSION 7, 5/2/2005
 MAXIMUM OF    500 CALLS OF SOLUTION ROUTINE
 MAXIMUM OF      5 INTERNAL ITERATIONS PER CALL TO SOLUTION ROUTINE
 MATRIX PRECONDITIONING TYPE :    1



                                    SOLUTION BY THE CONJUGATE-GRADIENT METHOD
                                   -------------------------------------------
                    MAXIMUM NUMBER OF CALLS TO PCG ROUTINE =      500
                        MAXIMUM ITERATIONS PER CALL TO PCG =        5
                               MATRIX PRECONDITIONING TYPE =        1
        RELAXATION FACTOR (ONLY USED WITH PRECOND. TYPE 1) =    0.10000E+01
 PARAMETER OF POLYNOMIAL PRECOND. = 2 (2) OR IS CALCULATED :        0
                         HEAD CHANGE CRITERION FOR CLOSURE =    0.10000E-05
                     RESIDUAL CHANGE CRITERION FOR CLOSURE =    0.10000E+01
            PCG HEAD AND RESIDUAL CHANGE PRINTOUT INTERVAL =        1
     PRINTING FROM SOLVER IS LIMITED(1) OR SUPPRESSED (>1) =        1
                            STEADY-STATE DAMPING PARAMETER =    0.10000E+01
                               TRANSIENT DAMPING PARAMETER =    0.10000E+01
1
                            STRESS PERIOD NO.    1, LENGTH =   92.00000    
                            -----------------------------------------------

                              NUMBER OF TIME STEPS =     1

                               MULTIPLIER FOR DELT =     1.500

                            INITIAL TIME STEP SIZE =   92.00000    

 WELL NO.  LAYER   ROW   COL   STRESS RATE         
 --------------------------------------------------
      1      1     14      6       0.000    
      2      1      3      9       0.000    
      3      1     20     10       0.000    
      4      1     14     20       0.000    
      5      1      8     26      -8223.    
      6      1     11     23      -7775.    
      7      1      7     20      -8549.    
      8      1     17      2      -8344.    

      8 WELLS

                 RECHARGE =  5.000000E-04



 CLASSIFICATION & COUNT OF STREAM SEGMENTS BASED ON SOURCE OF INFLOW:

                HEADWATER     DIVERSION     RECEIVES TRIBUTARY FLOW
                ---------     ---------     -----------------------
                     2              0               1



                    INPUT DATA FOR EACH STREAM SEGMENT
 ---------------------------------------------------------------------------------------------

 SEGMENT    SEG.     INFLOW   OVERLAND   STREAM    STREAM   ICALC  OUTFLOW  DIVERSION PRIORITY
    NO.    LENGTH     RATE     RUNOFF      ET       PPT.    METH.  TO SEG.  FROM SEG.    NO.

      1  4.400E+03 1.000E+05 0.000E+00 0.000E+00 0.000E+00    1        3        0        0
      2  1.800E+03 5.000E+04 0.000E+00 0.000E+00 0.000E+00    1        3        0        0
      3  1.800E+03 0.000E+00 0.000E+00 0.000E+00 0.000E+00    1        0        0        0


         STREAMBED PROPERTIES AND STREAM DIMENSIONS

 SEGMENT     BED HYD. COND.      BED THICKNESS     ELEV.-TOP OF BED     WIDTH OF STREAM     DEPTH OF STREAM    STREAM ROUGHNESS
    No.     UPPER     LOWER     UPPER     LOWER     UPPER     LOWER     UPPER     LOWER     UPPER     LOWER   CHANNEL      BANK

     1  5.000E+00 5.000E+00 1.000E+00 1.000E+00 4.850E+01 3.800E+01 2.000E+01 2.000E+01                     5.000E-02
     2  5.000E+00 5.000E+00 1.000E+00 1.000E+00 4.025E+01 3.800E+01 2.000E+01 2.000E+01                     5.000E-02
     3  5.000E+00 5.000E+00 1.000E+00 1.000E+00 3.800E+01 3.000E+01 2.000E+01 2.000E+01                     5.000E-02



 
 SOLVING FOR HEAD 


     9 CALLS TO PCG ROUTINE FOR TIME STEP   1 IN STRESS PERIOD    1
    36 TOTAL ITERATIONS

 OUTPUT CONTROL FOR STRESS PERIOD    1   TIME STEP    1
    SAVE BUDGET
    SAVE HEAD FOR ALL LAYERS
    PRINT HEAD FOR ALL LAYERS
 UBDSV2 SAVING "STREAMFLOW OUT  " ON UNIT  50 AT TIME STEP  1, STRESS PERIOD   1



 STREAM LISTING     PERIOD      1   STEP        1

 LAYER ROW COL. STREAM  RCH.  FLOW INTO     FLOW TO   FLOW OUT OF   OVRLND.     DIRECT     STREAM       STREAM     STREAM     STREAM   STREAMBED  STREAMBED
                SEG.NO.  NO.  STRM. RCH.    AQUIFER    STRM. RCH.    RUNOFF     PRECIP       ET          HEAD       DEPTH      WIDTH   CONDCTNC.   GRADIENT

   1   13    1     1     1    1.0000E+05 -5.3259E+03   1.0533E+05  0.000E+00  0.000E+00  0.000E+00  4.84083E+01  1.470E-01  2.000E+01  2.000E+04 -2.663E-01
   1   13    2     1     2    1.0533E+05 -6.8258E+03   1.1215E+05  0.000E+00  0.000E+00  0.000E+00  4.79362E+01  1.521E-01  2.000E+01  2.000E+04 -3.413E-01
   1   14    3     1     3    1.1215E+05 -1.9426E+03   1.1409E+05  0.000E+00  0.000E+00  0.000E+00  4.74626E+01  1.558E-01  2.000E+01  2.000E+04 -9.713E-02
   1   15    4     1     4    1.1409E+05 -1.9552E+03   1.1605E+05  0.000E+00  0.000E+00  0.000E+00  4.69869E+01  1.574E-01  2.000E+01  2.000E+04 -9.776E-02
   1   16    5     1     5    1.1605E+05 -5.5312E+03   1.2158E+05  0.000E+00  0.000E+00  0.000E+00  4.65127E+01  1.604E-01  2.000E+01  2.000E+04 -2.766E-01
   1   16    6     1     6    1.2158E+05 -3.9430E+03   1.2552E+05  0.000E+00  0.000E+00  0.000E+00  4.60392E+01  1.642E-01  2.000E+01  2.000E+04 -1.972E-01
   1   16    7     1     7    1.2552E+05 -3.9461E+03   1.2947E+05  0.000E+00  0.000E+00  0.000E+00  4.55651E+01  1.673E-01  2.000E+01  2.000E+04 -1.973E-01
   1   16    8     1     8    1.2947E+05 -3.9814E+03   1.3345E+05  0.000E+00  0.000E+00  0.000E+00  4.50909E+01  1.705E-01  2.000E+01  2.000E+04 -1.991E-01
   1   16    9     1     9    1.3345E+05 -4.0141E+03   1.3747E+05  0.000E+00  0.000E+00  0.000E+00  4.46167E+01  1.735E-01  2.000E+01  2.000E+04 -2.007E-01
   1   16   10     1    10    1.3747E+05 -4.0384E+03   1.4150E+05  0.000E+00  0.000E+00  0.000E+00  4.41425E+01  1.766E-01  2.000E+01  2.000E+04 -2.019E-01
   1   16   11     1    11    1.4150E+05 -4.0919E+03   1.4560E+05  0.000E+00  0.000E+00  0.000E+00  4.36683E+01  1.797E-01  2.000E+01  2.000E+04 -2.046E-01
   1   16   12     1    12    1.4560E+05 -6.9843E+03   1.5258E+05  0.000E+00  0.000E+00  0.000E+00  4.31952E+01  1.838E-01  2.000E+01  2.000E+04 -3.492E-01
   1   15   13     1    13    1.5258E+05 -7.3112E+03   1.5989E+05  0.000E+00  0.000E+00  0.000E+00  4.27231E+01  1.891E-01  2.000E+01  2.000E+04 -3.656E-01
   1   14   14     1    14    1.5989E+05 -7.7936E+03   1.6768E+05  0.000E+00  0.000E+00  0.000E+00  4.22513E+01  1.945E-01  2.000E+01  2.000E+04 -3.897E-01
   1   13   15     1    15    1.6768E+05 -8.0935E+03   1.7578E+05  0.000E+00  0.000E+00  0.000E+00  4.17796E+01  2.001E-01  2.000E+01  2.000E+04 -4.047E-01
   1   12   16     1    16    1.7578E+05 -8.5750E+03   1.8435E+05  0.000E+00  0.000E+00  0.000E+00  4.13081E+01  2.059E-01  2.000E+01  2.000E+04 -4.288E-01
   1   12   17     1    17    1.8435E+05 -6.0109E+03   1.9036E+05  0.000E+00  0.000E+00  0.000E+00  4.08358E+01  2.108E-01  2.000E+01  2.000E+04 -3.005E-01
   1   12   18     1    18    1.9036E+05 -5.7391E+03   1.9610E+05  0.000E+00  0.000E+00  0.000E+00  4.03625E+01  2.148E-01  2.000E+01  2.000E+04 -2.870E-01
   1   12   19     1    19    1.9610E+05 -6.7894E+03   2.0289E+05  0.000E+00  0.000E+00  0.000E+00  3.98894E+01  2.189E-01  2.000E+01  2.000E+04 -3.395E-01
   1   13   20     1    20    2.0289E+05 -6.1544E+03   2.0905E+05  0.000E+00  0.000E+00  0.000E+00  3.94163E+01  2.232E-01  2.000E+01  2.000E+04 -3.077E-01
   1   14   21     1    21    2.0905E+05 -6.1390E+03   2.1519E+05  0.000E+00  0.000E+00  0.000E+00  3.89430E+01  2.271E-01  2.000E+01  2.000E+04 -3.069E-01
   1   14   22     1    22    2.1519E+05  3.8660E+03   2.1132E+05  0.000E+00  0.000E+00  0.000E+00  3.84665E+01  2.279E-01  2.000E+01  2.000E+04  1.933E-01
   1    9   30     2     1    5.0000E+04 -4.5481E+03   5.4548E+04  0.000E+00  0.000E+00  0.000E+00  4.02440E+01  1.190E-01  2.000E+01  2.000E+04 -2.274E-01
   1    9   29     2     2    5.4548E+04 -4.7395E+03   5.9288E+04  0.000E+00  0.000E+00  0.000E+00  4.00002E+01  1.252E-01  2.000E+01  2.000E+04 -2.370E-01
   1    9   28     2     3    5.9288E+04 -4.7029E+03   6.3991E+04  0.000E+00  0.000E+00  0.000E+00  3.97564E+01  1.314E-01  2.000E+01  2.000E+04 -2.351E-01
   1    9   27     2     4    6.3991E+04 -5.6477E+03   6.9638E+04  0.000E+00  0.000E+00  0.000E+00  3.95129E+01  1.379E-01  2.000E+01  2.000E+04 -2.824E-01
   1   10   26     2     5    6.9638E+04 -5.3340E+03   7.4972E+04  0.000E+00  0.000E+00  0.000E+00  3.92696E+01  1.446E-01  2.000E+01  2.000E+04 -2.667E-01
   1   11   25     2     6    7.4972E+04 -4.8312E+03   7.9803E+04  0.000E+00  0.000E+00  0.000E+00  3.90256E+01  1.506E-01  2.000E+01  2.000E+04 -2.416E-01
   1   12   24     2     7    7.9803E+04 -3.6384E+03   8.3442E+04  0.000E+00  0.000E+00  0.000E+00  3.87805E+01  1.555E-01  2.000E+01  2.000E+04 -1.819E-01
   1   13   23     2     8    8.3442E+04 -1.2940E+03   8.4736E+04  0.000E+00  0.000E+00  0.000E+00  3.85333E+01  1.583E-01  2.000E+01  2.000E+04 -6.470E-02
   1   14   22     2     9    8.4736E+04  2.1389E+02   8.4522E+04  0.000E+00  0.000E+00  0.000E+00  3.82839E+01  1.589E-01  2.000E+01  2.000E+04  1.069E-02
   1   14   22     3     1    2.9584E+05 -9.7054E+03   3.0555E+05  0.000E+00  0.000E+00  0.000E+00  3.77879E+01  2.324E-01  2.000E+01  2.000E+04 -4.853E-01
   1   15   23     3     2    3.0555E+05 -1.9883E+03   3.0754E+05  0.000E+00  0.000E+00  0.000E+00  3.69017E+01  2.351E-01  2.000E+01  2.000E+04 -9.942E-02
   1   15   24     3     3    3.0754E+05 -1.5292E+03   3.0907E+05  0.000E+00  0.000E+00  0.000E+00  3.60137E+01  2.359E-01  2.000E+01  2.000E+04 -7.646E-02
   1   15   25     3     4    3.0907E+05 -1.5787E+03   3.1064E+05  0.000E+00  0.000E+00  0.000E+00  3.51255E+01  2.366E-01  2.000E+01  2.000E+04 -7.894E-02
   1   15   26     3     5    3.1064E+05 -1.8819E+03   3.1253E+05  0.000E+00  0.000E+00  0.000E+00  3.42374E+01  2.374E-01  2.000E+01  2.000E+04 -9.409E-02
   1   16   27     3     6    3.1253E+05 -2.1641E+03   3.1469E+05  0.000E+00  0.000E+00  0.000E+00  3.33494E+01  2.383E-01  2.000E+01  2.000E+04 -1.082E-01
   1   17   28     3     7    3.1469E+05 -6.5775E+03   3.2127E+05  0.000E+00  0.000E+00  0.000E+00  3.24625E+01  2.403E-01  2.000E+01  2.000E+04 -3.289E-01
   1   18   29     3     8    3.2127E+05 -7.9944E+03   3.2926E+05  0.000E+00  0.000E+00  0.000E+00  3.15769E+01  2.436E-01  2.000E+01  2.000E+04 -3.997E-01
   1   18   30     3     9    3.2926E+05 -7.1741E+03   3.3644E+05  0.000E+00  0.000E+00  0.000E+00  3.06914E+01  2.470E-01  2.000E+01  2.000E+04 -3.587E-01



1
              HEAD IN LAYER   1 AT END OF TIME STEP   1 IN STRESS PERIOD    1
  ---------------------------------------------------------------------------

          1      2      3      4      5      6      7      8      9     10
         11     12     13     14     15     16     17     18     19     20
         21     22     23     24     25     26     27     28     29     30
 .........................................................................
   1  ****** ****** ****** ****** ****** ****** ****** ****** ****** ******
      ****** ****** ****** ****** ****** ****** ****** ****** ****** ******
      ****** ****** ****** ****** ****** ****** ****** ****** ****** ******
   2  ****** ****** ****** ****** ****** ****** ****** ****** ****** ******
      ****** ****** ****** ****** ****** ****** ****** ****** ****** ******
      ****** ****** ****** ****** ****** ****** ****** ****** ****** ******
   3  ****** ****** ****** ****** ****** ****** ****** ****** ****** ******
      ****** ****** ****** ****** ****** ****** ****** ****** ****** ******
      ****** ****** ****** ****** ****** ****** ****** ****** ****** ******
   4  ****** ****** ****** ****** ****** ****** ****** ****** ****** ******
      ****** ****** ****** ****** ****** ****** ****** ****** ****** ******
      ****** ****** ****** ****** ****** ****** ****** ****** ****** ******
   5  ****** ****** ****** ****** ****** ****** ****** ****** ****** ******
      ****** ****** ****** ****** ****** ****** ****** ****** ****** ******
      ****** ****** ****** ****** ****** ****** ****** ****** ****** ******
   6  ****** ****** ****** ****** ****** ****** ****** ****** ****** ******
      ****** ****** ****** ****** ****** ****** ****** ****** ****** ******
      ****** ****** ****** ****** ****** ****** ****** ****** ****** ******
   7  ****** ****** ****** ****** ****** ****** ****** ****** ****** ******
      ****** ****** ****** ****** ****** ****** ****** ****** ****** ******
      ****** ****** ****** ****** ****** ****** ****** ****** ****** ******
   8  ****** ****** ****** ****** ****** ****** ****** ****** ****** ******
      ****** ****** ****** ****** ****** ****** ****** ****** ****** ******
      ****** ****** ****** ****** ****** ****** ****** ****** ****** ******
   9  ****** ****** ****** ****** ****** ****** ****** ****** ****** ******
      ****** ****** ****** ****** ****** ****** ****** ****** ****** ******
      ****** ****** ****** ****** ****** ****** ****** ****** ****** ******
  10  ****** ****** ****** ****** ****** ****** ****** ****** ****** ******
      ****** ****** ****** ****** ****** ****** ****** ****** ****** ******
      ****** ****** ****** ****** ****** ****** ****** ****** ****** ******
  11  ****** ****** ****** ****** ****** ****** ****** ****** ****** ******
      ****** ****** ****** ****** ****** ****** ****** ****** ****** ******
      ****** ****** ****** ****** ****** ****** ****** ****** ****** ******
  12  ****** ****** ****** ****** ****** ****** ****** ****** ****** ******
      ****** ****** ****** ****** ****** ****** ****** ****** ****** ******
      ****** ****** ****** ****** ****** ****** ****** ****** ****** ******
  13  ****** ****** ****** ****** ****** ****** ****** ****** ****** ******
      ****** ****** ****** ****** ****** ****** ****** ****** ****** ******
      ****** ****** ****** ****** ****** ****** ****** ****** ****** ******
  14  ****** ****** ****** ****** ****** ****** ****** ****** ****** ******
      ****** ****** ****** ****** ****** ****** ****** ****** ****** ******
      ****** ****** ****** ****** ****** ****** ****** ****** ****** ******
  15  ****** ****** ****** ****** ****** ****** ****** ****** ****** ******
      ****** ****** ****** ****** ****** ****** ****** ****** ****** ******
      ****** ****** ****** ****** ****** ****** ****** ****** ****** ******
  16  ****** ****** ****** ****** ****** ****** ****** ****** ****** ******
      ****** ****** ****** ****** ****** ****** ****** ****** ****** ******
      ****** ****** ****** ****** ****** ****** ****** ****** ****** ******
  17  ****** ****** ****** ****** ****** ****** ****** ****** ****** ******
      ****** ****** ****** ****** ****** ****** ****** ****** ****** ******
      ****** ****** ****** ****** ****** ****** ****** ****** ****** ******
  18  ****** ****** ****** ****** ****** ****** ****** ****** ****** ******
      ****** ****** ****** ****** ****** ****** ****** ****** ****** ******
      ****** ****** ****** ****** ****** ****** ****** ****** ****** ******
  19  ****** ****** ****** ****** ****** ****** ****** ****** ****** ******
      ****** ****** ****** ****** ****** ****** ****** ****** ****** ******
      ****** ****** ****** ****** ****** ****** ****** ****** ****** ******
  20  ****** ****** ****** ****** ****** ****** ****** ****** ****** ******
      ****** ****** ****** ****** ****** ****** ****** ****** ****** ******
      ****** ****** ****** ****** ****** ****** ****** ****** ****** ******
  21  ****** ****** ****** ****** ****** ****** ****** ****** ****** ******
      ****** ****** ****** ****** ****** ****** ****** ****** ****** ******
      ****** ****** ****** ****** ****** ****** ****** ****** ****** ******
  22  ****** ****** ****** ****** ****** ****** ****** ****** ****** ******
      ****** ****** ****** ****** ****** ****** ****** ****** ****** ******
      ****** ****** ****** ****** ****** ****** ****** ****** ****** ******
  23  ****** ****** ****** ****** ****** ****** ****** ****** ****** ******
      ****** ****** ****** ****** ****** ****** ****** ****** ****** ******
      ****** ****** ****** ****** ****** ****** ****** ****** ****** ******
  24  ****** ****** ****** ****** ****** ****** ****** ****** ****** ******
      ****** ****** ****** ****** ****** ****** ****** ****** ****** ******
      ****** ****** ****** ****** ****** ****** ****** ****** ****** ******
  25  ****** ****** ****** ****** ****** ****** ****** ****** ****** ******
      ****** ****** ****** ****** ****** ****** ****** ****** ****** ******
      ****** ****** ****** ****** ****** ****** ****** ****** ****** ******

 HEAD WILL BE SAVED ON UNIT   51 AT END OF TIME STEP    1, STRESS PERIOD    1
1
  VOLUMETRIC BUDGET FOR ENTIRE MODEL AT END OF TIME STEP    1, STRESS PERIOD   1
  ------------------------------------------------------------------------------

     CUMULATIVE VOLUMES      L**3       RATES FOR THIS TIME STEP      L**3/T
     ------------------                 ------------------------

           IN:                                      IN:
           ---                                      ---
             STORAGE =    17754027.3943               STORAGE =      192978.5586
       CONSTANT HEAD =     1154408.6648         CONSTANT HEAD =       12547.9203
               WELLS =           0.0000                 WELLS =           0.0000
            RECHARGE =     1269600.0000              RECHARGE =       13800.0000
      STREAM LEAKAGE =      375352.9365        STREAM LEAKAGE =        4079.9232

            TOTAL IN =    20553388.9956              TOTAL IN =      223406.4021

          OUT:                                     OUT:
          ----                                     ----
             STORAGE =           0.0000               STORAGE =           0.0000
       CONSTANT HEAD =           0.0000         CONSTANT HEAD =           0.0000
               WELLS =     3025950.4633                 WELLS =       32890.7659
            RECHARGE =           0.0000              RECHARGE =           0.0000
      STREAM LEAKAGE =    17527438.8308        STREAM LEAKAGE =      190515.6395

           TOTAL OUT =    20553389.2941             TOTAL OUT =      223406.4054

            IN - OUT =          -0.2985              IN - OUT =      -3.2443E-03

 PERCENT DISCREPANCY =          -0.00     PERCENT DISCREPANCY =          -0.00






         TIME SUMMARY AT END OF TIME STEP    1 IN STRESS PERIOD    1
                    SECONDS     MINUTES      HOURS       DAYS        YEARS
                    -----------------------------------------------------------
   TIME STEP LENGTH 7.94880E+06 1.32480E+05  2208.0      92.000     0.25188    
 STRESS PERIOD TIME 7.94880E+06 1.32480E+05  2208.0      92.000     0.25188    
         TOTAL TIME 7.94880E+06 1.32480E+05  2208.0      92.000     0.25188    
1
1
                            STRESS PERIOD NO.    2, LENGTH =   91.00000    
                            -----------------------------------------------

                              NUMBER OF TIME STEPS =     1

                               MULTIPLIER FOR DELT =     1.500

                            INITIAL TIME STEP SIZE =   91.00000    

 WELL NO.  LAYER   ROW   COL   STRESS RATE         
 --------------------------------------------------
      1      1     14      6       0.000    
      2      1      3      9       0.000    
      3      1     20     10       0.000    
      4      1     14     20       0.000    
      5      1      8     26      -8223.    
      6      1     11     23      -7775.    
      7      1      7     20      -8549.    
      8      1     17      2      -8344.    

      8 WELLS

                 RECHARGE =  2.000000E-03

 REUSING STREAM SEGMENT DATA FROM LAST STRESS PERIOD
 
 SOLVING FOR HEAD 


     7 CALLS TO PCG ROUTINE FOR TIME STEP   1 IN STRESS PERIOD    2
    27 TOTAL ITERATIONS

 OUTPUT CONTROL FOR STRESS PERIOD    2   TIME STEP    1
    SAVE BUDGET
    SAVE HEAD FOR ALL LAYERS
    PRINT HEAD FOR ALL LAYERS
 UBDSV2 SAVING "STREAMFLOW OUT  " ON UNIT  50 AT TIME STEP  1, STRESS PERIOD   2



 STREAM LISTING     PERIOD      2   STEP        1

 LAYER ROW COL. STREAM  RCH.  FLOW INTO     FLOW TO   FLOW OUT OF   OVRLND.     DIRECT     STREAM       STREAM     STREAM     STREAM   STREAMBED  STREAMBED
                SEG.NO.  NO.  STRM. RCH.    AQUIFER    STRM. RCH.    RUNOFF     PRECIP       ET          HEAD       DEPTH      WIDTH   CONDCTNC.   GRADIENT

   1   13    1     1     1    1.0000E+05 -2.9798E+03   1.0298E+05  0.000E+00  0.000E+00  0.000E+00  4.84073E+01  1.459E-01  2.000E+01  2.000E+04 -1.490E-01
   1   13    2     1     2    1.0298E+05 -4.2848E+03   1.0726E+05  0.000E+00  0.000E+00  0.000E+00  4.79331E+01  1.491E-01  2.000E+01  2.000E+04 -2.142E-01
   1   14    3     1     3    1.0726E+05 -7.8280E+02   1.0805E+05  0.000E+00  0.000E+00  0.000E+00  4.74580E+01  1.512E-01  2.000E+01  2.000E+04 -3.914E-02
   1   15    4     1     4    1.0805E+05 -7.3559E+02   1.0878E+05  0.000E+00  0.000E+00  0.000E+00  4.69814E+01  1.518E-01  2.000E+01  2.000E+04 -3.678E-02
   1   16    5     1     5    1.0878E+05 -2.0836E+03   1.1087E+05  0.000E+00  0.000E+00  0.000E+00  4.65053E+01  1.530E-01  2.000E+01  2.000E+04 -1.042E-01
   1   16    6     1     6    1.1087E+05 -1.9888E+03   1.1286E+05  0.000E+00  0.000E+00  0.000E+00  4.60297E+01  1.547E-01  2.000E+01  2.000E+04 -9.944E-02
   1   16    7     1     7    1.1286E+05 -2.1174E+03   1.1497E+05  0.000E+00  0.000E+00  0.000E+00  4.55541E+01  1.564E-01  2.000E+01  2.000E+04 -1.059E-01
   1   16    8     1     8    1.1497E+05 -2.1951E+03   1.1717E+05  0.000E+00  0.000E+00  0.000E+00  4.50786E+01  1.582E-01  2.000E+01  2.000E+04 -1.098E-01
   1   16    9     1     9    1.1717E+05 -2.2391E+03   1.1941E+05  0.000E+00  0.000E+00  0.000E+00  4.46032E+01  1.600E-01  2.000E+01  2.000E+04 -1.120E-01
   1   16   10     1    10    1.1941E+05 -2.2574E+03   1.2166E+05  0.000E+00  0.000E+00  0.000E+00  4.41277E+01  1.618E-01  2.000E+01  2.000E+04 -1.129E-01
   1   16   11     1    11    1.2166E+05 -2.2935E+03   1.2396E+05  0.000E+00  0.000E+00  0.000E+00  4.36523E+01  1.636E-01  2.000E+01  2.000E+04 -1.147E-01
   1   16   12     1    12    1.2396E+05 -4.0914E+03   1.2805E+05  0.000E+00  0.000E+00  0.000E+00  4.31775E+01  1.662E-01  2.000E+01  2.000E+04 -2.046E-01
   1   15   13     1    13    1.2805E+05 -4.0841E+03   1.3213E+05  0.000E+00  0.000E+00  0.000E+00  4.27035E+01  1.694E-01  2.000E+01  2.000E+04 -2.042E-01
   1   14   14     1    14    1.3213E+05 -4.4428E+03   1.3658E+05  0.000E+00  0.000E+00  0.000E+00  4.22295E+01  1.727E-01  2.000E+01  2.000E+04 -2.221E-01
   1   13   15     1    15    1.3658E+05 -4.7241E+03   1.4130E+05  0.000E+00  0.000E+00  0.000E+00  4.17558E+01  1.762E-01  2.000E+01  2.000E+04 -2.362E-01
   1   12   16     1    16    1.4130E+05 -5.3133E+03   1.4661E+05  0.000E+00  0.000E+00  0.000E+00  4.12823E+01  1.800E-01  2.000E+01  2.000E+04 -2.657E-01
   1   12   17     1    17    1.4661E+05 -3.4111E+03   1.5002E+05  0.000E+00  0.000E+00  0.000E+00  4.08082E+01  1.832E-01  2.000E+01  2.000E+04 -1.706E-01
   1   12   18     1    18    1.5002E+05 -3.1046E+03   1.5313E+05  0.000E+00  0.000E+00  0.000E+00  4.03334E+01  1.857E-01  2.000E+01  2.000E+04 -1.552E-01
   1   12   19     1    19    1.5313E+05 -3.3964E+03   1.5653E+05  0.000E+00  0.000E+00  0.000E+00  3.98585E+01  1.880E-01  2.000E+01  2.000E+04 -1.698E-01
   1   13   20     1    20    1.5653E+05 -2.8981E+03   1.5942E+05  0.000E+00  0.000E+00  0.000E+00  3.93835E+01  1.903E-01  2.000E+01  2.000E+04 -1.449E-01
   1   14   21     1    21    1.5942E+05 -3.3875E+03   1.6281E+05  0.000E+00  0.000E+00  0.000E+00  3.89085E+01  1.926E-01  2.000E+01  2.000E+04 -1.694E-01
   1   14   22     1    22    1.6281E+05  4.6622E+03   1.5815E+05  0.000E+00  0.000E+00  0.000E+00  3.84308E+01  1.921E-01  2.000E+01  2.000E+04  2.331E-01
   1    9   30     2     1    5.0000E+04 -1.6919E+03   5.1692E+04  0.000E+00  0.000E+00  0.000E+00  4.02420E+01  1.170E-01  2.000E+01  2.000E+04 -8.459E-02
   1    9   29     2     2    5.1692E+04 -1.8811E+03   5.3573E+04  0.000E+00  0.000E+00  0.000E+00  3.99945E+01  1.195E-01  2.000E+01  2.000E+04 -9.405E-02
   1    9   28     2     3    5.3573E+04 -1.8215E+03   5.5394E+04  0.000E+00  0.000E+00  0.000E+00  3.97470E+01  1.220E-01  2.000E+01  2.000E+04 -9.108E-02
   1    9   27     2     4    5.5394E+04 -1.7544E+03   5.7149E+04  0.000E+00  0.000E+00  0.000E+00  3.94994E+01  1.244E-01  2.000E+01  2.000E+04 -8.772E-02
   1   10   26     2     5    5.7149E+04 -1.3832E+03   5.8532E+04  0.000E+00  0.000E+00  0.000E+00  3.92514E+01  1.264E-01  2.000E+01  2.000E+04 -6.916E-02
   1   11   25     2     6    5.8532E+04 -1.0623E+03   5.9594E+04  0.000E+00  0.000E+00  0.000E+00  3.90030E+01  1.280E-01  2.000E+01  2.000E+04 -5.312E-02
   1   12   24     2     7    5.9594E+04 -2.1360E+02   5.9808E+04  0.000E+00  0.000E+00  0.000E+00  3.87539E+01  1.289E-01  2.000E+01  2.000E+04 -1.068E-02
   1   13   23     2     8    5.9808E+04 -2.0166E+02   6.0010E+04  0.000E+00  0.000E+00  0.000E+00  3.85041E+01  1.291E-01  2.000E+01  2.000E+04 -1.008E-02
   1   14   22     2     9    6.0010E+04  1.1180E+03   5.8892E+04  0.000E+00  0.000E+00  0.000E+00  3.82535E+01  1.285E-01  2.000E+01  2.000E+04  5.590E-02
   1   14   22     3     1    2.1704E+05 -8.9730E+03   2.2601E+05  0.000E+00  0.000E+00  0.000E+00  3.77490E+01  1.934E-01  2.000E+01  2.000E+04 -4.486E-01
   1   15   23     3     2    2.2601E+05 -1.0539E+03   2.2707E+05  0.000E+00  0.000E+00  0.000E+00  3.68627E+01  1.961E-01  2.000E+01  2.000E+04 -5.269E-02
   1   15   24     3     3    2.2707E+05 -6.6415E+02   2.2773E+05  0.000E+00  0.000E+00  0.000E+00  3.59743E+01  1.965E-01  2.000E+01  2.000E+04 -3.321E-02
   1   15   25     3     4    2.2773E+05 -6.7008E+02   2.2840E+05  0.000E+00  0.000E+00  0.000E+00  3.50857E+01  1.969E-01  2.000E+01  2.000E+04 -3.350E-02
   1   15   26     3     5    2.2840E+05 -7.7126E+02   2.2917E+05  0.000E+00  0.000E+00  0.000E+00  3.41972E+01  1.972E-01  2.000E+01  2.000E+04 -3.856E-02
   1   16   27     3     6    2.2917E+05 -8.9774E+02   2.3007E+05  0.000E+00  0.000E+00  0.000E+00  3.33088E+01  1.977E-01  2.000E+01  2.000E+04 -4.489E-02
   1   17   28     3     7    2.3007E+05 -3.2543E+03   2.3333E+05  0.000E+00  0.000E+00  0.000E+00  3.24209E+01  1.987E-01  2.000E+01  2.000E+04 -1.627E-01
   1   18   29     3     8    2.3333E+05 -5.0565E+03   2.3838E+05  0.000E+00  0.000E+00  0.000E+00  3.15342E+01  2.009E-01  2.000E+01  2.000E+04 -2.528E-01
   1   18   30     3     9    2.3838E+05 -4.6840E+03   2.4307E+05  0.000E+00  0.000E+00  0.000E+00  3.06478E+01  2.033E-01  2.000E+01  2.000E+04 -2.342E-01



1
              HEAD IN LAYER   1 AT END OF TIME STEP   1 IN STRESS PERIOD    2
  ---------------------------------------------------------------------------

          1      2      3      4      5      6      7      8      9     10
         11     12     13     14     15     16     17     18     19     20
         21     22     23     24     25     26     27     28     29     30
 .........................................................................
   1  ****** ****** ****** ****** ****** ****** ****** ****** ****** ******
      ****** ****** ****** ****** ****** ****** ****** ****** ****** ******
      ****** ****** ****** ****** ****** ****** ****** ****** ****** ******
   2  ****** ****** ****** ****** ****** ****** ****** ****** ****** ******
      ****** ****** ****** ****** ****** ****** ****** ****** ****** ******
      ****** ****** ****** ****** ****** ****** ****** ****** ****** ******
   3  ****** ****** ****** ****** ****** ****** ****** ****** ****** ******
      ****** ****** ****** ****** ****** ****** ****** ****** ****** ******
      ****** ****** ****** ****** ****** ****** ****** ****** ****** ******
   4  ****** ****** ****** ****** ****** ****** ****** ****** ****** ******
      ****** ****** ****** ****** ****** ****** ****** ****** ****** ******
      ****** ****** ****** ****** ****** ****** ****** ****** ****** ******
   5  ****** ****** ****** ****** ****** ****** ****** ****** ****** ******
      ****** ****** ****** ****** ****** ****** ****** ****** ****** ******
      ****** ****** ****** ****** ****** ****** ****** ****** ****** ******
   6  ****** ****** ****** ****** ****** ****** ****** ****** ****** ******
      ****** ****** ****** ****** ****** ****** ****** ****** ****** ******
      ****** ****** ****** ****** ****** ****** ****** ****** ****** ******
   7  ****** ****** ****** ****** ****** ****** ****** ****** ****** ******
      ****** ****** ****** ****** ****** ****** ****** ****** ****** ******
      ****** ****** ****** ****** ****** ****** ****** ****** ****** ******
   8  ****** ****** ****** ****** ****** ****** ****** ****** ****** ******
      ****** ****** ****** ****** ****** ****** ****** ****** ****** ******
      ****** ****** ****** ****** ****** ****** ****** ****** ****** ******
   9  ****** ****** ****** ****** ****** ****** ****** ****** ****** ******
      ****** ****** ****** ****** ****** ****** ****** ****** ****** ******
      ****** ****** ****** ****** ****** ****** ****** ****** ****** ******
  10  ****** ****** ****** ****** ****** ****** ****** ****** ****** ******
      ****** ****** ****** ****** ****** ****** ****** ****** ****** ******
      ****** ****** ****** ****** ****** ****** ****** ****** ****** ******
  11  ****** ****** ****** ****** ****** ****** ****** ****** ****** ******
      ****** ****** ****** ****** ****** ****** ****** ****** ****** ******
      ****** ****** ****** ****** ****** ****** ****** ****** ****** ******
  12  ****** ****** ****** ****** ****** ****** ****** ****** ****** ******
      ****** ****** ****** ****** ****** ****** ****** ****** ****** ******
      ****** ****** ****** ****** ****** ****** ****** ****** ****** ******
  13  ****** ****** ****** ****** ****** ****** ****** ****** ****** ******
      ****** ****** ****** ****** ****** ****** ****** ****** ****** ******
      ****** ****** ****** ****** ****** ****** ****** ****** ****** ******
  14  ****** ****** ****** ****** ****** ****** ****** ****** ****** ******
      ****** ****** ****** ****** ****** ****** ****** ****** ****** ******
      ****** ****** ****** ****** ****** ****** ****** ****** ****** ******
  15  ****** ****** ****** ****** ****** ****** ****** ****** ****** ******
      ****** ****** ****** ****** ****** ****** ****** ****** ****** ******
      ****** ****** ****** ****** ****** ****** ****** ****** ****** ******
  16  ****** ****** ****** ****** ****** ****** ****** ****** ****** ******
      ****** ****** ****** ****** ****** ****** ****** ****** ****** ******
      ****** ****** ****** ****** ****** ****** ****** ****** ****** ******
  17  ****** ****** ****** ****** ****** ****** ****** ****** ****** ******
      ****** ****** ****** ****** ****** ****** ****** ****** ****** ******
      ****** ****** ****** ****** ****** ****** ****** ****** ****** ******
  18  ****** ****** ****** ****** ****** ****** ****** ****** ****** ******
      ****** ****** ****** ****** ****** ****** ****** ****** ****** ******
      ****** ****** ****** ****** ****** ****** ****** ****** ****** ******
  19  ****** ****** ****** ****** ****** ****** ****** ****** ****** ******
      ****** ****** ****** ****** ****** ****** ****** ****** ****** ******
      ****** ****** ****** ****** ****** ****** ****** ****** ****** ******
  20  ****** ****** ****** ****** ****** ****** ****** ****** ****** ******
      ****** ****** ****** ****** ****** ****** ****** ****** ****** ******
      ****** ****** ****** ****** ****** ****** ****** ****** ****** ******
  21  ****** ****** ****** ****** ****** ****** ****** ****** ****** ******
      ****** ****** ****** ****** ****** ****** ****** ****** ****** ******
      ****** ****** ****** ****** ****** ****** ****** ****** ****** ******
  22  ****** ****** ****** ****** ****** ****** ****** ****** ****** ******
      ****** ****** ****** ****** ****** ****** ****** ****** ****** ******
      ****** ****** ****** ****** ****** ****** ****** ****** ****** ******
  23  ****** ****** ****** ****** ****** ****** ****** ****** ****** ******
      ****** ****** ****** ****** ****** ****** ****** ****** ****** ******
      ****** ****** ****** ****** ****** ****** ****** ****** ****** ******
  24  ****** ****** ****** ****** ****** ****** ****** ****** ****** ******
      ****** ****** ****** ****** ****** ****** ****** ****** ****** ******
      ****** ****** ****** ****** ****** ****** ****** ****** ****** ******
  25  ****** ****** ****** ****** ****** ****** ****** ****** ****** ******
      ****** ****** ****** ****** ****** ****** ****** ****** ****** ******
      ****** ****** ****** ****** ****** ****** ****** ****** ****** ******

 HEAD WILL BE SAVED ON UNIT   51 AT END OF TIME STEP    1, STRESS PERIOD    2
1
  VOLUMETRIC BUDGET FOR ENTIRE MODEL AT END OF TIME STEP    1, STRESS PERIOD   2
  ------------------------------------------------------------------------------

     CUMULATIVE VOLUMES      L**3       RATES FOR THIS TIME STEP      L**3/T
     ------------------                 ------------------------

           IN:                                      IN:
           ---                                      ---
             STORAGE =    22637471.2146               STORAGE =       53664.2178
       CONSTANT HEAD =     2709801.2874         CONSTANT HEAD =       17092.2266
               WELLS =           0.0000                 WELLS =           0.0000
            RECHARGE =     6292800.0000              RECHARGE =       55200.0000
      STREAM LEAKAGE =      901348.8817        STREAM LEAKAGE =        5780.1752

            TOTAL IN =    32541421.3838              TOTAL IN =      131736.6197

          OUT:                                     OUT:
          ----                                     ----
             STORAGE =           0.0000               STORAGE =           0.0000
       CONSTANT HEAD =           0.0000         CONSTANT HEAD =           0.0000
               WELLS =     6019010.1606                 WELLS =       32890.7659
            RECHARGE =           0.0000              RECHARGE =           0.0000
      STREAM LEAKAGE =    26522412.5109        STREAM LEAKAGE =       98845.8646

           TOTAL OUT =    32541422.6715             TOTAL OUT =      131736.6305

            IN - OUT =          -1.2877              IN - OUT =      -1.0871E-02

 PERCENT DISCREPANCY =          -0.00     PERCENT DISCREPANCY =          -0.00






         TIME SUMMARY AT END OF TIME STEP    1 IN STRESS PERIOD    2
                    SECONDS     MINUTES      HOURS       DAYS        YEARS
                    -----------------------------------------------------------
   TIME STEP LENGTH 7.86240E+06 1.31040E+05  2184.0      91.000     0.24914    
 STRESS PERIOD TIME 7.86240E+06 1.31040E+05  2184.0      91.000     0.24914    
         TOTAL TIME 1.58112E+07 2.63520E+05  4392.0      183.00     0.50103    
1
1
                            STRESS PERIOD NO.    3, LENGTH =   91.00000    
                            -----------------------------------------------

                              NUMBER OF TIME STEPS =     1

                               MULTIPLIER FOR DELT =     1.500

                            INITIAL TIME STEP SIZE =   91.00000    

 WELL NO.  LAYER   ROW   COL   STRESS RATE         
 --------------------------------------------------
      1      1     14      6       0.000    
      2      1      3      9       0.000    
      3      1     20     10       0.000    
      4      1     14     20       0.000    
      5      1      8     26      -8223.    
      6      1     11     23      -7775.    
      7      1      7     20      -8549.    
      8      1     17      2      -8344.    

      8 WELLS

                 RECHARGE =   0.00000    

 REUSING STREAM SEGMENT DATA FROM LAST STRESS PERIOD
 
 SOLVING FOR HEAD 


     7 CALLS TO PCG ROUTINE FOR TIME STEP   1 IN STRESS PERIOD    3
    27 TOTAL ITERATIONS

 OUTPUT CONTROL FOR STRESS PERIOD    3   TIME STEP    1
    SAVE BUDGET
    SAVE HEAD FOR ALL LAYERS
    PRINT HEAD FOR ALL LAYERS
 UBDSV2 SAVING "STREAMFLOW OUT  " ON UNIT  50 AT TIME STEP  1, STRESS PERIOD   3



 STREAM LISTING     PERIOD      3   STEP        1

 LAYER ROW COL. STREAM  RCH.  FLOW INTO     FLOW TO   FLOW OUT OF   OVRLND.     DIRECT     STREAM       STREAM     STREAM     STREAM   STREAMBED  STREAMBED
                SEG.NO.  NO.  STRM. RCH.    AQUIFER    STRM. RCH.    RUNOFF     PRECIP       ET          HEAD       DEPTH      WIDTH   CONDCTNC.   GRADIENT

   1   13    1     1     1    1.0000E+05 -1.6626E+03   1.0166E+05  0.000E+00  0.000E+00  0.000E+00  4.84067E+01  1.454E-01  2.000E+01  2.000E+04 -8.313E-02
   1   13    2     1     2    1.0166E+05 -2.8178E+03   1.0448E+05  0.000E+00  0.000E+00  0.000E+00  4.79314E+01  1.473E-01  2.000E+01  2.000E+04 -1.409E-01
   1   14    3     1     3    1.0448E+05 -2.9904E+02   1.0478E+05  0.000E+00  0.000E+00  0.000E+00  4.74555E+01  1.486E-01  2.000E+01  2.000E+04 -1.495E-02
   1   15    4     1     4    1.0478E+05 -2.0116E+02   1.0498E+05  0.000E+00  0.000E+00  0.000E+00  4.69784E+01  1.488E-01  2.000E+01  2.000E+04 -1.006E-02
   1   16    5     1     5    1.0498E+05 -1.1009E+02   1.0509E+05  0.000E+00  0.000E+00  0.000E+00  4.65013E+01  1.490E-01  2.000E+01  2.000E+04 -5.504E-03
   1   16    6     1     6    1.0509E+05 -9.2086E+02   1.0601E+05  0.000E+00  0.000E+00  0.000E+00  4.60244E+01  1.494E-01  2.000E+01  2.000E+04 -4.604E-02
   1   16    7     1     7    1.0601E+05 -1.1258E+03   1.0714E+05  0.000E+00  0.000E+00  0.000E+00  4.55480E+01  1.503E-01  2.000E+01  2.000E+04 -5.629E-02
   1   16    8     1     8    1.0714E+05 -1.2330E+03   1.0837E+05  0.000E+00  0.000E+00  0.000E+00  4.50717E+01  1.513E-01  2.000E+01  2.000E+04 -6.165E-02
   1   16    9     1     9    1.0837E+05 -1.2903E+03   1.0966E+05  0.000E+00  0.000E+00  0.000E+00  4.45955E+01  1.523E-01  2.000E+01  2.000E+04 -6.451E-02
   1   16   10     1    10    1.0966E+05 -1.3162E+03   1.1098E+05  0.000E+00  0.000E+00  0.000E+00  4.41193E+01  1.534E-01  2.000E+01  2.000E+04 -6.581E-02
   1   16   11     1    11    1.1098E+05 -1.3526E+03   1.1233E+05  0.000E+00  0.000E+00  0.000E+00  4.36432E+01  1.545E-01  2.000E+01  2.000E+04 -6.763E-02
   1   16   12     1    12    1.1233E+05 -2.4714E+03   1.1480E+05  0.000E+00  0.000E+00  0.000E+00  4.31675E+01  1.561E-01  2.000E+01  2.000E+04 -1.236E-01
   1   15   13     1    13    1.1480E+05 -2.4294E+03   1.1723E+05  0.000E+00  0.000E+00  0.000E+00  4.26922E+01  1.581E-01  2.000E+01  2.000E+04 -1.215E-01
   1   14   14     1    14    1.1723E+05 -2.7360E+03   1.1997E+05  0.000E+00  0.000E+00  0.000E+00  4.22171E+01  1.602E-01  2.000E+01  2.000E+04 -1.368E-01
   1   13   15     1    15    1.1997E+05 -2.9995E+03   1.2297E+05  0.000E+00  0.000E+00  0.000E+00  4.17421E+01  1.626E-01  2.000E+01  2.000E+04 -1.500E-01
   1   12   16     1    16    1.2297E+05 -3.4883E+03   1.2645E+05  0.000E+00  0.000E+00  0.000E+00  4.12674E+01  1.651E-01  2.000E+01  2.000E+04 -1.744E-01
   1   12   17     1    17    1.2645E+05 -2.0897E+03   1.2854E+05  0.000E+00  0.000E+00  0.000E+00  4.07924E+01  1.674E-01  2.000E+01  2.000E+04 -1.045E-01
   1   12   18     1    18    1.2854E+05 -1.7955E+03   1.3034E+05  0.000E+00  0.000E+00  0.000E+00  4.03166E+01  1.689E-01  2.000E+01  2.000E+04 -8.977E-02
   1   12   19     1    19    1.3034E+05 -1.7228E+03   1.3206E+05  0.000E+00  0.000E+00  0.000E+00  3.98407E+01  1.702E-01  2.000E+01  2.000E+04 -8.614E-02
   1   13   20     1    20    1.3206E+05 -1.4095E+03   1.3347E+05  0.000E+00  0.000E+00  0.000E+00  3.93646E+01  1.715E-01  2.000E+01  2.000E+04 -7.047E-02
   1   14   21     1    21    1.3347E+05 -1.9210E+03   1.3539E+05  0.000E+00  0.000E+00  0.000E+00  3.88887E+01  1.728E-01  2.000E+01  2.000E+04 -9.605E-02
   1   14   22     1    22    1.3539E+05  5.0282E+03   1.3036E+05  0.000E+00  0.000E+00  0.000E+00  3.84102E+01  1.716E-01  2.000E+01  2.000E+04  2.514E-01
   1    9   30     2     1    5.0000E+04 -4.3292E+02   5.0433E+04  0.000E+00  0.000E+00  0.000E+00  4.02412E+01  1.162E-01  2.000E+01  2.000E+04 -2.165E-02
   1    9   29     2     2    5.0433E+04 -6.2018E+02   5.1053E+04  0.000E+00  0.000E+00  0.000E+00  3.99919E+01  1.169E-01  2.000E+01  2.000E+04 -3.101E-02
   1    9   28     2     3    5.1053E+04 -5.3774E+02   5.1591E+04  0.000E+00  0.000E+00  0.000E+00  3.97427E+01  1.177E-01  2.000E+01  2.000E+04 -2.689E-02
   1    9   27     2     4    5.1591E+04  1.2923E+02   5.1462E+04  0.000E+00  0.000E+00  0.000E+00  3.94930E+01  1.180E-01  2.000E+01  2.000E+04  6.461E-03
   1   10   26     2     5    5.1462E+04  3.5026E+02   5.1111E+04  0.000E+00  0.000E+00  0.000E+00  3.92426E+01  1.176E-01  2.000E+01  2.000E+04  1.751E-02
   1   11   25     2     6    5.1111E+04  5.4553E+02   5.0566E+04  0.000E+00  0.000E+00  0.000E+00  3.89920E+01  1.170E-01  2.000E+01  2.000E+04  2.728E-02
   1   12   24     2     7    5.0566E+04  1.2271E+03   4.9339E+04  0.000E+00  0.000E+00  0.000E+00  3.87408E+01  1.158E-01  2.000E+01  2.000E+04  6.136E-02
   1   13   23     2     8    4.9339E+04  1.4678E+02   4.9192E+04  0.000E+00  0.000E+00  0.000E+00  3.84898E+01  1.148E-01  2.000E+01  2.000E+04  7.339E-03
   1   14   22     2     9    4.9192E+04  1.5968E+03   4.7595E+04  0.000E+00  0.000E+00  0.000E+00  3.82386E+01  1.136E-01  2.000E+01  2.000E+04  7.984E-02
   1   14   22     3     1    1.7796E+05 -8.6229E+03   1.8658E+05  0.000E+00  0.000E+00  0.000E+00  3.77276E+01  1.721E-01  2.000E+01  2.000E+04 -4.311E-01
   1   15   23     3     2    1.8658E+05 -6.6764E+02   1.8725E+05  0.000E+00  0.000E+00  0.000E+00  3.68414E+01  1.747E-01  2.000E+01  2.000E+04 -3.338E-02
   1   15   24     3     3    1.8725E+05 -3.4397E+02   1.8759E+05  0.000E+00  0.000E+00  0.000E+00  3.59528E+01  1.750E-01  2.000E+01  2.000E+04 -1.720E-02
   1   15   25     3     4    1.8759E+05 -3.3274E+02   1.8793E+05  0.000E+00  0.000E+00  0.000E+00  3.50641E+01  1.752E-01  2.000E+01  2.000E+04 -1.664E-02
   1   15   26     3     5    1.8793E+05 -3.6835E+02   1.8830E+05  0.000E+00  0.000E+00  0.000E+00  3.41754E+01  1.754E-01  2.000E+01  2.000E+04 -1.842E-02
   1   16   27     3     6    1.8830E+05 -4.3397E+02   1.8873E+05  0.000E+00  0.000E+00  0.000E+00  3.32867E+01  1.756E-01  2.000E+01  2.000E+04 -2.170E-02
   1   17   28     3     7    1.8873E+05 -1.8484E+03   1.9058E+05  0.000E+00  0.000E+00  0.000E+00  3.23985E+01  1.762E-01  2.000E+01  2.000E+04 -9.242E-02
   1   18   29     3     8    1.9058E+05 -3.5530E+03   1.9413E+05  0.000E+00  0.000E+00  0.000E+00  3.15111E+01  1.777E-01  2.000E+01  2.000E+04 -1.776E-01
   1   18   30     3     9    1.9413E+05 -3.5555E+03   1.9769E+05  0.000E+00  0.000E+00  0.000E+00  3.06241E+01  1.797E-01  2.000E+01  2.000E+04 -1.778E-01



1
              HEAD IN LAYER   1 AT END OF TIME STEP   1 IN STRESS PERIOD    3
  ---------------------------------------------------------------------------

          1      2      3      4      5      6      7      8      9     10
         11     12     13     14     15     16     17     18     19     20
         21     22     23     24     25     26     27     28     29     30
 .........................................................................
   1  ****** ****** ****** ****** ****** ****** ****** ****** ****** ******
      ****** ****** ****** ****** ****** ****** ****** ****** ****** ******
      ****** ****** ****** ****** ****** ****** ****** ****** ****** ******
   2  ****** ****** ****** ****** ****** ****** ****** ****** ****** ******
      ****** ****** ****** ****** ****** ****** ****** ****** ****** ******
      ****** ****** ****** ****** ****** ****** ****** ****** ****** ******
   3  ****** ****** ****** ****** ****** ****** ****** ****** ****** ******
      ****** ****** ****** ****** ****** ****** ****** ****** ****** ******
      ****** ****** ****** ****** ****** ****** ****** ****** ****** ******
   4  ****** ****** ****** ****** ****** ****** ****** ****** ****** ******
      ****** ****** ****** ****** ****** ****** ****** ****** ****** ******
      ****** ****** ****** ****** ****** ****** ****** ****** ****** ******
   5  ****** ****** ****** ****** ****** ****** ****** ****** ****** ******
      ****** ****** ****** ****** ****** ****** ****** ****** ****** ******
      ****** ****** ****** ****** ****** ****** ****** ****** ****** ******
   6  ****** ****** ****** ****** ****** ****** ****** ****** ****** ******
      ****** ****** ****** ****** ****** ****** ****** ****** ****** ******
      ****** ****** ****** ****** ****** ****** ****** ****** ****** ******
   7  ****** ****** ****** ****** ****** ****** ****** ****** ****** ******
      ****** ****** ****** ****** ****** ****** ****** ****** ****** ******
      ****** ****** ****** ****** ****** ****** ****** ****** ****** ******
   8  ****** ****** ****** ****** ****** ****** ****** ****** ****** ******
      ****** ****** ****** ****** ****** ****** ****** ****** ****** ******
      ****** ****** ****** ****** ****** ****** ****** ****** ****** ******
   9  ****** ****** ****** ****** ****** ****** ****** ****** ****** ******
      ****** ****** ****** ****** ****** ****** ****** ****** ****** ******
      ****** ****** ****** ****** ****** ****** ****** ****** ****** ******
  10  ****** ****** ****** ****** ****** ****** ****** ****** ****** ******
      ****** ****** ****** ****** ****** ****** ****** ****** ****** ******
      ****** ****** ****** ****** ****** ****** ****** ****** ****** ******
  11  ****** ****** ****** ****** ****** ****** ****** ****** ****** ******
      ****** ****** ****** ****** ****** ****** ****** ****** ****** ******
      ****** ****** ****** ****** ****** ****** ****** ****** ****** ******
  12  ****** ****** ****** ****** ****** ****** ****** ****** ****** ******
      ****** ****** ****** ****** ****** ****** ****** ****** ****** ******
      ****** ****** ****** ****** ****** ****** ****** ****** ****** ******
  13  ****** ****** ****** ****** ****** ****** ****** ****** ****** ******
      ****** ****** ****** ****** ****** ****** ****** ****** ****** ******
      ****** ****** ****** ****** ****** ****** ****** ****** ****** ******
  14  ****** ****** ****** ****** ****** ****** ****** ****** ****** ******
      ****** ****** ****** ****** ****** ****** ****** ****** ****** ******
      ****** ****** ****** ****** ****** ****** ****** ****** ****** ******
  15  ****** ****** ****** ****** ****** ****** ****** ****** ****** ******
      ****** ****** ****** ****** ****** ****** ****** ****** ****** ******
      ****** ****** ****** ****** ****** ****** ****** ****** ****** ******
  16  ****** ****** ****** ****** ****** ****** ****** ****** ****** ******
      ****** ****** ****** ****** ****** ****** ****** ****** ****** ******
      ****** ****** ****** ****** ****** ****** ****** ****** ****** ******
  17  ****** ****** ****** ****** ****** ****** ****** ****** ****** ******
      ****** ****** ****** ****** ****** ****** ****** ****** ****** ******
      ****** ****** ****** ****** ****** ****** ****** ****** ****** ******
  18  ****** ****** ****** ****** ****** ****** ****** ****** ****** ******
      ****** ****** ****** ****** ****** ****** ****** ****** ****** ******
      ****** ****** ****** ****** ****** ****** ****** ****** ****** ******
  19  ****** ****** ****** ****** ****** ****** ****** ****** ****** ******
      ****** ****** ****** ****** ****** ****** ****** ****** ****** ******
      ****** ****** ****** ****** ****** ****** ****** ****** ****** ******
  20  ****** ****** ****** ****** ****** ****** ****** ****** ****** ******
      ****** ****** ****** ****** ****** ****** ****** ****** ****** ******
      ****** ****** ****** ****** ****** ****** ****** ****** ****** ******
  21  ****** ****** ****** ****** ****** ****** ****** ****** ****** ******
      ****** ****** ****** ****** ****** ****** ****** ****** ****** ******
      ****** ****** ****** ****** ****** ****** ****** ****** ****** ******
  22  ****** ****** ****** ****** ****** ****** ****** ****** ****** ******
      ****** ****** ****** ****** ****** ****** ****** ****** ****** ******
      ****** ****** ****** ****** ****** ****** ****** ****** ****** ******
  23  ****** ****** ****** ****** ****** ****** ****** ****** ****** ******
      ****** ****** ****** ****** ****** ****** ****** ****** ****** ******
      ****** ****** ****** ****** ****** ****** ****** ****** ****** ******
  24  ****** ****** ****** ****** ****** ****** ****** ****** ****** ******
      ****** ****** ****** ****** ****** ****** ****** ****** ****** ******
      ****** ****** ****** ****** ****** ****** ****** ****** ****** ******
  25  ****** ****** ****** ****** ****** ****** ****** ****** ****** ******
      ****** ****** ****** ****** ****** ****** ****** ****** ****** ******
      ****** ****** ****** ****** ****** ****** ****** ****** ****** ******

 HEAD WILL BE SAVED ON UNIT   51 AT END OF TIME STEP    1, STRESS PERIOD    3
1
  VOLUMETRIC BUDGET FOR ENTIRE MODEL AT END OF TIME STEP    1, STRESS PERIOD   3
  ------------------------------------------------------------------------------

     CUMULATIVE VOLUMES      L**3       RATES FOR THIS TIME STEP      L**3/T
     ------------------                 ------------------------

           IN:                                      IN:
           ---                                      ---
             STORAGE =    27634144.6771               STORAGE =       54908.4996
       CONSTANT HEAD =     5045606.3911         CONSTANT HEAD =       25668.1880
               WELLS =           0.0000                 WELLS =           0.0000
            RECHARGE =     6292800.0000              RECHARGE =           0.0000
      STREAM LEAKAGE =     1722520.9580        STREAM LEAKAGE =        9023.8690

            TOTAL IN =    40695072.0261              TOTAL IN =       89600.5565

          OUT:                                     OUT:
          ----                                     ----
             STORAGE =           0.0000               STORAGE =           0.0000
       CONSTANT HEAD =           0.0000         CONSTANT HEAD =           0.0000
               WELLS =     9012069.8580                 WELLS =       32890.7659
            RECHARGE =           0.0000              RECHARGE =           0.0000
      STREAM LEAKAGE =    31683004.1893        STREAM LEAKAGE =       56709.7987

           TOTAL OUT =    40695074.0473             TOTAL OUT =       89600.5646

            IN - OUT =          -2.0212              IN - OUT =      -8.0604E-03

 PERCENT DISCREPANCY =          -0.00     PERCENT DISCREPANCY =          -0.00






         TIME SUMMARY AT END OF TIME STEP    1 IN STRESS PERIOD    3
                    SECONDS     MINUTES      HOURS       DAYS        YEARS
                    -----------------------------------------------------------
   TIME STEP LENGTH 7.86240E+06 1.31040E+05  2184.0      91.000     0.24914    
 STRESS PERIOD TIME 7.86240E+06 1.31040E+05  2184.0      91.000     0.24914    
         TOTAL TIME 2.36736E+07 3.94560E+05  6576.0      274.00     0.75017    
1
1
                            STRESS PERIOD NO.    4, LENGTH =   91.00000    
                            -----------------------------------------------

                              NUMBER OF TIME STEPS =     1

                               MULTIPLIER FOR DELT =     1.500

                            INITIAL TIME STEP SIZE =   91.00000    

 WELL NO.  LAYER   ROW   COL   STRESS RATE         
 --------------------------------------------------
      1      1     14      6       0.000    
      2      1      3      9       0.000    
      3      1     20     10       0.000    
      4      1     14     20       0.000    
      5      1      8     26      -8223.    
      6      1     11     23      -7775.    
      7      1      7     20      -8549.    
      8      1     17      2      -8344.    

      8 WELLS

                 RECHARGE =  1.000000E-03

 REUSING STREAM SEGMENT DATA FROM LAST STRESS PERIOD
 
 SOLVING FOR HEAD 


     6 CALLS TO PCG ROUTINE FOR TIME STEP   1 IN STRESS PERIOD    4
    23 TOTAL ITERATIONS

 OUTPUT CONTROL FOR STRESS PERIOD    4   TIME STEP    1
    SAVE BUDGET
    SAVE HEAD FOR ALL LAYERS
    PRINT HEAD FOR ALL LAYERS
 UBDSV2 SAVING "STREAMFLOW OUT  " ON UNIT  50 AT TIME STEP  1, STRESS PERIOD   4



 STREAM LISTING     PERIOD      4   STEP        1

 LAYER ROW COL. STREAM  RCH.  FLOW INTO     FLOW TO   FLOW OUT OF   OVRLND.     DIRECT     STREAM       STREAM     STREAM     STREAM   STREAMBED  STREAMBED
                SEG.NO.  NO.  STRM. RCH.    AQUIFER    STRM. RCH.    RUNOFF     PRECIP       ET          HEAD       DEPTH      WIDTH   CONDCTNC.   GRADIENT

   1   13    1     1     1    1.0000E+05 -1.4043E+03   1.0140E+05  0.000E+00  0.000E+00  0.000E+00  4.84066E+01  1.453E-01  2.000E+01  2.000E+04 -7.021E-02
   1   13    2     1     2    1.0140E+05 -2.5228E+03   1.0393E+05  0.000E+00  0.000E+00  0.000E+00  4.79310E+01  1.470E-01  2.000E+01  2.000E+04 -1.261E-01
   1   14    3     1     3    1.0393E+05 -2.6274E+02   1.0419E+05  0.000E+00  0.000E+00  0.000E+00  4.74550E+01  1.481E-01  2.000E+01  2.000E+04 -1.314E-02
   1   15    4     1     4    1.0419E+05 -1.5231E+02   1.0434E+05  0.000E+00  0.000E+00  0.000E+00  4.69779E+01  1.483E-01  2.000E+01  2.000E+04 -7.615E-03
   1   16    5     1     5    1.0434E+05  2.6064E+02   1.0408E+05  0.000E+00  0.000E+00  0.000E+00  4.65005E+01  1.483E-01  2.000E+01  2.000E+04  1.303E-02
   1   16    6     1     6    1.0408E+05 -7.4588E+02   1.0483E+05  0.000E+00  0.000E+00  0.000E+00  4.60235E+01  1.485E-01  2.000E+01  2.000E+04 -3.729E-02
   1   16    7     1     7    1.0483E+05 -9.6913E+02   1.0580E+05  0.000E+00  0.000E+00  0.000E+00  4.55469E+01  1.492E-01  2.000E+01  2.000E+04 -4.846E-02
   1   16    8     1     8    1.0580E+05 -1.0854E+03   1.0688E+05  0.000E+00  0.000E+00  0.000E+00  4.50705E+01  1.501E-01  2.000E+01  2.000E+04 -5.427E-02
   1   16    9     1     9    1.0688E+05 -1.1495E+03   1.0803E+05  0.000E+00  0.000E+00  0.000E+00  4.45942E+01  1.510E-01  2.000E+01  2.000E+04 -5.748E-02
   1   16   10     1    10    1.0803E+05 -1.1825E+03   1.0921E+05  0.000E+00  0.000E+00  0.000E+00  4.41179E+01  1.520E-01  2.000E+01  2.000E+04 -5.913E-02
   1   16   11     1    11    1.0921E+05 -1.2225E+03   1.1044E+05  0.000E+00  0.000E+00  0.000E+00  4.36417E+01  1.530E-01  2.000E+01  2.000E+04 -6.113E-02
   1   16   12     1    12    1.1044E+05 -2.2080E+03   1.1264E+05  0.000E+00  0.000E+00  0.000E+00  4.31658E+01  1.544E-01  2.000E+01  2.000E+04 -1.104E-01
   1   15   13     1    13    1.1264E+05 -2.1863E+03   1.1483E+05  0.000E+00  0.000E+00  0.000E+00  4.26904E+01  1.563E-01  2.000E+01  2.000E+04 -1.093E-01
   1   14   14     1    14    1.1483E+05 -2.4681E+03   1.1730E+05  0.000E+00  0.000E+00  0.000E+00  4.22150E+01  1.582E-01  2.000E+01  2.000E+04 -1.234E-01
   1   13   15     1    15    1.1730E+05 -2.7003E+03   1.2000E+05  0.000E+00  0.000E+00  0.000E+00  4.17398E+01  1.603E-01  2.000E+01  2.000E+04 -1.350E-01
   1   12   16     1    16    1.2000E+05 -3.0756E+03   1.2307E+05  0.000E+00  0.000E+00  0.000E+00  4.12649E+01  1.626E-01  2.000E+01  2.000E+04 -1.538E-01
   1   12   17     1    17    1.2307E+05 -1.8419E+03   1.2492E+05  0.000E+00  0.000E+00  0.000E+00  4.07896E+01  1.646E-01  2.000E+01  2.000E+04 -9.209E-02
   1   12   18     1    18    1.2492E+05 -1.5628E+03   1.2648E+05  0.000E+00  0.000E+00  0.000E+00  4.03137E+01  1.659E-01  2.000E+01  2.000E+04 -7.814E-02
   1   12   19     1    19    1.2648E+05 -1.4232E+03   1.2790E+05  0.000E+00  0.000E+00  0.000E+00  3.98376E+01  1.671E-01  2.000E+01  2.000E+04 -7.116E-02
   1   13   20     1    20    1.2790E+05 -1.2307E+03   1.2913E+05  0.000E+00  0.000E+00  0.000E+00  3.93613E+01  1.682E-01  2.000E+01  2.000E+04 -6.153E-02
   1   14   21     1    21    1.2913E+05 -1.7038E+03   1.3084E+05  0.000E+00  0.000E+00  0.000E+00  3.88852E+01  1.693E-01  2.000E+01  2.000E+04 -8.519E-02
   1   14   22     1    22    1.3084E+05  5.0632E+03   1.2577E+05  0.000E+00  0.000E+00  0.000E+00  3.84066E+01  1.680E-01  2.000E+01  2.000E+04  2.532E-01
   1    9   30     2     1    5.0000E+04 -3.1921E+02   5.0319E+04  0.000E+00  0.000E+00  0.000E+00  4.02411E+01  1.161E-01  2.000E+01  2.000E+04 -1.596E-02
   1    9   29     2     2    5.0319E+04 -4.9819E+02   5.0817E+04  0.000E+00  0.000E+00  0.000E+00  3.99917E+01  1.167E-01  2.000E+01  2.000E+04 -2.491E-02
   1    9   28     2     3    5.0817E+04 -3.9202E+02   5.1209E+04  0.000E+00  0.000E+00  0.000E+00  3.97423E+01  1.173E-01  2.000E+01  2.000E+04 -1.960E-02
   1    9   27     2     4    5.1209E+04  4.5166E+02   5.0758E+04  0.000E+00  0.000E+00  0.000E+00  3.94922E+01  1.172E-01  2.000E+01  2.000E+04  2.258E-02
   1   10   26     2     5    5.0758E+04  5.4631E+02   5.0211E+04  0.000E+00  0.000E+00  0.000E+00  3.92415E+01  1.165E-01  2.000E+01  2.000E+04  2.732E-02
   1   11   25     2     6    5.0211E+04  6.9501E+02   4.9516E+04  0.000E+00  0.000E+00  0.000E+00  3.89907E+01  1.157E-01  2.000E+01  2.000E+04  3.475E-02
   1   12   24     2     7    4.9516E+04  1.3563E+03   4.8160E+04  0.000E+00  0.000E+00  0.000E+00  3.87392E+01  1.142E-01  2.000E+01  2.000E+04  6.781E-02
   1   13   23     2     8    4.8160E+04  1.2573E+02   4.8034E+04  0.000E+00  0.000E+00  0.000E+00  3.84882E+01  1.132E-01  2.000E+01  2.000E+04  6.286E-03
   1   14   22     2     9    4.8034E+04  1.6693E+03   4.6365E+04  0.000E+00  0.000E+00  0.000E+00  3.82369E+01  1.119E-01  2.000E+01  2.000E+04  8.347E-02
   1   14   22     3     1    1.7214E+05 -8.5831E+03   1.8072E+05  0.000E+00  0.000E+00  0.000E+00  3.77243E+01  1.688E-01  2.000E+01  2.000E+04 -4.292E-01
   1   15   23     3     2    1.8072E+05 -6.4861E+02   1.8137E+05  0.000E+00  0.000E+00  0.000E+00  3.68381E+01  1.714E-01  2.000E+01  2.000E+04 -3.243E-02
   1   15   24     3     3    1.8137E+05 -3.4546E+02   1.8172E+05  0.000E+00  0.000E+00  0.000E+00  3.59494E+01  1.717E-01  2.000E+01  2.000E+04 -1.727E-02
   1   15   25     3     4    1.8172E+05 -3.3370E+02   1.8205E+05  0.000E+00  0.000E+00  0.000E+00  3.50607E+01  1.719E-01  2.000E+01  2.000E+04 -1.668E-02
   1   15   26     3     5    1.8205E+05 -3.7847E+02   1.8243E+05  0.000E+00  0.000E+00  0.000E+00  3.41721E+01  1.721E-01  2.000E+01  2.000E+04 -1.892E-02
   1   16   27     3     6    1.8243E+05 -4.3623E+02   1.8286E+05  0.000E+00  0.000E+00  0.000E+00  3.32834E+01  1.723E-01  2.000E+01  2.000E+04 -2.181E-02
   1   17   28     3     7    1.8286E+05 -1.7919E+03   1.8466E+05  0.000E+00  0.000E+00  0.000E+00  3.23951E+01  1.729E-01  2.000E+01  2.000E+04 -8.959E-02
   1   18   29     3     8    1.8466E+05 -3.3509E+03   1.8801E+05  0.000E+00  0.000E+00  0.000E+00  3.15077E+01  1.744E-01  2.000E+01  2.000E+04 -1.675E-01
   1   18   30     3     9    1.8801E+05 -3.4568E+03   1.9146E+05  0.000E+00  0.000E+00  0.000E+00  3.06207E+01  1.763E-01  2.000E+01  2.000E+04 -1.728E-01



1
              HEAD IN LAYER   1 AT END OF TIME STEP   1 IN STRESS PERIOD    4
  ---------------------------------------------------------------------------

          1      2      3      4      5      6      7      8      9     10
         11     12     13     14     15     16     17     18     19     20
         21     22     23     24     25     26     27     28     29     30
 .........................................................................
   1  ****** ****** ****** ****** ****** ****** ****** ****** ****** ******
      ****** ****** ****** ****** ****** ****** ****** ****** ****** ******
      ****** ****** ****** ****** ****** ****** ****** ****** ****** ******
   2  ****** ****** ****** ****** ****** ****** ****** ****** ****** ******
      ****** ****** ****** ****** ****** ****** ****** ****** ****** ******
      ****** ****** ****** ****** ****** ****** ****** ****** ****** ******
   3  ****** ****** ****** ****** ****** ****** ****** ****** ****** ******
      ****** ****** ****** ****** ****** ****** ****** ****** ****** ******
      ****** ****** ****** ****** ****** ****** ****** ****** ****** ******
   4  ****** ****** ****** ****** ****** ****** ****** ****** ****** ******
      ****** ****** ****** ****** ****** ****** ****** ****** ****** ******
      ****** ****** ****** ****** ****** ****** ****** ****** ****** ******
   5  ****** ****** ****** ****** ****** ****** ****** ****** ****** ******
      ****** ****** ****** ****** ****** ****** ****** ****** ****** ******
      ****** ****** ****** ****** ****** ****** ****** ****** ****** ******
   6  ****** ****** ****** ****** ****** ****** ****** ****** ****** ******
      ****** ****** ****** ****** ****** ****** ****** ****** ****** ******
      ****** ****** ****** ****** ****** ****** ****** ****** ****** ******
   7  ****** ****** ****** ****** ****** ****** ****** ****** ****** ******
      ****** ****** ****** ****** ****** ****** ****** ****** ****** ******
      ****** ****** ****** ****** ****** ****** ****** ****** ****** ******
   8  ****** ****** ****** ****** ****** ****** ****** ****** ****** ******
      ****** ****** ****** ****** ****** ****** ****** ****** ****** ******
      ****** ****** ****** ****** ****** ****** ****** ****** ****** ******
   9  ****** ****** ****** ****** ****** ****** ****** ****** ****** ******
      ****** ****** ****** ****** ****** ****** ****** ****** ****** ******
      ****** ****** ****** ****** ****** ****** ****** ****** ****** ******
  10  ****** ****** ****** ****** ****** ****** ****** ****** ****** ******
      ****** ****** ****** ****** ****** ****** ****** ****** ****** ******
      ****** ****** ****** ****** ****** ****** ****** ****** ****** ******
  11  ****** ****** ****** ****** ****** ****** ****** ****** ****** ******
      ****** ****** ****** ****** ****** ****** ****** ****** ****** ******
      ****** ****** ****** ****** ****** ****** ****** ****** ****** ******
  12  ****** ****** ****** ****** ****** ****** ****** ****** ****** ******
      ****** ****** ****** ****** ****** ****** ****** ****** ****** ******
      ****** ****** ****** ****** ****** ****** ****** ****** ****** ******
  13  ****** ****** ****** ****** ****** ****** ****** ****** ****** ******
      ****** ****** ****** ****** ****** ****** ****** ****** ****** ******
      ****** ****** ****** ****** ****** ****** ****** ****** ****** ******
  14  ****** ****** ****** ****** ****** ****** ****** ****** ****** ******
      ****** ****** ****** ****** ****** ****** ****** ****** ****** ******
      ****** ****** ****** ****** ****** ****** ****** ****** ****** ******
  15  ****** ****** ****** ****** ****** ****** ****** ****** ****** ******
      ****** ****** ****** ****** ****** ****** ****** ****** ****** ******
      ****** ****** ****** ****** ****** ****** ****** ****** ****** ******
  16  ****** ****** ****** ****** ****** ****** ****** ****** ****** ******
      ****** ****** ****** ****** ****** ****** ****** ****** ****** ******
      ****** ****** ****** ****** ****** ****** ****** ****** ****** ******
  17  ****** ****** ****** ****** ****** ****** ****** ****** ****** ******
      ****** ****** ****** ****** ****** ****** ****** ****** ****** ******
      ****** ****** ****** ****** ****** ****** ****** ****** ****** ******
  18  ****** ****** ****** ****** ****** ****** ****** ****** ****** ******
      ****** ****** ****** ****** ****** ****** ****** ****** ****** ******
      ****** ****** ****** ****** ****** ****** ****** ****** ****** ******
  19  ****** ****** ****** ****** ****** ****** ****** ****** ****** ******
      ****** ****** ****** ****** ****** ****** ****** ****** ****** ******
      ****** ****** ****** ****** ****** ****** ****** ****** ****** ******
  20  ****** ****** ****** ****** ****** ****** ****** ****** ****** ******
      ****** ****** ****** ****** ****** ****** ****** ****** ****** ******
      ****** ****** ****** ****** ****** ****** ****** ****** ****** ******
  21  ****** ****** ****** ****** ****** ****** ****** ****** ****** ******
      ****** ****** ****** ****** ****** ****** ****** ****** ****** ******
      ****** ****** ****** ****** ****** ****** ****** ****** ****** ******
  22  ****** ****** ****** ****** ****** ****** ****** ****** ****** ******
      ****** ****** ****** ****** ****** ****** ****** ****** ****** ******
      ****** ****** ****** ****** ****** ****** ****** ****** ****** ******
  23  ****** ****** ****** ****** ****** ****** ****** ****** ****** ******
      ****** ****** ****** ****** ****** ****** ****** ****** ****** ******
      ****** ****** ****** ****** ****** ****** ****** ****** ****** ******
  24  ****** ****** ****** ****** ****** ****** ****** ****** ****** ******
      ****** ****** ****** ****** ****** ****** ****** ****** ****** ******
      ****** ****** ****** ****** ****** ****** ****** ****** ****** ******
  25  ****** ****** ****** ****** ****** ****** ****** ****** ****** ******
      ****** ****** ****** ****** ****** ****** ****** ****** ****** ******
      ****** ****** ****** ****** ****** ****** ****** ****** ****** ******

 HEAD WILL BE SAVED ON UNIT   51 AT END OF TIME STEP    1, STRESS PERIOD    4
1
  VOLUMETRIC BUDGET FOR ENTIRE MODEL AT END OF TIME STEP    1, STRESS PERIOD   4
  ------------------------------------------------------------------------------

     CUMULATIVE VOLUMES      L**3       RATES FOR THIS TIME STEP      L**3/T
     ------------------                 ------------------------

           IN:                                      IN:
           ---                                      ---
             STORAGE =    29315882.3835               STORAGE =       18480.6341
       CONSTANT HEAD =     7619723.9106         CONSTANT HEAD =       28287.0057
               WELLS =           0.0000                 WELLS =           0.0000
            RECHARGE =     8804400.0000              RECHARGE =       27600.0000
      STREAM LEAKAGE =     2647823.0134        STREAM LEAKAGE =       10168.1545

            TOTAL IN =    48387829.3075              TOTAL IN =       84535.7943

          OUT:                                     OUT:
          ----                                     ----
             STORAGE =        1154.0538               STORAGE =          12.6819
       CONSTANT HEAD =           0.0000         CONSTANT HEAD =           0.0000
               WELLS =    12005129.5553                 WELLS =       32890.7659
            RECHARGE =           0.0000              RECHARGE =           0.0000
      STREAM LEAKAGE =    36381547.8007        STREAM LEAKAGE =       51632.3474

           TOTAL OUT =    48387831.4099             TOTAL OUT =       84535.7952

            IN - OUT =          -2.1023              IN - OUT =      -8.9158E-04

 PERCENT DISCREPANCY =          -0.00     PERCENT DISCREPANCY =          -0.00






         TIME SUMMARY AT END OF TIME STEP    1 IN STRESS PERIOD    4
                    SECONDS     MINUTES      HOURS       DAYS        YEARS
                    -----------------------------------------------------------
   TIME STEP LENGTH 7.86240E+06 1.31040E+05  2184.0      91.000     0.24914    
 STRESS PERIOD TIME 7.86240E+06 1.31040E+05  2184.0      91.000     0.24914    
         TOTAL TIME 3.15360E+07 5.25600E+05  8760.0      365.00     0.99932    
1
1
                            STRESS PERIOD NO.    5, LENGTH =   92.00000    
                            -----------------------------------------------

                              NUMBER OF TIME STEPS =     1

                               MULTIPLIER FOR DELT =     1.500

                            INITIAL TIME STEP SIZE =   92.00000    

 WELL NO.  LAYER   ROW   COL   STRESS RATE         
 --------------------------------------------------
      1      1     14      6       0.000    
      2      1      3      9       0.000    
      3      1     20     10       0.000    
      4      1     14     20       0.000    
      5      1      8     26      -8223.    
      6      1     11     23      -7775.    
      7      1      7     20      -8549.    
      8      1     17      2      -8344.    

      8 WELLS

                 RECHARGE =  5.000000E-04

 REUSING STREAM SEGMENT DATA FROM LAST STRESS PERIOD
 
 SOLVING FOR HEAD 


     7 CALLS TO PCG ROUTINE FOR TIME STEP   1 IN STRESS PERIOD    5
    26 TOTAL ITERATIONS

 OUTPUT CONTROL FOR STRESS PERIOD    5   TIME STEP    1
    SAVE BUDGET
    SAVE HEAD FOR ALL LAYERS
    PRINT HEAD FOR ALL LAYERS
 UBDSV2 SAVING "STREAMFLOW OUT  " ON UNIT  50 AT TIME STEP  1, STRESS PERIOD   5



 STREAM LISTING     PERIOD      5   STEP        1

 LAYER ROW COL. STREAM  RCH.  FLOW INTO     FLOW TO   FLOW OUT OF   OVRLND.     DIRECT     STREAM       STREAM     STREAM     STREAM   STREAMBED  STREAMBED
                SEG.NO.  NO.  STRM. RCH.    AQUIFER    STRM. RCH.    RUNOFF     PRECIP       ET          HEAD       DEPTH      WIDTH   CONDCTNC.   GRADIENT

   1   13    1     1     1    1.0000E+05 -9.8000E+02   1.0098E+05  0.000E+00  0.000E+00  0.000E+00  4.84064E+01  1.451E-01  2.000E+01  2.000E+04 -4.900E-02
   1   13    2     1     2    1.0098E+05 -2.0451E+03   1.0303E+05  0.000E+00  0.000E+00  0.000E+00  4.79305E+01  1.464E-01  2.000E+01  2.000E+04 -1.023E-01
   1   14    3     1     3    1.0303E+05 -1.3753E+02   1.0316E+05  0.000E+00  0.000E+00  0.000E+00  4.74541E+01  1.473E-01  2.000E+01  2.000E+04 -6.877E-03
   1   15    4     1     4    1.0316E+05 -1.9383E+01   1.0318E+05  0.000E+00  0.000E+00  0.000E+00  4.69769E+01  1.474E-01  2.000E+01  2.000E+04 -9.692E-04
   1   16    5     1     5    1.0318E+05  7.1986E+02   1.0246E+05  0.000E+00  0.000E+00  0.000E+00  4.64994E+01  1.471E-01  2.000E+01  2.000E+04  3.599E-02
   1   16    6     1     6    1.0246E+05 -4.8256E+02   1.0294E+05  0.000E+00  0.000E+00  0.000E+00  4.60220E+01  1.470E-01  2.000E+01  2.000E+04 -2.413E-02
   1   16    7     1     7    1.0294E+05 -7.1914E+02   1.0366E+05  0.000E+00  0.000E+00  0.000E+00  4.55452E+01  1.475E-01  2.000E+01  2.000E+04 -3.596E-02
   1   16    8     1     8    1.0366E+05 -8.4117E+02   1.0451E+05  0.000E+00  0.000E+00  0.000E+00  4.50686E+01  1.482E-01  2.000E+01  2.000E+04 -4.206E-02
   1   16    9     1     9    1.0451E+05 -9.1007E+02   1.0542E+05  0.000E+00  0.000E+00  0.000E+00  4.45921E+01  1.489E-01  2.000E+01  2.000E+04 -4.550E-02
   1   16   10     1    10    1.0542E+05 -9.4820E+02   1.0636E+05  0.000E+00  0.000E+00  0.000E+00  4.41156E+01  1.497E-01  2.000E+01  2.000E+04 -4.741E-02
   1   16   11     1    11    1.0636E+05 -9.8955E+02   1.0735E+05  0.000E+00  0.000E+00  0.000E+00  4.36392E+01  1.505E-01  2.000E+01  2.000E+04 -4.948E-02
   1   16   12     1    12    1.0735E+05 -1.7951E+03   1.0915E+05  0.000E+00  0.000E+00  0.000E+00  4.31631E+01  1.517E-01  2.000E+01  2.000E+04 -8.975E-02
   1   15   13     1    13    1.0915E+05 -1.7514E+03   1.1090E+05  0.000E+00  0.000E+00  0.000E+00  4.26873E+01  1.532E-01  2.000E+01  2.000E+04 -8.757E-02
   1   14   14     1    14    1.1090E+05 -2.0039E+03   1.1290E+05  0.000E+00  0.000E+00  0.000E+00  4.22116E+01  1.547E-01  2.000E+01  2.000E+04 -1.002E-01
   1   13   15     1    15    1.1290E+05 -2.2153E+03   1.1512E+05  0.000E+00  0.000E+00  0.000E+00  4.17360E+01  1.565E-01  2.000E+01  2.000E+04 -1.108E-01
   1   12   16     1    16    1.1512E+05 -2.5360E+03   1.1765E+05  0.000E+00  0.000E+00  0.000E+00  4.12607E+01  1.584E-01  2.000E+01  2.000E+04 -1.268E-01
   1   12   17     1    17    1.1765E+05 -1.4808E+03   1.1914E+05  0.000E+00  0.000E+00  0.000E+00  4.07851E+01  1.601E-01  2.000E+01  2.000E+04 -7.404E-02
   1   12   18     1    18    1.1914E+05 -1.2185E+03   1.2035E+05  0.000E+00  0.000E+00  0.000E+00  4.03089E+01  1.612E-01  2.000E+01  2.000E+04 -6.092E-02
   1   12   19     1    19    1.2035E+05 -1.0014E+03   1.2136E+05  0.000E+00  0.000E+00  0.000E+00  3.98325E+01  1.621E-01  2.000E+01  2.000E+04 -5.007E-02
   1   13   20     1    20    1.2136E+05 -8.7314E+02   1.2223E+05  0.000E+00  0.000E+00  0.000E+00  3.93560E+01  1.628E-01  2.000E+01  2.000E+04 -4.366E-02
   1   14   21     1    21    1.2223E+05 -1.3327E+03   1.2356E+05  0.000E+00  0.000E+00  0.000E+00  3.88796E+01  1.637E-01  2.000E+01  2.000E+04 -6.664E-02
   1   14   22     1    22    1.2356E+05  5.1434E+03   1.1842E+05  0.000E+00  0.000E+00  0.000E+00  3.84008E+01  1.622E-01  2.000E+01  2.000E+04  2.572E-01
   1    9   30     2     1    5.0000E+04 -7.6803E+01   5.0077E+04  0.000E+00  0.000E+00  0.000E+00  4.02409E+01  1.159E-01  2.000E+01  2.000E+04 -3.840E-03
   1    9   29     2     2    5.0077E+04 -2.5176E+02   5.0329E+04  0.000E+00  0.000E+00  0.000E+00  3.99911E+01  1.161E-01  2.000E+01  2.000E+04 -1.259E-02
   1    9   28     2     3    5.0329E+04 -1.3238E+02   5.0461E+04  0.000E+00  0.000E+00  0.000E+00  3.97414E+01  1.164E-01  2.000E+01  2.000E+04 -6.619E-03
   1    9   27     2     4    5.0461E+04  8.6410E+02   4.9597E+04  0.000E+00  0.000E+00  0.000E+00  3.94909E+01  1.159E-01  2.000E+01  2.000E+04  4.320E-02
   1   10   26     2     5    4.9597E+04  9.0248E+02   4.8694E+04  0.000E+00  0.000E+00  0.000E+00  3.92397E+01  1.147E-01  2.000E+01  2.000E+04  4.512E-02
   1   11   25     2     6    4.8694E+04  1.0204E+03   4.7674E+04  0.000E+00  0.000E+00  0.000E+00  3.89883E+01  1.133E-01  2.000E+01  2.000E+04  5.102E-02
   1   12   24     2     7    4.7674E+04  1.6533E+03   4.6021E+04  0.000E+00  0.000E+00  0.000E+00  3.87364E+01  1.114E-01  2.000E+01  2.000E+04  8.267E-02
   1   13   23     2     8    4.6021E+04  1.9602E+02   4.5825E+04  0.000E+00  0.000E+00  0.000E+00  3.84851E+01  1.101E-01  2.000E+01  2.000E+04  9.801E-03
   1   14   22     2     9    4.5825E+04  1.8004E+03   4.4024E+04  0.000E+00  0.000E+00  0.000E+00  3.82337E+01  1.087E-01  2.000E+01  2.000E+04  9.002E-02
   1   14   22     3     1    1.6244E+05 -8.4997E+03   1.7094E+05  0.000E+00  0.000E+00  0.000E+00  3.77187E+01  1.631E-01  2.000E+01  2.000E+04 -4.250E-01
   1   15   23     3     2    1.7094E+05 -5.5227E+02   1.7149E+05  0.000E+00  0.000E+00  0.000E+00  3.68324E+01  1.657E-01  2.000E+01  2.000E+04 -2.761E-02
   1   15   24     3     3    1.7149E+05 -2.7444E+02   1.7177E+05  0.000E+00  0.000E+00  0.000E+00  3.59438E+01  1.660E-01  2.000E+01  2.000E+04 -1.372E-02
   1   15   25     3     4    1.7177E+05 -2.6313E+02   1.7203E+05  0.000E+00  0.000E+00  0.000E+00  3.50550E+01  1.661E-01  2.000E+01  2.000E+04 -1.316E-02
   1   15   26     3     5    1.7203E+05 -3.0680E+02   1.7234E+05  0.000E+00  0.000E+00  0.000E+00  3.41663E+01  1.663E-01  2.000E+01  2.000E+04 -1.534E-02
   1   16   27     3     6    1.7234E+05 -3.4653E+02   1.7268E+05  0.000E+00  0.000E+00  0.000E+00  3.32776E+01  1.665E-01  2.000E+01  2.000E+04 -1.733E-02
   1   17   28     3     7    1.7268E+05 -1.5269E+03   1.7421E+05  0.000E+00  0.000E+00  0.000E+00  3.23893E+01  1.670E-01  2.000E+01  2.000E+04 -7.634E-02
   1   18   29     3     8    1.7421E+05 -2.9832E+03   1.7719E+05  0.000E+00  0.000E+00  0.000E+00  3.15017E+01  1.683E-01  2.000E+01  2.000E+04 -1.492E-01
   1   18   30     3     9    1.7719E+05 -3.2031E+03   1.8040E+05  0.000E+00  0.000E+00  0.000E+00  3.06145E+01  1.701E-01  2.000E+01  2.000E+04 -1.602E-01



1
              HEAD IN LAYER   1 AT END OF TIME STEP   1 IN STRESS PERIOD    5
  ---------------------------------------------------------------------------

          1      2      3      4      5      6      7      8      9     10
         11     12     13     14     15     16     17     18     19     20
         21     22     23     24     25     26     27     28     29     30
 .........................................................................
   1  ****** ****** ****** ****** ****** ****** ****** ****** ****** ******
      ****** ****** ****** ****** ****** ****** ****** ****** ****** ******
      ****** ****** ****** ****** ****** ****** ****** ****** ****** ******
   2  ****** ****** ****** ****** ****** ****** ****** ****** ****** ******
      ****** ****** ****** ****** ****** ****** ****** ****** ****** ******
      ****** ****** ****** ****** ****** ****** ****** ****** ****** ******
   3  ****** ****** ****** ****** ****** ****** ****** ****** ****** ******
      ****** ****** ****** ****** ****** ****** ****** ****** ****** ******
      ****** ****** ****** ****** ****** ****** ****** ****** ****** ******
   4  ****** ****** ****** ****** ****** ****** ****** ****** ****** ******
      ****** ****** ****** ****** ****** ****** ****** ****** ****** ******
      ****** ****** ****** ****** ****** ****** ****** ****** ****** ******
   5  ****** ****** ****** ****** ****** ****** ****** ****** ****** ******
      ****** ****** ****** ****** ****** ****** ****** ****** ****** ******
      ****** ****** ****** ****** ****** ****** ****** ****** ****** ******
   6  ****** ****** ****** ****** ****** ****** ****** ****** ****** ******
      ****** ****** ****** ****** ****** ****** ****** ****** ****** ******
      ****** ****** ****** ****** ****** ****** ****** ****** ****** ******
   7  ****** ****** ****** ****** ****** ****** ****** ****** ****** ******
      ****** ****** ****** ****** ****** ****** ****** ****** ****** ******
      ****** ****** ****** ****** ****** ****** ****** ****** ****** ******
   8  ****** ****** ****** ****** ****** ****** ****** ****** ****** ******
      ****** ****** ****** ****** ****** ****** ****** ****** ****** ******
      ****** ****** ****** ****** ****** ****** ****** ****** ****** ******
   9  ****** ****** ****** ****** ****** ****** ****** ****** ****** ******
      ****** ****** ****** ****** ****** ****** ****** ****** ****** ******
      ****** ****** ****** ****** ****** ****** ****** ****** ****** ******
  10  ****** ****** ****** ****** ****** ****** ****** ****** ****** ******
      ****** ****** ****** ****** ****** ****** ****** ****** ****** ******
      ****** ****** ****** ****** ****** ****** ****** ****** ****** ******
  11  ****** ****** ****** ****** ****** ****** ****** ****** ****** ******
      ****** ****** ****** ****** ****** ****** ****** ****** ****** ******
      ****** ****** ****** ****** ****** ****** ****** ****** ****** ******
  12  ****** ****** ****** ****** ****** ****** ****** ****** ****** ******
      ****** ****** ****** ****** ****** ****** ****** ****** ****** ******
      ****** ****** ****** ****** ****** ****** ****** ****** ****** ******
  13  ****** ****** ****** ****** ****** ****** ****** ****** ****** ******
      ****** ****** ****** ****** ****** ****** ****** ****** ****** ******
      ****** ****** ****** ****** ****** ****** ****** ****** ****** ******
  14  ****** ****** ****** ****** ****** ****** ****** ****** ****** ******
      ****** ****** ****** ****** ****** ****** ****** ****** ****** ******
      ****** ****** ****** ****** ****** ****** ****** ****** ****** ******
  15  ****** ****** ****** ****** ****** ****** ****** ****** ****** ******
      ****** ****** ****** ****** ****** ****** ****** ****** ****** ******
      ****** ****** ****** ****** ****** ****** ****** ****** ****** ******
  16  ****** ****** ****** ****** ****** ****** ****** ****** ****** ******
      ****** ****** ****** ****** ****** ****** ****** ****** ****** ******
      ****** ****** ****** ****** ****** ****** ****** ****** ****** ******
  17  ****** ****** ****** ****** ****** ****** ****** ****** ****** ******
      ****** ****** ****** ****** ****** ****** ****** ****** ****** ******
      ****** ****** ****** ****** ****** ****** ****** ****** ****** ******
  18  ****** ****** ****** ****** ****** ****** ****** ****** ****** ******
      ****** ****** ****** ****** ****** ****** ****** ****** ****** ******
      ****** ****** ****** ****** ****** ****** ****** ****** ****** ******
  19  ****** ****** ****** ****** ****** ****** ****** ****** ****** ******
      ****** ****** ****** ****** ****** ****** ****** ****** ****** ******
      ****** ****** ****** ****** ****** ****** ****** ****** ****** ******
  20  ****** ****** ****** ****** ****** ****** ****** ****** ****** ******
      ****** ****** ****** ****** ****** ****** ****** ****** ****** ******
      ****** ****** ****** ****** ****** ****** ****** ****** ****** ******
  21  ****** ****** ****** ****** ****** ****** ****** ****** ****** ******
      ****** ****** ****** ****** ****** ****** ****** ****** ****** ******
      ****** ****** ****** ****** ****** ****** ****** ****** ****** ******
  22  ****** ****** ****** ****** ****** ****** ****** ****** ****** ******
      ****** ****** ****** ****** ****** ****** ****** ****** ****** ******
      ****** ****** ****** ****** ****** ****** ****** ****** ****** ******
  23  ****** ****** ****** ****** ****** ****** ****** ****** ****** ******
      ****** ****** ****** ****** ****** ****** ****** ****** ****** ******
      ****** ****** ****** ****** ****** ****** ****** ****** ****** ******
  24  ****** ****** ****** ****** ****** ****** ****** ****** ****** ******
      ****** ****** ****** ****** ****** ****** ****** ****** ****** ******
      ****** ****** ****** ****** ****** ****** ****** ****** ****** ******
  25  ****** ****** ****** ****** ****** ****** ****** ****** ****** ******
      ****** ****** ****** ****** ****** ****** ****** ****** ****** ******
      ****** ****** ****** ****** ****** ****** ****** ****** ****** ******

 HEAD WILL BE SAVED ON UNIT   51 AT END OF TIME STEP    1, STRESS PERIOD    5
1
  VOLUMETRIC BUDGET FOR ENTIRE MODEL AT END OF TIME STEP    1, STRESS PERIOD   5
  ------------------------------------------------------------------------------

     CUMULATIVE VOLUMES      L**3       RATES FOR THIS TIME STEP      L**3/T
     ------------------                 ------------------------

           IN:                                      IN:
           ---                                      ---
             STORAGE =    30996851.7444               STORAGE =       18271.4061
       CONSTANT HEAD =    10491711.4813         CONSTANT HEAD =       31217.2562
               WELLS =           0.0000                 WELLS =           0.0000
            RECHARGE =    10074000.0000              RECHARGE =       13800.0000
      STREAM LEAKAGE =     3779429.3931        STREAM LEAKAGE =       12300.0693

            TOTAL IN =    55341992.6187              TOTAL IN =       75588.7316

          OUT:                                     OUT:
          ----                                     ----
             STORAGE =        1154.0538               STORAGE =           0.0000
       CONSTANT HEAD =           0.0000         CONSTANT HEAD =           0.0000
               WELLS =    15031080.0186                 WELLS =       32890.7659
            RECHARGE =           0.0000              RECHARGE =           0.0000
      STREAM LEAKAGE =    40309760.9489        STREAM LEAKAGE =       42697.9690

           TOTAL OUT =    55341995.0214             TOTAL OUT =       75588.7349

            IN - OUT =          -2.4027              IN - OUT =      -3.2644E-03

 PERCENT DISCREPANCY =          -0.00     PERCENT DISCREPANCY =          -0.00






         TIME SUMMARY AT END OF TIME STEP    1 IN STRESS PERIOD    5
                    SECONDS     MINUTES      HOURS       DAYS        YEARS
                    -----------------------------------------------------------
   TIME STEP LENGTH 7.94880E+06 1.32480E+05  2208.0      92.000     0.25188    
 STRESS PERIOD TIME 7.94880E+06 1.32480E+05  2208.0      92.000     0.25188    
         TOTAL TIME 3.94848E+07 6.58080E+05  10968.      457.00      1.2512    
1
1
                            STRESS PERIOD NO.    6, LENGTH =   91.00000    
                            -----------------------------------------------

                              NUMBER OF TIME STEPS =     1

                               MULTIPLIER FOR DELT =     1.500

                            INITIAL TIME STEP SIZE =   91.00000    

 WELL NO.  LAYER   ROW   COL   STRESS RATE         
 --------------------------------------------------
      1      1     14      6       0.000    
      2      1      3      9       0.000    
      3      1     20     10       0.000    
      4      1     14     20       0.000    
      5      1      8     26      -8223.    
      6      1     11     23      -7775.    
      7      1      7     20      -8549.    
      8      1     17      2      -8344.    

      8 WELLS

                 RECHARGE =  2.000000E-03

 REUSING STREAM SEGMENT DATA FROM LAST STRESS PERIOD
 
 SOLVING FOR HEAD 


     7 CALLS TO PCG ROUTINE FOR TIME STEP   1 IN STRESS PERIOD    6
    26 TOTAL ITERATIONS

 OUTPUT CONTROL FOR STRESS PERIOD    6   TIME STEP    1
    SAVE BUDGET
    SAVE HEAD FOR ALL LAYERS
    PRINT HEAD FOR ALL LAYERS
 UBDSV2 SAVING "STREAMFLOW OUT  " ON UNIT  50 AT TIME STEP  1, STRESS PERIOD   6



 STREAM LISTING     PERIOD      6   STEP        1

 LAYER ROW COL. STREAM  RCH.  FLOW INTO     FLOW TO   FLOW OUT OF   OVRLND.     DIRECT     STREAM       STREAM     STREAM     STREAM   STREAMBED  STREAMBED
                SEG.NO.  NO.  STRM. RCH.    AQUIFER    STRM. RCH.    RUNOFF     PRECIP       ET          HEAD       DEPTH      WIDTH   CONDCTNC.   GRADIENT

   1   13    1     1     1    1.0000E+05 -1.2911E+03   1.0129E+05  0.000E+00  0.000E+00  0.000E+00  4.84066E+01  1.452E-01  2.000E+01  2.000E+04 -6.455E-02
   1   13    2     1     2    1.0129E+05 -2.3865E+03   1.0368E+05  0.000E+00  0.000E+00  0.000E+00  4.79309E+01  1.468E-01  2.000E+01  2.000E+04 -1.193E-01
   1   14    3     1     3    1.0368E+05 -2.9128E+02   1.0397E+05  0.000E+00  0.000E+00  0.000E+00  4.74548E+01  1.479E-01  2.000E+01  2.000E+04 -1.456E-02
   1   15    4     1     4    1.0397E+05 -1.8408E+02   1.0415E+05  0.000E+00  0.000E+00  0.000E+00  4.69777E+01  1.481E-01  2.000E+01  2.000E+04 -9.204E-03
   1   16    5     1     5    1.0415E+05  2.3525E+02   1.0392E+05  0.000E+00  0.000E+00  0.000E+00  4.65004E+01  1.481E-01  2.000E+01  2.000E+04  1.176E-02
   1   16    6     1     6    1.0392E+05 -7.6915E+02   1.0469E+05  0.000E+00  0.000E+00  0.000E+00  4.60234E+01  1.484E-01  2.000E+01  2.000E+04 -3.846E-02
   1   16    7     1     7    1.0469E+05 -9.9172E+02   1.0568E+05  0.000E+00  0.000E+00  0.000E+00  4.55468E+01  1.491E-01  2.000E+01  2.000E+04 -4.959E-02
   1   16    8     1     8    1.0568E+05 -1.1101E+03   1.0679E+05  0.000E+00  0.000E+00  0.000E+00  4.50705E+01  1.500E-01  2.000E+01  2.000E+04 -5.550E-02
   1   16    9     1     9    1.0679E+05 -1.1793E+03   1.0797E+05  0.000E+00  0.000E+00  0.000E+00  4.45941E+01  1.510E-01  2.000E+01  2.000E+04 -5.897E-02
   1   16   10     1    10    1.0797E+05 -1.2199E+03   1.0919E+05  0.000E+00  0.000E+00  0.000E+00  4.41179E+01  1.520E-01  2.000E+01  2.000E+04 -6.099E-02
   1   16   11     1    11    1.0919E+05 -1.2654E+03   1.1045E+05  0.000E+00  0.000E+00  0.000E+00  4.36417E+01  1.530E-01  2.000E+01  2.000E+04 -6.327E-02
   1   16   12     1    12    1.1045E+05 -2.2425E+03   1.1270E+05  0.000E+00  0.000E+00  0.000E+00  4.31658E+01  1.545E-01  2.000E+01  2.000E+04 -1.121E-01
   1   15   13     1    13    1.1270E+05 -2.2084E+03   1.1490E+05  0.000E+00  0.000E+00  0.000E+00  4.26904E+01  1.563E-01  2.000E+01  2.000E+04 -1.104E-01
   1   14   14     1    14    1.1490E+05 -2.4549E+03   1.1736E+05  0.000E+00  0.000E+00  0.000E+00  4.22151E+01  1.582E-01  2.000E+01  2.000E+04 -1.227E-01
   1   13   15     1    15    1.1736E+05 -2.6451E+03   1.2000E+05  0.000E+00  0.000E+00  0.000E+00  4.17399E+01  1.603E-01  2.000E+01  2.000E+04 -1.323E-01
   1   12   16     1    16    1.2000E+05 -2.9155E+03   1.2292E+05  0.000E+00  0.000E+00  0.000E+00  4.12648E+01  1.626E-01  2.000E+01  2.000E+04 -1.458E-01
   1   12   17     1    17    1.2292E+05 -1.7917E+03   1.2471E+05  0.000E+00  0.000E+00  0.000E+00  4.07894E+01  1.644E-01  2.000E+01  2.000E+04 -8.959E-02
   1   12   18     1    18    1.2471E+05 -1.5332E+03   1.2624E+05  0.000E+00  0.000E+00  0.000E+00  4.03135E+01  1.658E-01  2.000E+01  2.000E+04 -7.666E-02
   1   12   19     1    19    1.2624E+05 -1.3906E+03   1.2764E+05  0.000E+00  0.000E+00  0.000E+00  3.98374E+01  1.669E-01  2.000E+01  2.000E+04 -6.953E-02
   1   13   20     1    20    1.2764E+05 -1.2952E+03   1.2893E+05  0.000E+00  0.000E+00  0.000E+00  3.93611E+01  1.680E-01  2.000E+01  2.000E+04 -6.476E-02
   1   14   21     1    21    1.2893E+05 -1.7497E+03   1.3068E+05  0.000E+00  0.000E+00  0.000E+00  3.88851E+01  1.692E-01  2.000E+01  2.000E+04 -8.749E-02
   1   14   22     1    22    1.3068E+05  5.0329E+03   1.2565E+05  0.000E+00  0.000E+00  0.000E+00  3.84065E+01  1.679E-01  2.000E+01  2.000E+04  2.516E-01
   1    9   30     2     1    5.0000E+04 -4.3590E+02   5.0436E+04  0.000E+00  0.000E+00  0.000E+00  4.02412E+01  1.162E-01  2.000E+01  2.000E+04 -2.180E-02
   1    9   29     2     2    5.0436E+04 -6.0631E+02   5.1042E+04  0.000E+00  0.000E+00  0.000E+00  3.99919E+01  1.169E-01  2.000E+01  2.000E+04 -3.032E-02
   1    9   28     2     3    5.1042E+04 -4.7964E+02   5.1522E+04  0.000E+00  0.000E+00  0.000E+00  3.97426E+01  1.176E-01  2.000E+01  2.000E+04 -2.398E-02
   1    9   27     2     4    5.1522E+04  4.2796E+02   5.1094E+04  0.000E+00  0.000E+00  0.000E+00  3.94927E+01  1.177E-01  2.000E+01  2.000E+04  2.140E-02
   1   10   26     2     5    5.1094E+04  4.3933E+02   5.0655E+04  0.000E+00  0.000E+00  0.000E+00  3.92421E+01  1.171E-01  2.000E+01  2.000E+04  2.197E-02
   1   11   25     2     6    5.0655E+04  5.7075E+02   5.0084E+04  0.000E+00  0.000E+00  0.000E+00  3.89914E+01  1.164E-01  2.000E+01  2.000E+04  2.854E-02
   1   12   24     2     7    5.0084E+04  1.2480E+03   4.8836E+04  0.000E+00  0.000E+00  0.000E+00  3.87401E+01  1.151E-01  2.000E+01  2.000E+04  6.240E-02
   1   13   23     2     8    4.8836E+04  5.8842E+01   4.8777E+04  0.000E+00  0.000E+00  0.000E+00  3.84892E+01  1.142E-01  2.000E+01  2.000E+04  2.942E-03
   1   14   22     2     9    4.8777E+04  1.6624E+03   4.7115E+04  0.000E+00  0.000E+00  0.000E+00  3.82380E+01  1.130E-01  2.000E+01  2.000E+04  8.312E-02
   1   14   22     3     1    1.7276E+05 -8.6040E+03   1.8137E+05  0.000E+00  0.000E+00  0.000E+00  3.77247E+01  1.691E-01  2.000E+01  2.000E+04 -4.302E-01
   1   15   23     3     2    1.8137E+05 -6.9119E+02   1.8206E+05  0.000E+00  0.000E+00  0.000E+00  3.68384E+01  1.718E-01  2.000E+01  2.000E+04 -3.456E-02
   1   15   24     3     3    1.8206E+05 -3.9732E+02   1.8245E+05  0.000E+00  0.000E+00  0.000E+00  3.59498E+01  1.721E-01  2.000E+01  2.000E+04 -1.987E-02
   1   15   25     3     4    1.8245E+05 -3.9038E+02   1.8284E+05  0.000E+00  0.000E+00  0.000E+00  3.50612E+01  1.723E-01  2.000E+01  2.000E+04 -1.952E-02
   1   15   26     3     5    1.8284E+05 -4.5873E+02   1.8330E+05  0.000E+00  0.000E+00  0.000E+00  3.41725E+01  1.725E-01  2.000E+01  2.000E+04 -2.294E-02
   1   16   27     3     6    1.8330E+05 -5.1625E+02   1.8382E+05  0.000E+00  0.000E+00  0.000E+00  3.32839E+01  1.728E-01  2.000E+01  2.000E+04 -2.581E-02
   1   17   28     3     7    1.8382E+05 -1.9934E+03   1.8581E+05  0.000E+00  0.000E+00  0.000E+00  3.23957E+01  1.735E-01  2.000E+01  2.000E+04 -9.967E-02
   1   18   29     3     8    1.8581E+05 -3.4309E+03   1.8924E+05  0.000E+00  0.000E+00  0.000E+00  3.15084E+01  1.750E-01  2.000E+01  2.000E+04 -1.715E-01
   1   18   30     3     9    1.8924E+05 -3.5643E+03   1.9281E+05  0.000E+00  0.000E+00  0.000E+00  3.06214E+01  1.770E-01  2.000E+01  2.000E+04 -1.782E-01



1
              HEAD IN LAYER   1 AT END OF TIME STEP   1 IN STRESS PERIOD    6
  ---------------------------------------------------------------------------

          1      2      3      4      5      6      7      8      9     10
         11     12     13     14     15     16     17     18     19     20
         21     22     23     24     25     26     27     28     29     30
 .........................................................................
   1  ****** ****** ****** ****** ****** ****** ****** ****** ****** ******
      ****** ****** ****** ****** ****** ****** ****** ****** ****** ******
      ****** ****** ****** ****** ****** ****** ****** ****** ****** ******
   2  ****** ****** ****** ****** ****** ****** ****** ****** ****** ******
      ****** ****** ****** ****** ****** ****** ****** ****** ****** ******
      ****** ****** ****** ****** ****** ****** ****** ****** ****** ******
   3  ****** ****** ****** ****** ****** ****** ****** ****** ****** ******
      ****** ****** ****** ****** ****** ****** ****** ****** ****** ******
      ****** ****** ****** ****** ****** ****** ****** ****** ****** ******
   4  ****** ****** ****** ****** ****** ****** ****** ****** ****** ******
      ****** ****** ****** ****** ****** ****** ****** ****** ****** ******
      ****** ****** ****** ****** ****** ****** ****** ****** ****** ******
   5  ****** ****** ****** ****** ****** ****** ****** ****** ****** ******
      ****** ****** ****** ****** ****** ****** ****** ****** ****** ******
      ****** ****** ****** ****** ****** ****** ****** ****** ****** ******
   6  ****** ****** ****** ****** ****** ****** ****** ****** ****** ******
      ****** ****** ****** ****** ****** ****** ****** ****** ****** ******
      ****** ****** ****** ****** ****** ****** ****** ****** ****** ******
   7  ****** ****** ****** ****** ****** ****** ****** ****** ****** ******
      ****** ****** ****** ****** ****** ****** ****** ****** ****** ******
      ****** ****** ****** ****** ****** ****** ****** ****** ****** ******
   8  ****** ****** ****** ****** ****** ****** ****** ****** ****** ******
      ****** ****** ****** ****** ****** ****** ****** ****** ****** ******
      ****** ****** ****** ****** ****** ****** ****** ****** ****** ******
   9  ****** ****** ****** ****** ****** ****** ****** ****** ****** ******
      ****** ****** ****** ****** ****** ****** ****** ****** ****** ******
      ****** ****** ****** ****** ****** ****** ****** ****** ****** ******
  10  ****** ****** ****** ****** ****** ****** ****** ****** ****** ******
      ****** ****** ****** ****** ****** ****** ****** ****** ****** ******
      ****** ****** ****** ****** ****** ****** ****** ****** ****** ******
  11  ****** ****** ****** ****** ****** ****** ****** ****** ****** ******
      ****** ****** ****** ****** ****** ****** ****** ****** ****** ******
      ****** ****** ****** ****** ****** ****** ****** ****** ****** ******
  12  ****** ****** ****** ****** ****** ****** ****** ****** ****** ******
      ****** ****** ****** ****** ****** ****** ****** ****** ****** ******
      ****** ****** ****** ****** ****** ****** ****** ****** ****** ******
  13  ****** ****** ****** ****** ****** ****** ****** ****** ****** ******
      ****** ****** ****** ****** ****** ****** ****** ****** ****** ******
      ****** ****** ****** ****** ****** ****** ****** ****** ****** ******
  14  ****** ****** ****** ****** ****** ****** ****** ****** ****** ******
      ****** ****** ****** ****** ****** ****** ****** ****** ****** ******
      ****** ****** ****** ****** ****** ****** ****** ****** ****** ******
  15  ****** ****** ****** ****** ****** ****** ****** ****** ****** ******
      ****** ****** ****** ****** ****** ****** ****** ****** ****** ******
      ****** ****** ****** ****** ****** ****** ****** ****** ****** ******
  16  ****** ****** ****** ****** ****** ****** ****** ****** ****** ******
      ****** ****** ****** ****** ****** ****** ****** ****** ****** ******
      ****** ****** ****** ****** ****** ****** ****** ****** ****** ******
  17  ****** ****** ****** ****** ****** ****** ****** ****** ****** ******
      ****** ****** ****** ****** ****** ****** ****** ****** ****** ******
      ****** ****** ****** ****** ****** ****** ****** ****** ****** ******
  18  ****** ****** ****** ****** ****** ****** ****** ****** ****** ******
      ****** ****** ****** ****** ****** ****** ****** ****** ****** ******
      ****** ****** ****** ****** ****** ****** ****** ****** ****** ******
  19  ****** ****** ****** ****** ****** ****** ****** ****** ****** ******
      ****** ****** ****** ****** ****** ****** ****** ****** ****** ******
      ****** ****** ****** ****** ****** ****** ****** ****** ****** ******
  20  ****** ****** ****** ****** ****** ****** ****** ****** ****** ******
      ****** ****** ****** ****** ****** ****** ****** ****** ****** ******
      ****** ****** ****** ****** ****** ****** ****** ****** ****** ******
  21  ****** ****** ****** ****** ****** ****** ****** ****** ****** ******
      ****** ****** ****** ****** ****** ****** ****** ****** ****** ******
      ****** ****** ****** ****** ****** ****** ****** ****** ****** ******
  22  ****** ****** ****** ****** ****** ****** ****** ****** ****** ******
      ****** ****** ****** ****** ****** ****** ****** ****** ****** ******
      ****** ****** ****** ****** ****** ****** ****** ****** ****** ******
  23  ****** ****** ****** ****** ****** ****** ****** ****** ****** ******
      ****** ****** ****** ****** ****** ****** ****** ****** ****** ******
      ****** ****** ****** ****** ****** ****** ****** ****** ****** ******
  24  ****** ****** ****** ****** ****** ****** ****** ****** ****** ******
      ****** ****** ****** ****** ****** ****** ****** ****** ****** ******
      ****** ****** ****** ****** ****** ****** ****** ****** ****** ******
  25  ****** ****** ****** ****** ****** ****** ****** ****** ****** ******
      ****** ****** ****** ****** ****** ****** ****** ****** ****** ******
      ****** ****** ****** ****** ****** ****** ****** ****** ****** ******

 HEAD WILL BE SAVED ON UNIT   51 AT END OF TIME STEP    1, STRESS PERIOD    6
1
  VOLUMETRIC BUDGET FOR ENTIRE MODEL AT END OF TIME STEP    1, STRESS PERIOD   6
  ------------------------------------------------------------------------------

     CUMULATIVE VOLUMES      L**3       RATES FOR THIS TIME STEP      L**3/T
     ------------------                 ------------------------

           IN:                                      IN:
           ---                                      ---
             STORAGE =    30996851.7444               STORAGE =           0.0000
       CONSTANT HEAD =    13159110.4147         CONSTANT HEAD =       29312.0762
               WELLS =           0.0000                 WELLS =           0.0000
            RECHARGE =    15097200.0000              RECHARGE =       55200.0000
      STREAM LEAKAGE =     4659881.3718        STREAM LEAKAGE =        9675.2965

            TOTAL IN =    63913043.5309              TOTAL IN =       94187.3727

          OUT:                                     OUT:
          ----                                     ----
             STORAGE =      803144.0252               STORAGE =        8813.0766
       CONSTANT HEAD =           0.0000         CONSTANT HEAD =           0.0000
               WELLS =    18024139.7160                 WELLS =       32890.7659
            RECHARGE =           0.0000              RECHARGE =           0.0000
      STREAM LEAKAGE =    45085761.9243        STREAM LEAKAGE =       52483.5272

           TOTAL OUT =    63913045.6654             TOTAL OUT =       94187.3697

            IN - OUT =          -2.1346              IN - OUT =       2.9463E-03

 PERCENT DISCREPANCY =          -0.00     PERCENT DISCREPANCY =           0.00






         TIME SUMMARY AT END OF TIME STEP    1 IN STRESS PERIOD    6
                    SECONDS     MINUTES      HOURS       DAYS        YEARS
                    -----------------------------------------------------------
   TIME STEP LENGTH 7.86240E+06 1.31040E+05  2184.0      91.000     0.24914    
 STRESS PERIOD TIME 7.86240E+06 1.31040E+05  2184.0      91.000     0.24914    
         TOTAL TIME 4.73472E+07 7.89120E+05  13152.      548.00      1.5003    
1
1
                            STRESS PERIOD NO.    7, LENGTH =   91.00000    
                            -----------------------------------------------

                              NUMBER OF TIME STEPS =     1

                               MULTIPLIER FOR DELT =     1.500

                            INITIAL TIME STEP SIZE =   91.00000    

 WELL NO.  LAYER   ROW   COL   STRESS RATE         
 --------------------------------------------------
      1      1     14      6       0.000    
      2      1      3      9       0.000    
      3      1     20     10       0.000    
      4      1     14     20       0.000    
      5      1      8     26      -8223.    
      6      1     11     23      -7775.    
      7      1      7     20      -8549.    
      8      1     17      2      -8344.    

      8 WELLS

                 RECHARGE =   0.00000    

 REUSING STREAM SEGMENT DATA FROM LAST STRESS PERIOD
 
 SOLVING FOR HEAD 


     7 CALLS TO PCG ROUTINE FOR TIME STEP   1 IN STRESS PERIOD    7
    26 TOTAL ITERATIONS

 OUTPUT CONTROL FOR STRESS PERIOD    7   TIME STEP    1
    SAVE BUDGET
    SAVE HEAD FOR ALL LAYERS
    PRINT HEAD FOR ALL LAYERS
 UBDSV2 SAVING "STREAMFLOW OUT  " ON UNIT  50 AT TIME STEP  1, STRESS PERIOD   7



 STREAM LISTING     PERIOD      7   STEP        1

 LAYER ROW COL. STREAM  RCH.  FLOW INTO     FLOW TO   FLOW OUT OF   OVRLND.     DIRECT     STREAM       STREAM     STREAM     STREAM   STREAMBED  STREAMBED
                SEG.NO.  NO.  STRM. RCH.    AQUIFER    STRM. RCH.    RUNOFF     PRECIP       ET          HEAD       DEPTH      WIDTH   CONDCTNC.   GRADIENT

   1   13    1     1     1    1.0000E+05 -6.2374E+02   1.0062E+05  0.000E+00  0.000E+00  0.000E+00  4.84063E+01  1.449E-01  2.000E+01  2.000E+04 -3.119E-02
   1   13    2     1     2    1.0062E+05 -1.6402E+03   1.0226E+05  0.000E+00  0.000E+00  0.000E+00  4.79300E+01  1.459E-01  2.000E+01  2.000E+04 -8.201E-02
   1   14    3     1     3    1.0226E+05 -3.8930E+01   1.0230E+05  0.000E+00  0.000E+00  0.000E+00  4.74534E+01  1.466E-01  2.000E+01  2.000E+04 -1.946E-03
   1   15    4     1     4    1.0230E+05  7.9262E+01   1.0222E+05  0.000E+00  0.000E+00  0.000E+00  4.69762E+01  1.466E-01  2.000E+01  2.000E+04  3.963E-03
   1   16    5     1     5    1.0222E+05  9.9359E+02   1.0123E+05  0.000E+00  0.000E+00  0.000E+00  4.64984E+01  1.461E-01  2.000E+01  2.000E+04  4.968E-02
   1   16    6     1     6    1.0123E+05 -3.1282E+02   1.0154E+05  0.000E+00  0.000E+00  0.000E+00  4.60209E+01  1.459E-01  2.000E+01  2.000E+04 -1.564E-02
   1   16    7     1     7    1.0154E+05 -5.5432E+02   1.0210E+05  0.000E+00  0.000E+00  0.000E+00  4.55440E+01  1.462E-01  2.000E+01  2.000E+04 -2.772E-02
   1   16    8     1     8    1.0210E+05 -6.7903E+02   1.0278E+05  0.000E+00  0.000E+00  0.000E+00  4.50672E+01  1.468E-01  2.000E+01  2.000E+04 -3.395E-02
   1   16    9     1     9    1.0278E+05 -7.5175E+02   1.0353E+05  0.000E+00  0.000E+00  0.000E+00  4.45906E+01  1.474E-01  2.000E+01  2.000E+04 -3.759E-02
   1   16   10     1    10    1.0353E+05 -7.9509E+02   1.0432E+05  0.000E+00  0.000E+00  0.000E+00  4.41139E+01  1.480E-01  2.000E+01  2.000E+04 -3.975E-02
   1   16   11     1    11    1.0432E+05 -8.3977E+02   1.0516E+05  0.000E+00  0.000E+00  0.000E+00  4.36374E+01  1.487E-01  2.000E+01  2.000E+04 -4.199E-02
   1   16   12     1    12    1.0516E+05 -1.5281E+03   1.0669E+05  0.000E+00  0.000E+00  0.000E+00  4.31611E+01  1.497E-01  2.000E+01  2.000E+04 -7.641E-02
   1   15   13     1    13    1.0669E+05 -1.4419E+03   1.0813E+05  0.000E+00  0.000E+00  0.000E+00  4.26851E+01  1.510E-01  2.000E+01  2.000E+04 -7.210E-02
   1   14   14     1    14    1.0813E+05 -1.6602E+03   1.0979E+05  0.000E+00  0.000E+00  0.000E+00  4.22091E+01  1.523E-01  2.000E+01  2.000E+04 -8.301E-02
   1   13   15     1    15    1.0979E+05 -1.8476E+03   1.1164E+05  0.000E+00  0.000E+00  0.000E+00  4.17333E+01  1.538E-01  2.000E+01  2.000E+04 -9.238E-02
   1   12   16     1    16    1.1164E+05 -2.1224E+03   1.1376E+05  0.000E+00  0.000E+00  0.000E+00  4.12577E+01  1.554E-01  2.000E+01  2.000E+04 -1.061E-01
   1   12   17     1    17    1.1376E+05 -1.2152E+03   1.1498E+05  0.000E+00  0.000E+00  0.000E+00  4.07818E+01  1.568E-01  2.000E+01  2.000E+04 -6.076E-02
   1   12   18     1    18    1.1498E+05 -9.7055E+02   1.1595E+05  0.000E+00  0.000E+00  0.000E+00  4.03054E+01  1.577E-01  2.000E+01  2.000E+04 -4.853E-02
   1   12   19     1    19    1.1595E+05 -7.0225E+02   1.1665E+05  0.000E+00  0.000E+00  0.000E+00  3.98288E+01  1.584E-01  2.000E+01  2.000E+04 -3.511E-02
   1   13   20     1    20    1.1665E+05 -6.2682E+02   1.1728E+05  0.000E+00  0.000E+00  0.000E+00  3.93521E+01  1.589E-01  2.000E+01  2.000E+04 -3.134E-02
   1   14   21     1    21    1.1728E+05 -1.0924E+03   1.1837E+05  0.000E+00  0.000E+00  0.000E+00  3.88755E+01  1.596E-01  2.000E+01  2.000E+04 -5.462E-02
   1   14   22     1    22    1.1837E+05  5.1941E+03   1.1318E+05  0.000E+00  0.000E+00  0.000E+00  3.83966E+01  1.579E-01  2.000E+01  2.000E+04  2.597E-01
   1    9   30     2     1    5.0000E+04  7.9692E+01   4.9920E+04  0.000E+00  0.000E+00  0.000E+00  4.02408E+01  1.158E-01  2.000E+01  2.000E+04  3.985E-03
   1    9   29     2     2    4.9920E+04 -9.2418E+01   5.0013E+04  0.000E+00  0.000E+00  0.000E+00  3.99908E+01  1.158E-01  2.000E+01  2.000E+04 -4.621E-03
   1    9   28     2     3    5.0013E+04  3.5824E+01   4.9977E+04  0.000E+00  0.000E+00  0.000E+00  3.97409E+01  1.159E-01  2.000E+01  2.000E+04  1.791E-03
   1    9   27     2     4    4.9977E+04  1.1293E+03   4.8848E+04  0.000E+00  0.000E+00  0.000E+00  3.94900E+01  1.150E-01  2.000E+01  2.000E+04  5.646E-02
   1   10   26     2     5    4.8848E+04  1.1412E+03   4.7706E+04  0.000E+00  0.000E+00  0.000E+00  3.92385E+01  1.135E-01  2.000E+01  2.000E+04  5.706E-02
   1   11   25     2     6    4.7706E+04  1.2434E+03   4.6463E+04  0.000E+00  0.000E+00  0.000E+00  3.89868E+01  1.118E-01  2.000E+01  2.000E+04  6.217E-02
   1   12   24     2     7    4.6463E+04  1.8610E+03   4.4602E+04  0.000E+00  0.000E+00  0.000E+00  3.87345E+01  1.095E-01  2.000E+01  2.000E+04  9.305E-02
   1   13   23     2     8    4.4602E+04  2.5088E+02   4.4351E+04  0.000E+00  0.000E+00  0.000E+00  3.84830E+01  1.080E-01  2.000E+01  2.000E+04  1.254E-02
   1   14   22     2     9    4.4351E+04  1.8914E+03   4.2460E+04  0.000E+00  0.000E+00  0.000E+00  3.82314E+01  1.064E-01  2.000E+01  2.000E+04  9.457E-02
   1   14   22     3     1    1.5564E+05 -8.4452E+03   1.6408E+05  0.000E+00  0.000E+00  0.000E+00  3.77146E+01  1.591E-01  2.000E+01  2.000E+04 -4.223E-01
   1   15   23     3     2    1.6408E+05 -4.8609E+02   1.6457E+05  0.000E+00  0.000E+00  0.000E+00  3.68284E+01  1.617E-01  2.000E+01  2.000E+04 -2.430E-02
   1   15   24     3     3    1.6457E+05 -2.2451E+02   1.6479E+05  0.000E+00  0.000E+00  0.000E+00  3.59397E+01  1.619E-01  2.000E+01  2.000E+04 -1.123E-02
   1   15   25     3     4    1.6479E+05 -2.1442E+02   1.6501E+05  0.000E+00  0.000E+00  0.000E+00  3.50509E+01  1.620E-01  2.000E+01  2.000E+04 -1.072E-02
   1   15   26     3     5    1.6501E+05 -2.5804E+02   1.6526E+05  0.000E+00  0.000E+00  0.000E+00  3.41622E+01  1.622E-01  2.000E+01  2.000E+04 -1.290E-02
   1   16   27     3     6    1.6526E+05 -2.8482E+02   1.6555E+05  0.000E+00  0.000E+00  0.000E+00  3.32735E+01  1.623E-01  2.000E+01  2.000E+04 -1.424E-02
   1   17   28     3     7    1.6555E+05 -1.3550E+03   1.6690E+05  0.000E+00  0.000E+00  0.000E+00  3.23850E+01  1.628E-01  2.000E+01  2.000E+04 -6.775E-02
   1   18   29     3     8    1.6690E+05 -2.7513E+03   1.6966E+05  0.000E+00  0.000E+00  0.000E+00  3.14974E+01  1.640E-01  2.000E+01  2.000E+04 -1.376E-01
   1   18   30     3     9    1.6966E+05 -3.0398E+03   1.7269E+05  0.000E+00  0.000E+00  0.000E+00  3.06102E+01  1.657E-01  2.000E+01  2.000E+04 -1.520E-01



1
              HEAD IN LAYER   1 AT END OF TIME STEP   1 IN STRESS PERIOD    7
  ---------------------------------------------------------------------------

          1      2      3      4      5      6      7      8      9     10
         11     12     13     14     15     16     17     18     19     20
         21     22     23     24     25     26     27     28     29     30
 .........................................................................
   1  ****** ****** ****** ****** ****** ****** ****** ****** ****** ******
      ****** ****** ****** ****** ****** ****** ****** ****** ****** ******
      ****** ****** ****** ****** ****** ****** ****** ****** ****** ******
   2  ****** ****** ****** ****** ****** ****** ****** ****** ****** ******
      ****** ****** ****** ****** ****** ****** ****** ****** ****** ******
      ****** ****** ****** ****** ****** ****** ****** ****** ****** ******
   3  ****** ****** ****** ****** ****** ****** ****** ****** ****** ******
      ****** ****** ****** ****** ****** ****** ****** ****** ****** ******
      ****** ****** ****** ****** ****** ****** ****** ****** ****** ******
   4  ****** ****** ****** ****** ****** ****** ****** ****** ****** ******
      ****** ****** ****** ****** ****** ****** ****** ****** ****** ******
      ****** ****** ****** ****** ****** ****** ****** ****** ****** ******
   5  ****** ****** ****** ****** ****** ****** ****** ****** ****** ******
      ****** ****** ****** ****** ****** ****** ****** ****** ****** ******
      ****** ****** ****** ****** ****** ****** ****** ****** ****** ******
   6  ****** ****** ****** ****** ****** ****** ****** ****** ****** ******
      ****** ****** ****** ****** ****** ****** ****** ****** ****** ******
      ****** ****** ****** ****** ****** ****** ****** ****** ****** ******
   7  ****** ****** ****** ****** ****** ****** ****** ****** ****** ******
      ****** ****** ****** ****** ****** ****** ****** ****** ****** ******
      ****** ****** ****** ****** ****** ****** ****** ****** ****** ******
   8  ****** ****** ****** ****** ****** ****** ****** ****** ****** ******
      ****** ****** ****** ****** ****** ****** ****** ****** ****** ******
      ****** ****** ****** ****** ****** ****** ****** ****** ****** ******
   9  ****** ****** ****** ****** ****** ****** ****** ****** ****** ******
      ****** ****** ****** ****** ****** ****** ****** ****** ****** ******
      ****** ****** ****** ****** ****** ****** ****** ****** ****** ******
  10  ****** ****** ****** ****** ****** ****** ****** ****** ****** ******
      ****** ****** ****** ****** ****** ****** ****** ****** ****** ******
      ****** ****** ****** ****** ****** ****** ****** ****** ****** ******
  11  ****** ****** ****** ****** ****** ****** ****** ****** ****** ******
      ****** ****** ****** ****** ****** ****** ****** ****** ****** ******
      ****** ****** ****** ****** ****** ****** ****** ****** ****** ******
  12  ****** ****** ****** ****** ****** ****** ****** ****** ****** ******
      ****** ****** ****** ****** ****** ****** ****** ****** ****** ******
      ****** ****** ****** ****** ****** ****** ****** ****** ****** ******
  13  ****** ****** ****** ****** ****** ****** ****** ****** ****** ******
      ****** ****** ****** ****** ****** ****** ****** ****** ****** ******
      ****** ****** ****** ****** ****** ****** ****** ****** ****** ******
  14  ****** ****** ****** ****** ****** ****** ****** ****** ****** ******
      ****** ****** ****** ****** ****** ****** ****** ****** ****** ******
      ****** ****** ****** ****** ****** ****** ****** ****** ****** ******
  15  ****** ****** ****** ****** ****** ****** ****** ****** ****** ******
      ****** ****** ****** ****** ****** ****** ****** ****** ****** ******
      ****** ****** ****** ****** ****** ****** ****** ****** ****** ******
  16  ****** ****** ****** ****** ****** ****** ****** ****** ****** ******
      ****** ****** ****** ****** ****** ****** ****** ****** ****** ******
      ****** ****** ****** ****** ****** ****** ****** ****** ****** ******
  17  ****** ****** ****** ****** ****** ****** ****** ****** ****** ******
      ****** ****** ****** ****** ****** ****** ****** ****** ****** ******
      ****** ****** ****** ****** ****** ****** ****** ****** ****** ******
  18  ****** ****** ****** ****** ****** ****** ****** ****** ****** ******
      ****** ****** ****** ****** ****** ****** ****** ****** ****** ******
      ****** ****** ****** ****** ****** ****** ****** ****** ****** ******
  19  ****** ****** ****** ****** ****** ****** ****** ****** ****** ******
      ****** ****** ****** ****** ****** ****** ****** ****** ****** ******
      ****** ****** ****** ****** ****** ****** ****** ****** ****** ******
  20  ****** ****** ****** ****** ****** ****** ****** ****** ****** ******
      ****** ****** ****** ****** ****** ****** ****** ****** ****** ******
      ****** ****** ****** ****** ****** ****** ****** ****** ****** ******
  21  ****** ****** ****** ****** ****** ****** ****** ****** ****** ******
      ****** ****** ****** ****** ****** ****** ****** ****** ****** ******
      ****** ****** ****** ****** ****** ****** ****** ****** ****** ******
  22  ****** ****** ****** ****** ****** ****** ****** ****** ****** ******
      ****** ****** ****** ****** ****** ****** ****** ****** ****** ******
      ****** ****** ****** ****** ****** ****** ****** ****** ****** ******
  23  ****** ****** ****** ****** ****** ****** ****** ****** ****** ******
      ****** ****** ****** ****** ****** ****** ****** ****** ****** ******
      ****** ****** ****** ****** ****** ****** ****** ****** ****** ******
  24  ****** ****** ****** ****** ****** ****** ****** ****** ****** ******
      ****** ****** ****** ****** ****** ****** ****** ****** ****** ******
      ****** ****** ****** ****** ****** ****** ****** ****** ****** ******
  25  ****** ****** ****** ****** ****** ****** ****** ****** ****** ******
      ****** ****** ****** ****** ****** ****** ****** ****** ****** ******
      ****** ****** ****** ****** ****** ****** ****** ****** ****** ******

 HEAD WILL BE SAVED ON UNIT   51 AT END OF TIME STEP    1, STRESS PERIOD    7
1
  VOLUMETRIC BUDGET FOR ENTIRE MODEL AT END OF TIME STEP    1, STRESS PERIOD   7
  ------------------------------------------------------------------------------

     CUMULATIVE VOLUMES      L**3       RATES FOR THIS TIME STEP      L**3/T
     ------------------                 ------------------------

           IN:                                      IN:
           ---                                      ---
             STORAGE =    33030504.8048               STORAGE =       22347.8358
       CONSTANT HEAD =    16183748.6658         CONSTANT HEAD =       33237.7830
               WELLS =           0.0000                 WELLS =           0.0000
            RECHARGE =    15097200.0000              RECHARGE =           0.0000
      STREAM LEAKAGE =     5924747.0902        STREAM LEAKAGE =       13899.6233

            TOTAL IN =    70236200.5609              TOTAL IN =       69485.2421

          OUT:                                     OUT:
          ----                                     ----
             STORAGE =      803144.0252               STORAGE =           0.0000
       CONSTANT HEAD =           0.0000         CONSTANT HEAD =           0.0000
               WELLS =    21017199.4133                 WELLS =       32890.7659
            RECHARGE =           0.0000              RECHARGE =           0.0000
      STREAM LEAKAGE =    48415859.7737        STREAM LEAKAGE =       36594.4819

           TOTAL OUT =    70236203.2122             TOTAL OUT =       69485.2478

            IN - OUT =          -2.6513              IN - OUT =      -5.6786E-03

 PERCENT DISCREPANCY =          -0.00     PERCENT DISCREPANCY =          -0.00






         TIME SUMMARY AT END OF TIME STEP    1 IN STRESS PERIOD    7
                    SECONDS     MINUTES      HOURS       DAYS        YEARS
                    -----------------------------------------------------------
   TIME STEP LENGTH 7.86240E+06 1.31040E+05  2184.0      91.000     0.24914    
 STRESS PERIOD TIME 7.86240E+06 1.31040E+05  2184.0      91.000     0.24914    
         TOTAL TIME 5.52096E+07 9.20160E+05  15336.      639.00      1.7495    
1
1
                            STRESS PERIOD NO.    8, LENGTH =   91.00000    
                            -----------------------------------------------

                              NUMBER OF TIME STEPS =     1

                               MULTIPLIER FOR DELT =     1.500

                            INITIAL TIME STEP SIZE =   91.00000    

 WELL NO.  LAYER   ROW   COL   STRESS RATE         
 --------------------------------------------------
      1      1     14      6       0.000    
      2      1      3      9       0.000    
      3      1     20     10       0.000    
      4      1     14     20       0.000    
      5      1      8     26      -8223.    
      6      1     11     23      -7775.    
      7      1      7     20      -8549.    
      8      1     17      2      -8344.    

      8 WELLS

                 RECHARGE =  1.000000E-03

 REUSING STREAM SEGMENT DATA FROM LAST STRESS PERIOD
 
 SOLVING FOR HEAD 


     6 CALLS TO PCG ROUTINE FOR TIME STEP   1 IN STRESS PERIOD    8
    22 TOTAL ITERATIONS

 OUTPUT CONTROL FOR STRESS PERIOD    8   TIME STEP    1
    SAVE BUDGET
    SAVE HEAD FOR ALL LAYERS
    PRINT HEAD FOR ALL LAYERS
 UBDSV2 SAVING "STREAMFLOW OUT  " ON UNIT  50 AT TIME STEP  1, STRESS PERIOD   8



 STREAM LISTING     PERIOD      8   STEP        1

 LAYER ROW COL. STREAM  RCH.  FLOW INTO     FLOW TO   FLOW OUT OF   OVRLND.     DIRECT     STREAM       STREAM     STREAM     STREAM   STREAMBED  STREAMBED
                SEG.NO.  NO.  STRM. RCH.    AQUIFER    STRM. RCH.    RUNOFF     PRECIP       ET          HEAD       DEPTH      WIDTH   CONDCTNC.   GRADIENT

   1   13    1     1     1    1.0000E+05 -6.9676E+02   1.0070E+05  0.000E+00  0.000E+00  0.000E+00  4.84063E+01  1.450E-01  2.000E+01  2.000E+04 -3.484E-02
   1   13    2     1     2    1.0070E+05 -1.7129E+03   1.0241E+05  0.000E+00  0.000E+00  0.000E+00  4.79301E+01  1.460E-01  2.000E+01  2.000E+04 -8.564E-02
   1   14    3     1     3    1.0241E+05 -1.0282E+02   1.0251E+05  0.000E+00  0.000E+00  0.000E+00  4.74536E+01  1.468E-01  2.000E+01  2.000E+04 -5.141E-03
   1   15    4     1     4    1.0251E+05  1.0842E+01   1.0250E+05  0.000E+00  0.000E+00  0.000E+00  4.69764E+01  1.468E-01  2.000E+01  2.000E+04  5.421E-04
   1   16    5     1     5    1.0250E+05  8.2185E+02   1.0168E+05  0.000E+00  0.000E+00  0.000E+00  4.64987E+01  1.465E-01  2.000E+01  2.000E+04  4.109E-02
   1   16    6     1     6    1.0168E+05 -4.1896E+02   1.0210E+05  0.000E+00  0.000E+00  0.000E+00  4.60213E+01  1.463E-01  2.000E+01  2.000E+04 -2.095E-02
   1   16    7     1     7    1.0210E+05 -6.5570E+02   1.0275E+05  0.000E+00  0.000E+00  0.000E+00  4.55445E+01  1.467E-01  2.000E+01  2.000E+04 -3.278E-02
   1   16    8     1     8    1.0275E+05 -7.7975E+02   1.0353E+05  0.000E+00  0.000E+00  0.000E+00  4.50678E+01  1.474E-01  2.000E+01  2.000E+04 -3.899E-02
   1   16    9     1     9    1.0353E+05 -8.5381E+02   1.0439E+05  0.000E+00  0.000E+00  0.000E+00  4.45912E+01  1.481E-01  2.000E+01  2.000E+04 -4.269E-02
   1   16   10     1    10    1.0439E+05 -8.9985E+02   1.0529E+05  0.000E+00  0.000E+00  0.000E+00  4.41147E+01  1.488E-01  2.000E+01  2.000E+04 -4.499E-02
   1   16   11     1    11    1.0529E+05 -9.4782E+02   1.0624E+05  0.000E+00  0.000E+00  0.000E+00  4.36382E+01  1.496E-01  2.000E+01  2.000E+04 -4.739E-02
   1   16   12     1    12    1.0624E+05 -1.6902E+03   1.0793E+05  0.000E+00  0.000E+00  0.000E+00  4.31621E+01  1.507E-01  2.000E+01  2.000E+04 -8.451E-02
   1   15   13     1    13    1.0793E+05 -1.6105E+03   1.0954E+05  0.000E+00  0.000E+00  0.000E+00  4.26862E+01  1.521E-01  2.000E+01  2.000E+04 -8.053E-02
   1   14   14     1    14    1.0954E+05 -1.8213E+03   1.1136E+05  0.000E+00  0.000E+00  0.000E+00  4.22104E+01  1.535E-01  2.000E+01  2.000E+04 -9.107E-02
   1   13   15     1    15    1.1136E+05 -1.9951E+03   1.1335E+05  0.000E+00  0.000E+00  0.000E+00  4.17347E+01  1.551E-01  2.000E+01  2.000E+04 -9.975E-02
   1   12   16     1    16    1.1335E+05 -2.2304E+03   1.1558E+05  0.000E+00  0.000E+00  0.000E+00  4.12591E+01  1.569E-01  2.000E+01  2.000E+04 -1.115E-01
   1   12   17     1    17    1.1558E+05 -1.3249E+03   1.1691E+05  0.000E+00  0.000E+00  0.000E+00  4.07833E+01  1.583E-01  2.000E+01  2.000E+04 -6.624E-02
   1   12   18     1    18    1.1691E+05 -1.0871E+03   1.1800E+05  0.000E+00  0.000E+00  0.000E+00  4.03070E+01  1.593E-01  2.000E+01  2.000E+04 -5.436E-02
   1   12   19     1    19    1.1800E+05 -8.4889E+02   1.1884E+05  0.000E+00  0.000E+00  0.000E+00  3.98305E+01  1.601E-01  2.000E+01  2.000E+04 -4.244E-02
   1   13   20     1    20    1.1884E+05 -8.0476E+02   1.1965E+05  0.000E+00  0.000E+00  0.000E+00  3.93539E+01  1.608E-01  2.000E+01  2.000E+04 -4.024E-02
   1   14   21     1    21    1.1965E+05 -1.2526E+03   1.2090E+05  0.000E+00  0.000E+00  0.000E+00  3.88775E+01  1.616E-01  2.000E+01  2.000E+04 -6.263E-02
   1   14   22     1    22    1.2090E+05  5.1448E+03   1.1576E+05  0.000E+00  0.000E+00  0.000E+00  3.83987E+01  1.600E-01  2.000E+01  2.000E+04  2.572E-01
   1    9   30     2     1    5.0000E+04 -8.2194E+01   5.0082E+04  0.000E+00  0.000E+00  0.000E+00  4.02409E+01  1.159E-01  2.000E+01  2.000E+04 -4.110E-03
   1    9   29     2     2    5.0082E+04 -2.5145E+02   5.0334E+04  0.000E+00  0.000E+00  0.000E+00  3.99912E+01  1.162E-01  2.000E+01  2.000E+04 -1.257E-02
   1    9   28     2     3    5.0334E+04 -1.1746E+02   5.0451E+04  0.000E+00  0.000E+00  0.000E+00  3.97414E+01  1.164E-01  2.000E+01  2.000E+04 -5.873E-03
   1    9   27     2     4    5.0451E+04  9.5417E+02   4.9497E+04  0.000E+00  0.000E+00  0.000E+00  3.94908E+01  1.158E-01  2.000E+01  2.000E+04  4.771E-02
   1   10   26     2     5    4.9497E+04  9.3827E+02   4.8559E+04  0.000E+00  0.000E+00  0.000E+00  3.92395E+01  1.145E-01  2.000E+01  2.000E+04  4.691E-02
   1   11   25     2     6    4.8559E+04  1.0417E+03   4.7517E+04  0.000E+00  0.000E+00  0.000E+00  3.89881E+01  1.131E-01  2.000E+01  2.000E+04  5.208E-02
   1   12   24     2     7    4.7517E+04  1.6780E+03   4.5839E+04  0.000E+00  0.000E+00  0.000E+00  3.87362E+01  1.112E-01  2.000E+01  2.000E+04  8.390E-02
   1   13   23     2     8    4.5839E+04  1.7692E+02   4.5662E+04  0.000E+00  0.000E+00  0.000E+00  3.84849E+01  1.099E-01  2.000E+01  2.000E+04  8.846E-03
   1   14   22     2     9    4.5662E+04  1.8395E+03   4.3823E+04  0.000E+00  0.000E+00  0.000E+00  3.82334E+01  1.084E-01  2.000E+01  2.000E+04  9.198E-02
   1   14   22     3     1    1.5958E+05 -8.4891E+03   1.6807E+05  0.000E+00  0.000E+00  0.000E+00  3.77170E+01  1.614E-01  2.000E+01  2.000E+04 -4.245E-01
   1   15   23     3     2    1.6807E+05 -5.5085E+02   1.6862E+05  0.000E+00  0.000E+00  0.000E+00  3.68307E+01  1.641E-01  2.000E+01  2.000E+04 -2.754E-02
   1   15   24     3     3    1.6862E+05 -2.8535E+02   1.6890E+05  0.000E+00  0.000E+00  0.000E+00  3.59421E+01  1.643E-01  2.000E+01  2.000E+04 -1.427E-02
   1   15   25     3     4    1.6890E+05 -2.7695E+02   1.6918E+05  0.000E+00  0.000E+00  0.000E+00  3.50534E+01  1.645E-01  2.000E+01  2.000E+04 -1.385E-02
   1   15   26     3     5    1.6918E+05 -3.3289E+02   1.6951E+05  0.000E+00  0.000E+00  0.000E+00  3.41647E+01  1.647E-01  2.000E+01  2.000E+04 -1.664E-02
   1   16   27     3     6    1.6951E+05 -3.6702E+02   1.6988E+05  0.000E+00  0.000E+00  0.000E+00  3.32760E+01  1.649E-01  2.000E+01  2.000E+04 -1.835E-02
   1   17   28     3     7    1.6988E+05 -1.5601E+03   1.7144E+05  0.000E+00  0.000E+00  0.000E+00  3.23876E+01  1.654E-01  2.000E+01  2.000E+04 -7.800E-02
   1   18   29     3     8    1.7144E+05 -2.9195E+03   1.7436E+05  0.000E+00  0.000E+00  0.000E+00  3.15000E+01  1.667E-01  2.000E+01  2.000E+04 -1.460E-01
   1   18   30     3     9    1.7436E+05 -3.1881E+03   1.7755E+05  0.000E+00  0.000E+00  0.000E+00  3.06129E+01  1.685E-01  2.000E+01  2.000E+04 -1.594E-01



1
              HEAD IN LAYER   1 AT END OF TIME STEP   1 IN STRESS PERIOD    8
  ---------------------------------------------------------------------------

          1      2      3      4      5      6      7      8      9     10
         11     12     13     14     15     16     17     18     19     20
         21     22     23     24     25     26     27     28     29     30
 .........................................................................
   1  ****** ****** ****** ****** ****** ****** ****** ****** ****** ******
      ****** ****** ****** ****** ****** ****** ****** ****** ****** ******
      ****** ****** ****** ****** ****** ****** ****** ****** ****** ******
   2  ****** ****** ****** ****** ****** ****** ****** ****** ****** ******
      ****** ****** ****** ****** ****** ****** ****** ****** ****** ******
      ****** ****** ****** ****** ****** ****** ****** ****** ****** ******
   3  ****** ****** ****** ****** ****** ****** ****** ****** ****** ******
      ****** ****** ****** ****** ****** ****** ****** ****** ****** ******
      ****** ****** ****** ****** ****** ****** ****** ****** ****** ******
   4  ****** ****** ****** ****** ****** ****** ****** ****** ****** ******
      ****** ****** ****** ****** ****** ****** ****** ****** ****** ******
      ****** ****** ****** ****** ****** ****** ****** ****** ****** ******
   5  ****** ****** ****** ****** ****** ****** ****** ****** ****** ******
      ****** ****** ****** ****** ****** ****** ****** ****** ****** ******
      ****** ****** ****** ****** ****** ****** ****** ****** ****** ******
   6  ****** ****** ****** ****** ****** ****** ****** ****** ****** ******
      ****** ****** ****** ****** ****** ****** ****** ****** ****** ******
      ****** ****** ****** ****** ****** ****** ****** ****** ****** ******
   7  ****** ****** ****** ****** ****** ****** ****** ****** ****** ******
      ****** ****** ****** ****** ****** ****** ****** ****** ****** ******
      ****** ****** ****** ****** ****** ****** ****** ****** ****** ******
   8  ****** ****** ****** ****** ****** ****** ****** ****** ****** ******
      ****** ****** ****** ****** ****** ****** ****** ****** ****** ******
      ****** ****** ****** ****** ****** ****** ****** ****** ****** ******
   9  ****** ****** ****** ****** ****** ****** ****** ****** ****** ******
      ****** ****** ****** ****** ****** ****** ****** ****** ****** ******
      ****** ****** ****** ****** ****** ****** ****** ****** ****** ******
  10  ****** ****** ****** ****** ****** ****** ****** ****** ****** ******
      ****** ****** ****** ****** ****** ****** ****** ****** ****** ******
      ****** ****** ****** ****** ****** ****** ****** ****** ****** ******
  11  ****** ****** ****** ****** ****** ****** ****** ****** ****** ******
      ****** ****** ****** ****** ****** ****** ****** ****** ****** ******
      ****** ****** ****** ****** ****** ****** ****** ****** ****** ******
  12  ****** ****** ****** ****** ****** ****** ****** ****** ****** ******
      ****** ****** ****** ****** ****** ****** ****** ****** ****** ******
      ****** ****** ****** ****** ****** ****** ****** ****** ****** ******
  13  ****** ****** ****** ****** ****** ****** ****** ****** ****** ******
      ****** ****** ****** ****** ****** ****** ****** ****** ****** ******
      ****** ****** ****** ****** ****** ****** ****** ****** ****** ******
  14  ****** ****** ****** ****** ****** ****** ****** ****** ****** ******
      ****** ****** ****** ****** ****** ****** ****** ****** ****** ******
      ****** ****** ****** ****** ****** ****** ****** ****** ****** ******
  15  ****** ****** ****** ****** ****** ****** ****** ****** ****** ******
      ****** ****** ****** ****** ****** ****** ****** ****** ****** ******
      ****** ****** ****** ****** ****** ****** ****** ****** ****** ******
  16  ****** ****** ****** ****** ****** ****** ****** ****** ****** ******
      ****** ****** ****** ****** ****** ****** ****** ****** ****** ******
      ****** ****** ****** ****** ****** ****** ****** ****** ****** ******
  17  ****** ****** ****** ****** ****** ****** ****** ****** ****** ******
      ****** ****** ****** ****** ****** ****** ****** ****** ****** ******
      ****** ****** ****** ****** ****** ****** ****** ****** ****** ******
  18  ****** ****** ****** ****** ****** ****** ****** ****** ****** ******
      ****** ****** ****** ****** ****** ****** ****** ****** ****** ******
      ****** ****** ****** ****** ****** ****** ****** ****** ****** ******
  19  ****** ****** ****** ****** ****** ****** ****** ****** ****** ******
      ****** ****** ****** ****** ****** ****** ****** ****** ****** ******
      ****** ****** ****** ****** ****** ****** ****** ****** ****** ******
  20  ****** ****** ****** ****** ****** ****** ****** ****** ****** ******
      ****** ****** ****** ****** ****** ****** ****** ****** ****** ******
      ****** ****** ****** ****** ****** ****** ****** ****** ****** ******
  21  ****** ****** ****** ****** ****** ****** ****** ****** ****** ******
      ****** ****** ****** ****** ****** ****** ****** ****** ****** ******
      ****** ****** ****** ****** ****** ****** ****** ****** ****** ******
  22  ****** ****** ****** ****** ****** ****** ****** ****** ****** ******
      ****** ****** ****** ****** ****** ****** ****** ****** ****** ******
      ****** ****** ****** ****** ****** ****** ****** ****** ****** ******
  23  ****** ****** ****** ****** ****** ****** ****** ****** ****** ******
      ****** ****** ****** ****** ****** ****** ****** ****** ****** ******
      ****** ****** ****** ****** ****** ****** ****** ****** ****** ******
  24  ****** ****** ****** ****** ****** ****** ****** ****** ****** ******
      ****** ****** ****** ****** ****** ****** ****** ****** ****** ******
      ****** ****** ****** ****** ****** ****** ****** ****** ****** ******
  25  ****** ****** ****** ****** ****** ****** ****** ****** ****** ******
      ****** ****** ****** ****** ****** ****** ****** ****** ****** ******
      ****** ****** ****** ****** ****** ****** ****** ****** ****** ******

 HEAD WILL BE SAVED ON UNIT   51 AT END OF TIME STEP    1, STRESS PERIOD    8
1
  VOLUMETRIC BUDGET FOR ENTIRE MODEL AT END OF TIME STEP    1, STRESS PERIOD   8
  ------------------------------------------------------------------------------

     CUMULATIVE VOLUMES      L**3       RATES FOR THIS TIME STEP      L**3/T
     ------------------                 ------------------------

           IN:                                      IN:
           ---                                      ---
             STORAGE =    33165016.1771               STORAGE =        1478.1469
       CONSTANT HEAD =    19181437.2302         CONSTANT HEAD =       32941.6326
               WELLS =           0.0000                 WELLS =           0.0000
            RECHARGE =    17608800.0000              RECHARGE =       27600.0000
      STREAM LEAKAGE =     7071904.4478        STREAM LEAKAGE =       12606.1248

            TOTAL IN =    77027157.8551              TOTAL IN =       74625.9043

          OUT:                                     OUT:
          ----                                     ----
             STORAGE =      946928.1912               STORAGE =        1580.0458
       CONSTANT HEAD =           0.0000         CONSTANT HEAD =           0.0000
               WELLS =    24010259.1107                 WELLS =       32890.7659
            RECHARGE =           0.0000              RECHARGE =           0.0000
      STREAM LEAKAGE =    52069972.4451        STREAM LEAKAGE =       40155.0843

           TOTAL OUT =    77027159.7470             TOTAL OUT =       74625.8960

            IN - OUT =          -1.8919              IN - OUT =       8.3455E-03

 PERCENT DISCREPANCY =          -0.00     PERCENT DISCREPANCY =           0.00






         TIME SUMMARY AT END OF TIME STEP    1 IN STRESS PERIOD    8
                    SECONDS     MINUTES      HOURS       DAYS        YEARS
                    -----------------------------------------------------------
   TIME STEP LENGTH 7.86240E+06 1.31040E+05  2184.0      91.000     0.24914    
 STRESS PERIOD TIME 7.86240E+06 1.31040E+05  2184.0      91.000     0.24914    
         TOTAL TIME 6.30720E+07 1.05120E+06  17520.      730.00      1.9986    
1
1
                            STRESS PERIOD NO.    9, LENGTH =   92.00000    
                            -----------------------------------------------

                              NUMBER OF TIME STEPS =     1

                               MULTIPLIER FOR DELT =     1.500

                            INITIAL TIME STEP SIZE =   92.00000    

 WELL NO.  LAYER   ROW   COL   STRESS RATE         
 --------------------------------------------------
      1      1     14      6       0.000    
      2      1      3      9       0.000    
      3      1     20     10       0.000    
      4      1     14     20       0.000    
      5      1      8     26      -8223.    
      6      1     11     23      -7775.    
      7      1      7     20      -8549.    
      8      1     17      2      -8344.    

      8 WELLS

                 RECHARGE =  5.000000E-04

 REUSING STREAM SEGMENT DATA FROM LAST STRESS PERIOD
 
 SOLVING FOR HEAD 


     6 CALLS TO PCG ROUTINE FOR TIME STEP   1 IN STRESS PERIOD    9
    23 TOTAL ITERATIONS

 OUTPUT CONTROL FOR STRESS PERIOD    9   TIME STEP    1
    SAVE BUDGET
    SAVE HEAD FOR ALL LAYERS
    PRINT HEAD FOR ALL LAYERS
 UBDSV2 SAVING "STREAMFLOW OUT  " ON UNIT  50 AT TIME STEP  1, STRESS PERIOD   9



 STREAM LISTING     PERIOD      9   STEP        1

 LAYER ROW COL. STREAM  RCH.  FLOW INTO     FLOW TO   FLOW OUT OF   OVRLND.     DIRECT     STREAM       STREAM     STREAM     STREAM   STREAMBED  STREAMBED
                SEG.NO.  NO.  STRM. RCH.    AQUIFER    STRM. RCH.    RUNOFF     PRECIP       ET          HEAD       DEPTH      WIDTH   CONDCTNC.   GRADIENT

   1   13    1     1     1    1.0000E+05 -4.8219E+02   1.0048E+05  0.000E+00  0.000E+00  0.000E+00  4.84062E+01  1.449E-01  2.000E+01  2.000E+04 -2.411E-02
   1   13    2     1     2    1.0048E+05 -1.4700E+03   1.0195E+05  0.000E+00  0.000E+00  0.000E+00  4.79298E+01  1.457E-01  2.000E+01  2.000E+04 -7.350E-02
   1   14    3     1     3    1.0195E+05 -3.1949E+01   1.0198E+05  0.000E+00  0.000E+00  0.000E+00  4.74532E+01  1.464E-01  2.000E+01  2.000E+04 -1.597E-03
   1   15    4     1     4    1.0198E+05  8.2766E+01   1.0190E+05  0.000E+00  0.000E+00  0.000E+00  4.69759E+01  1.463E-01  2.000E+01  2.000E+04  4.138E-03
   1   16    5     1     5    1.0190E+05  1.0151E+03   1.0089E+05  0.000E+00  0.000E+00  0.000E+00  4.64981E+01  1.459E-01  2.000E+01  2.000E+04  5.075E-02
   1   16    6     1     6    1.0089E+05 -2.9873E+02   1.0118E+05  0.000E+00  0.000E+00  0.000E+00  4.60205E+01  1.455E-01  2.000E+01  2.000E+04 -1.494E-02
   1   16    7     1     7    1.0118E+05 -5.3930E+02   1.0172E+05  0.000E+00  0.000E+00  0.000E+00  4.55436E+01  1.459E-01  2.000E+01  2.000E+04 -2.696E-02
   1   16    8     1     8    1.0172E+05 -6.6497E+02   1.0239E+05  0.000E+00  0.000E+00  0.000E+00  4.50669E+01  1.464E-01  2.000E+01  2.000E+04 -3.325E-02
   1   16    9     1     9    1.0239E+05 -7.4073E+02   1.0313E+05  0.000E+00  0.000E+00  0.000E+00  4.45902E+01  1.470E-01  2.000E+01  2.000E+04 -3.704E-02
   1   16   10     1    10    1.0313E+05 -7.8888E+02   1.0392E+05  0.000E+00  0.000E+00  0.000E+00  4.41136E+01  1.477E-01  2.000E+01  2.000E+04 -3.944E-02
   1   16   11     1    11    1.0392E+05 -8.3798E+02   1.0476E+05  0.000E+00  0.000E+00  0.000E+00  4.36370E+01  1.484E-01  2.000E+01  2.000E+04 -4.190E-02
   1   16   12     1    12    1.0476E+05 -1.5025E+03   1.0626E+05  0.000E+00  0.000E+00  0.000E+00  4.31607E+01  1.494E-01  2.000E+01  2.000E+04 -7.513E-02
   1   15   13     1    13    1.0626E+05 -1.4014E+03   1.0766E+05  0.000E+00  0.000E+00  0.000E+00  4.26847E+01  1.506E-01  2.000E+01  2.000E+04 -7.007E-02
   1   14   14     1    14    1.0766E+05 -1.5985E+03   1.0926E+05  0.000E+00  0.000E+00  0.000E+00  4.22087E+01  1.519E-01  2.000E+01  2.000E+04 -7.993E-02
   1   13   15     1    15    1.0926E+05 -1.7662E+03   1.1103E+05  0.000E+00  0.000E+00  0.000E+00  4.17328E+01  1.533E-01  2.000E+01  2.000E+04 -8.831E-02
   1   12   16     1    16    1.1103E+05 -1.9927E+03   1.1302E+05  0.000E+00  0.000E+00  0.000E+00  4.12571E+01  1.548E-01  2.000E+01  2.000E+04 -9.963E-02
   1   12   17     1    17    1.1302E+05 -1.1618E+03   1.1418E+05  0.000E+00  0.000E+00  0.000E+00  4.07812E+01  1.562E-01  2.000E+01  2.000E+04 -5.809E-02
   1   12   18     1    18    1.1418E+05 -9.3164E+02   1.1511E+05  0.000E+00  0.000E+00  0.000E+00  4.03047E+01  1.570E-01  2.000E+01  2.000E+04 -4.658E-02
   1   12   19     1    19    1.1511E+05 -6.6145E+02   1.1577E+05  0.000E+00  0.000E+00  0.000E+00  3.98281E+01  1.577E-01  2.000E+01  2.000E+04 -3.307E-02
   1   13   20     1    20    1.1577E+05 -6.3154E+02   1.1640E+05  0.000E+00  0.000E+00  0.000E+00  3.93514E+01  1.582E-01  2.000E+01  2.000E+04 -3.158E-02
   1   14   21     1    21    1.1640E+05 -1.0822E+03   1.1749E+05  0.000E+00  0.000E+00  0.000E+00  3.88748E+01  1.589E-01  2.000E+01  2.000E+04 -5.411E-02
   1   14   22     1    22    1.1749E+05  5.1839E+03   1.1230E+05  0.000E+00  0.000E+00  0.000E+00  3.83959E+01  1.572E-01  2.000E+01  2.000E+04  2.592E-01
   1    9   30     2     1    5.0000E+04  4.1624E+01   4.9958E+04  0.000E+00  0.000E+00  0.000E+00  4.02408E+01  1.158E-01  2.000E+01  2.000E+04  2.081E-03
   1    9   29     2     2    4.9958E+04 -1.2738E+02   5.0086E+04  0.000E+00  0.000E+00  0.000E+00  3.99909E+01  1.159E-01  2.000E+01  2.000E+04 -6.369E-03
   1    9   28     2     3    5.0086E+04  8.5681E+00   5.0077E+04  0.000E+00  0.000E+00  0.000E+00  3.97410E+01  1.160E-01  2.000E+01  2.000E+04  4.284E-04
   1    9   27     2     4    5.0077E+04  1.1318E+03   4.8945E+04  0.000E+00  0.000E+00  0.000E+00  3.94902E+01  1.152E-01  2.000E+01  2.000E+04  5.659E-02
   1   10   26     2     5    4.8945E+04  1.1127E+03   4.7833E+04  0.000E+00  0.000E+00  0.000E+00  3.92386E+01  1.136E-01  2.000E+01  2.000E+04  5.563E-02
   1   11   25     2     6    4.7833E+04  1.2085E+03   4.6624E+04  0.000E+00  0.000E+00  0.000E+00  3.89870E+01  1.120E-01  2.000E+01  2.000E+04  6.042E-02
   1   12   24     2     7    4.6624E+04  1.8313E+03   4.4793E+04  0.000E+00  0.000E+00  0.000E+00  3.87348E+01  1.098E-01  2.000E+01  2.000E+04  9.157E-02
   1   13   23     2     8    4.4793E+04  2.2408E+02   4.4569E+04  0.000E+00  0.000E+00  0.000E+00  3.84833E+01  1.083E-01  2.000E+01  2.000E+04  1.120E-02
   1   14   22     2     9    4.4569E+04  1.9019E+03   4.2667E+04  0.000E+00  0.000E+00  0.000E+00  3.82318E+01  1.068E-01  2.000E+01  2.000E+04  9.509E-02
   1   14   22     3     1    1.5497E+05 -8.4489E+03   1.6342E+05  0.000E+00  0.000E+00  0.000E+00  3.77142E+01  1.587E-01  2.000E+01  2.000E+04 -4.224E-01
   1   15   23     3     2    1.6342E+05 -4.9867E+02   1.6392E+05  0.000E+00  0.000E+00  0.000E+00  3.68280E+01  1.613E-01  2.000E+01  2.000E+04 -2.493E-02
   1   15   24     3     3    1.6392E+05 -2.4259E+02   1.6416E+05  0.000E+00  0.000E+00  0.000E+00  3.59393E+01  1.615E-01  2.000E+01  2.000E+04 -1.213E-02
   1   15   25     3     4    1.6416E+05 -2.3391E+02   1.6439E+05  0.000E+00  0.000E+00  0.000E+00  3.50506E+01  1.617E-01  2.000E+01  2.000E+04 -1.170E-02
   1   15   26     3     5    1.6439E+05 -2.8545E+02   1.6468E+05  0.000E+00  0.000E+00  0.000E+00  3.41618E+01  1.618E-01  2.000E+01  2.000E+04 -1.427E-02
   1   16   27     3     6    1.6468E+05 -3.1129E+02   1.6499E+05  0.000E+00  0.000E+00  0.000E+00  3.32731E+01  1.620E-01  2.000E+01  2.000E+04 -1.556E-02
   1   17   28     3     7    1.6499E+05 -1.4075E+03   1.6640E+05  0.000E+00  0.000E+00  0.000E+00  3.23847E+01  1.625E-01  2.000E+01  2.000E+04 -7.037E-02
   1   18   29     3     8    1.6640E+05 -2.7455E+03   1.6914E+05  0.000E+00  0.000E+00  0.000E+00  3.14971E+01  1.637E-01  2.000E+01  2.000E+04 -1.373E-01
   1   18   30     3     9    1.6914E+05 -3.0571E+03   1.7220E+05  0.000E+00  0.000E+00  0.000E+00  3.06099E+01  1.654E-01  2.000E+01  2.000E+04 -1.529E-01



1
              HEAD IN LAYER   1 AT END OF TIME STEP   1 IN STRESS PERIOD    9
  ---------------------------------------------------------------------------

          1      2      3      4      5      6      7      8      9     10
         11     12     13     14     15     16     17     18     19     20
         21     22     23     24     25     26     27     28     29     30
 .........................................................................
   1  ****** ****** ****** ****** ****** ****** ****** ****** ****** ******
      ****** ****** ****** ****** ****** ****** ****** ****** ****** ******
      ****** ****** ****** ****** ****** ****** ****** ****** ****** ******
   2  ****** ****** ****** ****** ****** ****** ****** ****** ****** ******
      ****** ****** ****** ****** ****** ****** ****** ****** ****** ******
      ****** ****** ****** ****** ****** ****** ****** ****** ****** ******
   3  ****** ****** ****** ****** ****** ****** ****** ****** ****** ******
      ****** ****** ****** ****** ****** ****** ****** ****** ****** ******
      ****** ****** ****** ****** ****** ****** ****** ****** ****** ******
   4  ****** ****** ****** ****** ****** ****** ****** ****** ****** ******
      ****** ****** ****** ****** ****** ****** ****** ****** ****** ******
      ****** ****** ****** ****** ****** ****** ****** ****** ****** ******
   5  ****** ****** ****** ****** ****** ****** ****** ****** ****** ******
      ****** ****** ****** ****** ****** ****** ****** ****** ****** ******
      ****** ****** ****** ****** ****** ****** ****** ****** ****** ******
   6  ****** ****** ****** ****** ****** ****** ****** ****** ****** ******
      ****** ****** ****** ****** ****** ****** ****** ****** ****** ******
      ****** ****** ****** ****** ****** ****** ****** ****** ****** ******
   7  ****** ****** ****** ****** ****** ****** ****** ****** ****** ******
      ****** ****** ****** ****** ****** ****** ****** ****** ****** ******
      ****** ****** ****** ****** ****** ****** ****** ****** ****** ******
   8  ****** ****** ****** ****** ****** ****** ****** ****** ****** ******
      ****** ****** ****** ****** ****** ****** ****** ****** ****** ******
      ****** ****** ****** ****** ****** ****** ****** ****** ****** ******
   9  ****** ****** ****** ****** ****** ****** ****** ****** ****** ******
      ****** ****** ****** ****** ****** ****** ****** ****** ****** ******
      ****** ****** ****** ****** ****** ****** ****** ****** ****** ******
  10  ****** ****** ****** ****** ****** ****** ****** ****** ****** ******
      ****** ****** ****** ****** ****** ****** ****** ****** ****** ******
      ****** ****** ****** ****** ****** ****** ****** ****** ****** ******
  11  ****** ****** ****** ****** ****** ****** ****** ****** ****** ******
      ****** ****** ****** ****** ****** ****** ****** ****** ****** ******
      ****** ****** ****** ****** ****** ****** ****** ****** ****** ******
  12  ****** ****** ****** ****** ****** ****** ****** ****** ****** ******
      ****** ****** ****** ****** ****** ****** ****** ****** ****** ******
      ****** ****** ****** ****** ****** ****** ****** ****** ****** ******
  13  ****** ****** ****** ****** ****** ****** ****** ****** ****** ******
      ****** ****** ****** ****** ****** ****** ****** ****** ****** ******
      ****** ****** ****** ****** ****** ****** ****** ****** ****** ******
  14  ****** ****** ****** ****** ****** ****** ****** ****** ****** ******
      ****** ****** ****** ****** ****** ****** ****** ****** ****** ******
      ****** ****** ****** ****** ****** ****** ****** ****** ****** ******
  15  ****** ****** ****** ****** ****** ****** ****** ****** ****** ******
      ****** ****** ****** ****** ****** ****** ****** ****** ****** ******
      ****** ****** ****** ****** ****** ****** ****** ****** ****** ******
  16  ****** ****** ****** ****** ****** ****** ****** ****** ****** ******
      ****** ****** ****** ****** ****** ****** ****** ****** ****** ******
      ****** ****** ****** ****** ****** ****** ****** ****** ****** ******
  17  ****** ****** ****** ****** ****** ****** ****** ****** ****** ******
      ****** ****** ****** ****** ****** ****** ****** ****** ****** ******
      ****** ****** ****** ****** ****** ****** ****** ****** ****** ******
  18  ****** ****** ****** ****** ****** ****** ****** ****** ****** ******
      ****** ****** ****** ****** ****** ****** ****** ****** ****** ******
      ****** ****** ****** ****** ****** ****** ****** ****** ****** ******
  19  ****** ****** ****** ****** ****** ****** ****** ****** ****** ******
      ****** ****** ****** ****** ****** ****** ****** ****** ****** ******
      ****** ****** ****** ****** ****** ****** ****** ****** ****** ******
  20  ****** ****** ****** ****** ****** ****** ****** ****** ****** ******
      ****** ****** ****** ****** ****** ****** ****** ****** ****** ******
      ****** ****** ****** ****** ****** ****** ****** ****** ****** ******
  21  ****** ****** ****** ****** ****** ****** ****** ****** ****** ******
      ****** ****** ****** ****** ****** ****** ****** ****** ****** ******
      ****** ****** ****** ****** ****** ****** ****** ****** ****** ******
  22  ****** ****** ****** ****** ****** ****** ****** ****** ****** ******
      ****** ****** ****** ****** ****** ****** ****** ****** ****** ******
      ****** ****** ****** ****** ****** ****** ****** ****** ****** ******
  23  ****** ****** ****** ****** ****** ****** ****** ****** ****** ******
      ****** ****** ****** ****** ****** ****** ****** ****** ****** ******
      ****** ****** ****** ****** ****** ****** ****** ****** ****** ******
  24  ****** ****** ****** ****** ****** ****** ****** ****** ****** ******
      ****** ****** ****** ****** ****** ****** ****** ****** ****** ******
      ****** ****** ****** ****** ****** ****** ****** ****** ****** ******
  25  ****** ****** ****** ****** ****** ****** ****** ****** ****** ******
      ****** ****** ****** ****** ****** ****** ****** ****** ****** ******
      ****** ****** ****** ****** ****** ****** ****** ****** ****** ******

 HEAD WILL BE SAVED ON UNIT   51 AT END OF TIME STEP    1, STRESS PERIOD    9
1
  VOLUMETRIC BUDGET FOR ENTIRE MODEL AT END OF TIME STEP    1, STRESS PERIOD   9
  ------------------------------------------------------------------------------

     CUMULATIVE VOLUMES      L**3       RATES FOR THIS TIME STEP      L**3/T
     ------------------                 ------------------------

           IN:                                      IN:
           ---                                      ---
             STORAGE =    33826077.1037               STORAGE =        7185.4449
       CONSTANT HEAD =    22319201.2442         CONSTANT HEAD =       34106.1306
               WELLS =           0.0000                 WELLS =           0.0000
            RECHARGE =    18878400.0000              RECHARGE =       13800.0000
      STREAM LEAKAGE =     8336184.7647        STREAM LEAKAGE =       13742.1774

            TOTAL IN =    83359863.1126              TOTAL IN =       68833.7528

          OUT:                                     OUT:
          ----                                     ----
             STORAGE =      946928.1912               STORAGE =           0.0000
       CONSTANT HEAD =           0.0000         CONSTANT HEAD =           0.0000
               WELLS =    27036209.5739                 WELLS =       32890.7659
            RECHARGE =           0.0000              RECHARGE =           0.0000
      STREAM LEAKAGE =    55376727.3122        STREAM LEAKAGE =       35942.9877

           TOTAL OUT =    83359865.0773             TOTAL OUT =       68833.7536

            IN - OUT =          -1.9647              IN - OUT =      -7.9132E-04

 PERCENT DISCREPANCY =          -0.00     PERCENT DISCREPANCY =          -0.00






         TIME SUMMARY AT END OF TIME STEP    1 IN STRESS PERIOD    9
                    SECONDS     MINUTES      HOURS       DAYS        YEARS
                    -----------------------------------------------------------
   TIME STEP LENGTH 7.94880E+06 1.32480E+05  2208.0      92.000     0.25188    
 STRESS PERIOD TIME 7.94880E+06 1.32480E+05  2208.0      92.000     0.25188    
         TOTAL TIME 7.10208E+07 1.18368E+06  19728.      822.00      2.2505    
1
1
                            STRESS PERIOD NO.   10, LENGTH =   91.00000    
                            -----------------------------------------------

                              NUMBER OF TIME STEPS =     1

                               MULTIPLIER FOR DELT =     1.500

                            INITIAL TIME STEP SIZE =   91.00000    

 WELL NO.  LAYER   ROW   COL   STRESS RATE         
 --------------------------------------------------
      1      1     14      6       0.000    
      2      1      3      9       0.000    
      3      1     20     10       0.000    
      4      1     14     20       0.000    
      5      1      8     26      -8223.    
      6      1     11     23      -7775.    
      7      1      7     20      -8549.    
      8      1     17      2      -8344.    

      8 WELLS

                 RECHARGE =  2.000000E-03

 REUSING STREAM SEGMENT DATA FROM LAST STRESS PERIOD
 
 SOLVING FOR HEAD 


     7 CALLS TO PCG ROUTINE FOR TIME STEP   1 IN STRESS PERIOD   10
    26 TOTAL ITERATIONS

 OUTPUT CONTROL FOR STRESS PERIOD   10   TIME STEP    1
    SAVE BUDGET
    SAVE HEAD FOR ALL LAYERS
    PRINT HEAD FOR ALL LAYERS
 UBDSV2 SAVING "STREAMFLOW OUT  " ON UNIT  50 AT TIME STEP  1, STRESS PERIOD  10



 STREAM LISTING     PERIOD     10   STEP        1

 LAYER ROW COL. STREAM  RCH.  FLOW INTO     FLOW TO   FLOW OUT OF   OVRLND.     DIRECT     STREAM       STREAM     STREAM     STREAM   STREAMBED  STREAMBED
                SEG.NO.  NO.  STRM. RCH.    AQUIFER    STRM. RCH.    RUNOFF     PRECIP       ET          HEAD       DEPTH      WIDTH   CONDCTNC.   GRADIENT

   1   13    1     1     1    1.0000E+05 -9.3461E+02   1.0093E+05  0.000E+00  0.000E+00  0.000E+00  4.84064E+01  1.451E-01  2.000E+01  2.000E+04 -4.673E-02
   1   13    2     1     2    1.0093E+05 -1.9714E+03   1.0291E+05  0.000E+00  0.000E+00  0.000E+00  4.79304E+01  1.463E-01  2.000E+01  2.000E+04 -9.857E-02
   1   14    3     1     3    1.0291E+05 -2.1846E+02   1.0312E+05  0.000E+00  0.000E+00  0.000E+00  4.74541E+01  1.473E-01  2.000E+01  2.000E+04 -1.092E-02
   1   15    4     1     4    1.0312E+05 -1.1664E+02   1.0324E+05  0.000E+00  0.000E+00  0.000E+00  4.69769E+01  1.474E-01  2.000E+01  2.000E+04 -5.832E-03
   1   16    5     1     5    1.0324E+05  3.9637E+02   1.0284E+05  0.000E+00  0.000E+00  0.000E+00  4.64995E+01  1.473E-01  2.000E+01  2.000E+04  1.982E-02
   1   16    6     1     6    1.0284E+05 -6.6087E+02   1.0351E+05  0.000E+00  0.000E+00  0.000E+00  4.60224E+01  1.474E-01  2.000E+01  2.000E+04 -3.304E-02
   1   16    7     1     7    1.0351E+05 -8.8369E+02   1.0439E+05  0.000E+00  0.000E+00  0.000E+00  4.55458E+01  1.481E-01  2.000E+01  2.000E+04 -4.418E-02
   1   16    8     1     8    1.0439E+05 -1.0039E+03   1.0539E+05  0.000E+00  0.000E+00  0.000E+00  4.50693E+01  1.489E-01  2.000E+01  2.000E+04 -5.020E-02
   1   16    9     1     9    1.0539E+05 -1.0782E+03   1.0647E+05  0.000E+00  0.000E+00  0.000E+00  4.45929E+01  1.497E-01  2.000E+01  2.000E+04 -5.391E-02
   1   16   10     1    10    1.0647E+05 -1.1266E+03   1.0760E+05  0.000E+00  0.000E+00  0.000E+00  4.41166E+01  1.507E-01  2.000E+01  2.000E+04 -5.633E-02
   1   16   11     1    11    1.0760E+05 -1.1792E+03   1.0878E+05  0.000E+00  0.000E+00  0.000E+00  4.36403E+01  1.516E-01  2.000E+01  2.000E+04 -5.896E-02
   1   16   12     1    12    1.0878E+05 -2.0723E+03   1.1085E+05  0.000E+00  0.000E+00  0.000E+00  4.31644E+01  1.530E-01  2.000E+01  2.000E+04 -1.036E-01
   1   15   13     1    13    1.1085E+05 -1.9881E+03   1.1284E+05  0.000E+00  0.000E+00  0.000E+00  4.26888E+01  1.547E-01  2.000E+01  2.000E+04 -9.940E-02
   1   14   14     1    14    1.1284E+05 -2.1924E+03   1.1503E+05  0.000E+00  0.000E+00  0.000E+00  4.22132E+01  1.564E-01  2.000E+01  2.000E+04 -1.096E-01
   1   13   15     1    15    1.1503E+05 -2.3499E+03   1.1738E+05  0.000E+00  0.000E+00  0.000E+00  4.17378E+01  1.583E-01  2.000E+01  2.000E+04 -1.175E-01
   1   12   16     1    16    1.1738E+05 -2.5547E+03   1.1993E+05  0.000E+00  0.000E+00  0.000E+00  4.12626E+01  1.603E-01  2.000E+01  2.000E+04 -1.277E-01
   1   12   17     1    17    1.1993E+05 -1.5875E+03   1.2152E+05  0.000E+00  0.000E+00  0.000E+00  4.07870E+01  1.620E-01  2.000E+01  2.000E+04 -7.937E-02
   1   12   18     1    18    1.2152E+05 -1.3531E+03   1.2288E+05  0.000E+00  0.000E+00  0.000E+00  4.03109E+01  1.631E-01  2.000E+01  2.000E+04 -6.766E-02
   1   12   19     1    19    1.2288E+05 -1.1800E+03   1.2406E+05  0.000E+00  0.000E+00  0.000E+00  3.98346E+01  1.642E-01  2.000E+01  2.000E+04 -5.900E-02
   1   13   20     1    20    1.2406E+05 -1.1531E+03   1.2521E+05  0.000E+00  0.000E+00  0.000E+00  3.93583E+01  1.651E-01  2.000E+01  2.000E+04 -5.766E-02
   1   14   21     1    21    1.2521E+05 -1.6081E+03   1.2682E+05  0.000E+00  0.000E+00  0.000E+00  3.88821E+01  1.662E-01  2.000E+01  2.000E+04 -8.040E-02
   1   14   22     1    22    1.2682E+05  5.0536E+03   1.2176E+05  0.000E+00  0.000E+00  0.000E+00  3.84034E+01  1.648E-01  2.000E+01  2.000E+04  2.527E-01
   1    9   30     2     1    5.0000E+04 -3.7243E+02   5.0372E+04  0.000E+00  0.000E+00  0.000E+00  4.02411E+01  1.161E-01  2.000E+01  2.000E+04 -1.862E-02
   1    9   29     2     2    5.0372E+04 -5.3914E+02   5.0912E+04  0.000E+00  0.000E+00  0.000E+00  3.99918E+01  1.168E-01  2.000E+01  2.000E+04 -2.696E-02
   1    9   28     2     3    5.0912E+04 -4.0237E+02   5.1314E+04  0.000E+00  0.000E+00  0.000E+00  3.97424E+01  1.174E-01  2.000E+01  2.000E+04 -2.012E-02
   1    9   27     2     4    5.1314E+04  5.7920E+02   5.0735E+04  0.000E+00  0.000E+00  0.000E+00  3.94923E+01  1.173E-01  2.000E+01  2.000E+04  2.896E-02
   1   10   26     2     5    5.0735E+04  5.6002E+02   5.0175E+04  0.000E+00  0.000E+00  0.000E+00  3.92415E+01  1.165E-01  2.000E+01  2.000E+04  2.800E-02
   1   11   25     2     6    5.0175E+04  6.8032E+02   4.9494E+04  0.000E+00  0.000E+00  0.000E+00  3.89906E+01  1.156E-01  2.000E+01  2.000E+04  3.402E-02
   1   12   24     2     7    4.9494E+04  1.3534E+03   4.8141E+04  0.000E+00  0.000E+00  0.000E+00  3.87392E+01  1.142E-01  2.000E+01  2.000E+04  6.767E-02
   1   13   23     2     8    4.8141E+04  7.5467E+01   4.8066E+04  0.000E+00  0.000E+00  0.000E+00  3.84882E+01  1.132E-01  2.000E+01  2.000E+04  3.773E-03
   1   14   22     2     9    4.8066E+04  1.7233E+03   4.6342E+04  0.000E+00  0.000E+00  0.000E+00  3.82369E+01  1.119E-01  2.000E+01  2.000E+04  8.617E-02
   1   14   22     3     1    1.6810E+05 -8.5758E+03   1.7668E+05  0.000E+00  0.000E+00  0.000E+00  3.77220E+01  1.664E-01  2.000E+01  2.000E+04 -4.288E-01
   1   15   23     3     2    1.7668E+05 -6.6140E+02   1.7734E+05  0.000E+00  0.000E+00  0.000E+00  3.68358E+01  1.691E-01  2.000E+01  2.000E+04 -3.307E-02
   1   15   24     3     3    1.7734E+05 -3.7988E+02   1.7772E+05  0.000E+00  0.000E+00  0.000E+00  3.59472E+01  1.694E-01  2.000E+01  2.000E+04 -1.899E-02
   1   15   25     3     4    1.7772E+05 -3.7460E+02   1.7810E+05  0.000E+00  0.000E+00  0.000E+00  3.50585E+01  1.696E-01  2.000E+01  2.000E+04 -1.873E-02
   1   15   26     3     5    1.7810E+05 -4.4776E+02   1.7854E+05  0.000E+00  0.000E+00  0.000E+00  3.41698E+01  1.698E-01  2.000E+01  2.000E+04 -2.239E-02
   1   16   27     3     6    1.7854E+05 -4.9728E+02   1.7904E+05  0.000E+00  0.000E+00  0.000E+00  3.32812E+01  1.701E-01  2.000E+01  2.000E+04 -2.486E-02
   1   17   28     3     7    1.7904E+05 -1.9286E+03   1.8097E+05  0.000E+00  0.000E+00  0.000E+00  3.23930E+01  1.708E-01  2.000E+01  2.000E+04 -9.643E-02
   1   18   29     3     8    1.8097E+05 -3.2979E+03   1.8427E+05  0.000E+00  0.000E+00  0.000E+00  3.15056E+01  1.723E-01  2.000E+01  2.000E+04 -1.649E-01
   1   18   30     3     9    1.8427E+05 -3.4831E+03   1.8775E+05  0.000E+00  0.000E+00  0.000E+00  3.06186E+01  1.742E-01  2.000E+01  2.000E+04 -1.742E-01



1
              HEAD IN LAYER   1 AT END OF TIME STEP   1 IN STRESS PERIOD   10
  ---------------------------------------------------------------------------

          1      2      3      4      5      6      7      8      9     10
         11     12     13     14     15     16     17     18     19     20
         21     22     23     24     25     26     27     28     29     30
 .........................................................................
   1  ****** ****** ****** ****** ****** ****** ****** ****** ****** ******
      ****** ****** ****** ****** ****** ****** ****** ****** ****** ******
      ****** ****** ****** ****** ****** ****** ****** ****** ****** ******
   2  ****** ****** ****** ****** ****** ****** ****** ****** ****** ******
      ****** ****** ****** ****** ****** ****** ****** ****** ****** ******
      ****** ****** ****** ****** ****** ****** ****** ****** ****** ******
   3  ****** ****** ****** ****** ****** ****** ****** ****** ****** ******
      ****** ****** ****** ****** ****** ****** ****** ****** ****** ******
      ****** ****** ****** ****** ****** ****** ****** ****** ****** ******
   4  ****** ****** ****** ****** ****** ****** ****** ****** ****** ******
      ****** ****** ****** ****** ****** ****** ****** ****** ****** ******
      ****** ****** ****** ****** ****** ****** ****** ****** ****** ******
   5  ****** ****** ****** ****** ****** ****** ****** ****** ****** ******
      ****** ****** ****** ****** ****** ****** ****** ****** ****** ******
      ****** ****** ****** ****** ****** ****** ****** ****** ****** ******
   6  ****** ****** ****** ****** ****** ****** ****** ****** ****** ******
      ****** ****** ****** ****** ****** ****** ****** ****** ****** ******
      ****** ****** ****** ****** ****** ****** ****** ****** ****** ******
   7  ****** ****** ****** ****** ****** ****** ****** ****** ****** ******
      ****** ****** ****** ****** ****** ****** ****** ****** ****** ******
      ****** ****** ****** ****** ****** ****** ****** ****** ****** ******
   8  ****** ****** ****** ****** ****** ****** ****** ****** ****** ******
      ****** ****** ****** ****** ****** ****** ****** ****** ****** ******
      ****** ****** ****** ****** ****** ****** ****** ****** ****** ******
   9  ****** ****** ****** ****** ****** ****** ****** ****** ****** ******
      ****** ****** ****** ****** ****** ****** ****** ****** ****** ******
      ****** ****** ****** ****** ****** ****** ****** ****** ****** ******
  10  ****** ****** ****** ****** ****** ****** ****** ****** ****** ******
      ****** ****** ****** ****** ****** ****** ****** ****** ****** ******
      ****** ****** ****** ****** ****** ****** ****** ****** ****** ******
  11  ****** ****** ****** ****** ****** ****** ****** ****** ****** ******
      ****** ****** ****** ****** ****** ****** ****** ****** ****** ******
      ****** ****** ****** ****** ****** ****** ****** ****** ****** ******
  12  ****** ****** ****** ****** ****** ****** ****** ****** ****** ******
      ****** ****** ****** ****** ****** ****** ****** ****** ****** ******
      ****** ****** ****** ****** ****** ****** ****** ****** ****** ******
  13  ****** ****** ****** ****** ****** ****** ****** ****** ****** ******
      ****** ****** ****** ****** ****** ****** ****** ****** ****** ******
      ****** ****** ****** ****** ****** ****** ****** ****** ****** ******
  14  ****** ****** ****** ****** ****** ****** ****** ****** ****** ******
      ****** ****** ****** ****** ****** ****** ****** ****** ****** ******
      ****** ****** ****** ****** ****** ****** ****** ****** ****** ******
  15  ****** ****** ****** ****** ****** ****** ****** ****** ****** ******
      ****** ****** ****** ****** ****** ****** ****** ****** ****** ******
      ****** ****** ****** ****** ****** ****** ****** ****** ****** ******
  16  ****** ****** ****** ****** ****** ****** ****** ****** ****** ******
      ****** ****** ****** ****** ****** ****** ****** ****** ****** ******
      ****** ****** ****** ****** ****** ****** ****** ****** ****** ******
  17  ****** ****** ****** ****** ****** ****** ****** ****** ****** ******
      ****** ****** ****** ****** ****** ****** ****** ****** ****** ******
      ****** ****** ****** ****** ****** ****** ****** ****** ****** ******
  18  ****** ****** ****** ****** ****** ****** ****** ****** ****** ******
      ****** ****** ****** ****** ****** ****** ****** ****** ****** ******
      ****** ****** ****** ****** ****** ****** ****** ****** ****** ******
  19  ****** ****** ****** ****** ****** ****** ****** ****** ****** ******
      ****** ****** ****** ****** ****** ****** ****** ****** ****** ******
      ****** ****** ****** ****** ****** ****** ****** ****** ****** ******
  20  ****** ****** ****** ****** ****** ****** ****** ****** ****** ******
      ****** ****** ****** ****** ****** ****** ****** ****** ****** ******
      ****** ****** ****** ****** ****** ****** ****** ****** ****** ******
  21  ****** ****** ****** ****** ****** ****** ****** ****** ****** ******
      ****** ****** ****** ****** ****** ****** ****** ****** ****** ******
      ****** ****** ****** ****** ****** ****** ****** ****** ****** ******
  22  ****** ****** ****** ****** ****** ****** ****** ****** ****** ******
      ****** ****** ****** ****** ****** ****** ****** ****** ****** ******
      ****** ****** ****** ****** ****** ****** ****** ****** ****** ******
  23  ****** ****** ****** ****** ****** ****** ****** ****** ****** ******
      ****** ****** ****** ****** ****** ****** ****** ****** ****** ******
      ****** ****** ****** ****** ****** ****** ****** ****** ****** ******
  24  ****** ****** ****** ****** ****** ****** ****** ****** ****** ******
      ****** ****** ****** ****** ****** ****** ****** ****** ****** ******
      ****** ****** ****** ****** ****** ****** ****** ****** ****** ******
  25  ****** ****** ****** ****** ****** ****** ****** ****** ****** ******
      ****** ****** ****** ****** ****** ****** ****** ****** ****** ******
      ****** ****** ****** ****** ****** ****** ****** ****** ****** ******

 HEAD WILL BE SAVED ON UNIT   51 AT END OF TIME STEP    1, STRESS PERIOD   10
1
  VOLUMETRIC BUDGET FOR ENTIRE MODEL AT END OF TIME STEP    1, STRESS PERIOD  10
  ------------------------------------------------------------------------------

     CUMULATIVE VOLUMES      L**3       RATES FOR THIS TIME STEP      L**3/T
     ------------------                 ------------------------

           IN:                                      IN:
           ---                                      ---
             STORAGE =    33826077.1037               STORAGE =           0.0000
       CONSTANT HEAD =    25153938.4320         CONSTANT HEAD =       31150.9581
               WELLS =           0.0000                 WELLS =           0.0000
            RECHARGE =    23901600.0000              RECHARGE =       55200.0000
      STREAM LEAKAGE =     9284563.5509        STREAM LEAKAGE =       10421.7449

            TOTAL IN =    92166179.0866              TOTAL IN =       96772.7030

          OUT:                                     OUT:
          ----                                     ----
             STORAGE =     2376437.4869               STORAGE =       15708.8934
       CONSTANT HEAD =           0.0000         CONSTANT HEAD =           0.0000
               WELLS =    30029269.2713                 WELLS =       32890.7659
            RECHARGE =           0.0000              RECHARGE =           0.0000
      STREAM LEAKAGE =    59760473.9405        STREAM LEAKAGE =       48173.0399

           TOTAL OUT =    92166180.6987             TOTAL OUT =       96772.6991

            IN - OUT =          -1.6121              IN - OUT =       3.8744E-03

 PERCENT DISCREPANCY =          -0.00     PERCENT DISCREPANCY =           0.00






         TIME SUMMARY AT END OF TIME STEP    1 IN STRESS PERIOD   10
                    SECONDS     MINUTES      HOURS       DAYS        YEARS
                    -----------------------------------------------------------
   TIME STEP LENGTH 7.86240E+06 1.31040E+05  2184.0      91.000     0.24914    
 STRESS PERIOD TIME 7.86240E+06 1.31040E+05  2184.0      91.000     0.24914    
         TOTAL TIME 7.88832E+07 1.31472E+06  21912.      913.00      2.4997    
1
1
                            STRESS PERIOD NO.   11, LENGTH =   91.00000    
                            -----------------------------------------------

                              NUMBER OF TIME STEPS =     1

                               MULTIPLIER FOR DELT =     1.500

                            INITIAL TIME STEP SIZE =   91.00000    

 WELL NO.  LAYER   ROW   COL   STRESS RATE         
 --------------------------------------------------
      1      1     14      6       0.000    
      2      1      3      9       0.000    
      3      1     20     10       0.000    
      4      1     14     20       0.000    
      5      1      8     26      -8223.    
      6      1     11     23      -7775.    
      7      1      7     20      -8549.    
      8      1     17      2      -8344.    

      8 WELLS

                 RECHARGE =   0.00000    

 REUSING STREAM SEGMENT DATA FROM LAST STRESS PERIOD
 
 SOLVING FOR HEAD 


     7 CALLS TO PCG ROUTINE FOR TIME STEP   1 IN STRESS PERIOD   11
    26 TOTAL ITERATIONS

 OUTPUT CONTROL FOR STRESS PERIOD   11   TIME STEP    1
    SAVE BUDGET
    SAVE HEAD FOR ALL LAYERS
    PRINT HEAD FOR ALL LAYERS
 UBDSV2 SAVING "STREAMFLOW OUT  " ON UNIT  50 AT TIME STEP  1, STRESS PERIOD  11



 STREAM LISTING     PERIOD     11   STEP        1

 LAYER ROW COL. STREAM  RCH.  FLOW INTO     FLOW TO   FLOW OUT OF   OVRLND.     DIRECT     STREAM       STREAM     STREAM     STREAM   STREAMBED  STREAMBED
                SEG.NO.  NO.  STRM. RCH.    AQUIFER    STRM. RCH.    RUNOFF     PRECIP       ET          HEAD       DEPTH      WIDTH   CONDCTNC.   GRADIENT

   1   13    1     1     1    1.0000E+05 -3.6688E+02   1.0037E+05  0.000E+00  0.000E+00  0.000E+00  4.84062E+01  1.448E-01  2.000E+01  2.000E+04 -1.834E-02
   1   13    2     1     2    1.0037E+05 -1.3392E+03   1.0171E+05  0.000E+00  0.000E+00  0.000E+00  4.79296E+01  1.455E-01  2.000E+01  2.000E+04 -6.696E-02
   1   14    3     1     3    1.0171E+05  1.2429E+01   1.0169E+05  0.000E+00  0.000E+00  0.000E+00  4.74529E+01  1.461E-01  2.000E+01  2.000E+04  6.215E-04
   1   15    4     1     4    1.0169E+05  1.2526E+02   1.0157E+05  0.000E+00  0.000E+00  0.000E+00  4.69756E+01  1.461E-01  2.000E+01  2.000E+04  6.263E-03
   1   16    5     1     5    1.0157E+05  1.0843E+03   1.0048E+05  0.000E+00  0.000E+00  0.000E+00  4.64978E+01  1.455E-01  2.000E+01  2.000E+04  5.421E-02
   1   16    6     1     6    1.0048E+05 -2.4660E+02   1.0073E+05  0.000E+00  0.000E+00  0.000E+00  4.60202E+01  1.452E-01  2.000E+01  2.000E+04 -1.233E-02
   1   16    7     1     7    1.0073E+05 -4.8704E+02   1.0122E+05  0.000E+00  0.000E+00  0.000E+00  4.55432E+01  1.455E-01  2.000E+01  2.000E+04 -2.435E-02
   1   16    8     1     8    1.0122E+05 -6.1283E+02   1.0183E+05  0.000E+00  0.000E+00  0.000E+00  4.50664E+01  1.460E-01  2.000E+01  2.000E+04 -3.064E-02
   1   16    9     1     9    1.0183E+05 -6.8935E+02   1.0252E+05  0.000E+00  0.000E+00  0.000E+00  4.45897E+01  1.465E-01  2.000E+01  2.000E+04 -3.447E-02
   1   16   10     1    10    1.0252E+05 -7.3882E+02   1.0326E+05  0.000E+00  0.000E+00  0.000E+00  4.41131E+01  1.471E-01  2.000E+01  2.000E+04 -3.694E-02
   1   16   11     1    11    1.0326E+05 -7.8966E+02   1.0405E+05  0.000E+00  0.000E+00  0.000E+00  4.36364E+01  1.478E-01  2.000E+01  2.000E+04 -3.948E-02
   1   16   12     1    12    1.0405E+05 -1.4269E+03   1.0548E+05  0.000E+00  0.000E+00  0.000E+00  4.31601E+01  1.487E-01  2.000E+01  2.000E+04 -7.135E-02
   1   15   13     1    13    1.0548E+05 -1.2998E+03   1.0678E+05  0.000E+00  0.000E+00  0.000E+00  4.26840E+01  1.499E-01  2.000E+01  2.000E+04 -6.499E-02
   1   14   14     1    14    1.0678E+05 -1.4863E+03   1.0826E+05  0.000E+00  0.000E+00  0.000E+00  4.22079E+01  1.511E-01  2.000E+01  2.000E+04 -7.432E-02
   1   13   15     1    15    1.0826E+05 -1.6494E+03   1.0991E+05  0.000E+00  0.000E+00  0.000E+00  4.17319E+01  1.524E-01  2.000E+01  2.000E+04 -8.247E-02
   1   12   16     1    16    1.0991E+05 -1.8775E+03   1.1179E+05  0.000E+00  0.000E+00  0.000E+00  4.12561E+01  1.539E-01  2.000E+01  2.000E+04 -9.388E-02
   1   12   17     1    17    1.1179E+05 -1.0808E+03   1.1287E+05  0.000E+00  0.000E+00  0.000E+00  4.07801E+01  1.551E-01  2.000E+01  2.000E+04 -5.404E-02
   1   12   18     1    18    1.1287E+05 -8.5414E+02   1.1372E+05  0.000E+00  0.000E+00  0.000E+00  4.03036E+01  1.559E-01  2.000E+01  2.000E+04 -4.271E-02
   1   12   19     1    19    1.1372E+05 -5.6741E+02   1.1429E+05  0.000E+00  0.000E+00  0.000E+00  3.98269E+01  1.565E-01  2.000E+01  2.000E+04 -2.837E-02
   1   13   20     1    20    1.1429E+05 -5.4100E+02   1.1483E+05  0.000E+00  0.000E+00  0.000E+00  3.93501E+01  1.569E-01  2.000E+01  2.000E+04 -2.705E-02
   1   14   21     1    21    1.1483E+05 -1.0115E+03   1.1584E+05  0.000E+00  0.000E+00  0.000E+00  3.88735E+01  1.576E-01  2.000E+01  2.000E+04 -5.057E-02
   1   14   22     1    22    1.1584E+05  5.2040E+03   1.1064E+05  0.000E+00  0.000E+00  0.000E+00  3.83945E+01  1.559E-01  2.000E+01  2.000E+04  2.602E-01
   1    9   30     2     1    5.0000E+04  1.1568E+02   4.9884E+04  0.000E+00  0.000E+00  0.000E+00  4.02408E+01  1.158E-01  2.000E+01  2.000E+04  5.784E-03
   1    9   29     2     2    4.9884E+04 -5.4080E+01   4.9938E+04  0.000E+00  0.000E+00  0.000E+00  3.99907E+01  1.157E-01  2.000E+01  2.000E+04 -2.704E-03
   1    9   28     2     3    4.9938E+04  8.0523E+01   4.9858E+04  0.000E+00  0.000E+00  0.000E+00  3.97407E+01  1.157E-01  2.000E+01  2.000E+04  4.026E-03
   1    9   27     2     4    4.9858E+04  1.2190E+03   4.8639E+04  0.000E+00  0.000E+00  0.000E+00  3.94898E+01  1.148E-01  2.000E+01  2.000E+04  6.095E-02
   1   10   26     2     5    4.8639E+04  1.2142E+03   4.7425E+04  0.000E+00  0.000E+00  0.000E+00  3.92381E+01  1.131E-01  2.000E+01  2.000E+04  6.071E-02
   1   11   25     2     6    4.7425E+04  1.3106E+03   4.6114E+04  0.000E+00  0.000E+00  0.000E+00  3.89863E+01  1.113E-01  2.000E+01  2.000E+04  6.553E-02
   1   12   24     2     7    4.6114E+04  1.9266E+03   4.4187E+04  0.000E+00  0.000E+00  0.000E+00  3.87340E+01  1.090E-01  2.000E+01  2.000E+04  9.633E-02
   1   13   23     2     8    4.4187E+04  2.6125E+02   4.3926E+04  0.000E+00  0.000E+00  0.000E+00  3.84824E+01  1.074E-01  2.000E+01  2.000E+04  1.306E-02
   1   14   22     2     9    4.3926E+04  1.9298E+03   4.1996E+04  0.000E+00  0.000E+00  0.000E+00  3.82308E+01  1.058E-01  2.000E+01  2.000E+04  9.649E-02
   1   14   22     3     1    1.5264E+05 -8.4297E+03   1.6107E+05  0.000E+00  0.000E+00  0.000E+00  3.77128E+01  1.573E-01  2.000E+01  2.000E+04 -4.215E-01
   1   15   23     3     2    1.6107E+05 -4.6950E+02   1.6153E+05  0.000E+00  0.000E+00  0.000E+00  3.68266E+01  1.599E-01  2.000E+01  2.000E+04 -2.348E-02
   1   15   24     3     3    1.6153E+05 -2.1485E+02   1.6175E+05  0.000E+00  0.000E+00  0.000E+00  3.59379E+01  1.601E-01  2.000E+01  2.000E+04 -1.074E-02
   1   15   25     3     4    1.6175E+05 -2.0574E+02   1.6196E+05  0.000E+00  0.000E+00  0.000E+00  3.50491E+01  1.602E-01  2.000E+01  2.000E+04 -1.029E-02
   1   15   26     3     5    1.6196E+05 -2.5214E+02   1.6221E+05  0.000E+00  0.000E+00  0.000E+00  3.41604E+01  1.604E-01  2.000E+01  2.000E+04 -1.261E-02
   1   16   27     3     6    1.6221E+05 -2.7439E+02   1.6248E+05  0.000E+00  0.000E+00  0.000E+00  3.32716E+01  1.605E-01  2.000E+01  2.000E+04 -1.372E-02
   1   17   28     3     7    1.6248E+05 -1.3192E+03   1.6380E+05  0.000E+00  0.000E+00  0.000E+00  3.23832E+01  1.610E-01  2.000E+01  2.000E+04 -6.596E-02
   1   18   29     3     8    1.6380E+05 -2.6767E+03   1.6648E+05  0.000E+00  0.000E+00  0.000E+00  3.14955E+01  1.622E-01  2.000E+01  2.000E+04 -1.338E-01
   1   18   30     3     9    1.6648E+05 -2.9944E+03   1.6947E+05  0.000E+00  0.000E+00  0.000E+00  3.06083E+01  1.639E-01  2.000E+01  2.000E+04 -1.497E-01



1
              HEAD IN LAYER   1 AT END OF TIME STEP   1 IN STRESS PERIOD   11
  ---------------------------------------------------------------------------

          1      2      3      4      5      6      7      8      9     10
         11     12     13     14     15     16     17     18     19     20
         21     22     23     24     25     26     27     28     29     30
 .........................................................................
   1  ****** ****** ****** ****** ****** ****** ****** ****** ****** ******
      ****** ****** ****** ****** ****** ****** ****** ****** ****** ******
      ****** ****** ****** ****** ****** ****** ****** ****** ****** ******
   2  ****** ****** ****** ****** ****** ****** ****** ****** ****** ******
      ****** ****** ****** ****** ****** ****** ****** ****** ****** ******
      ****** ****** ****** ****** ****** ****** ****** ****** ****** ******
   3  ****** ****** ****** ****** ****** ****** ****** ****** ****** ******
      ****** ****** ****** ****** ****** ****** ****** ****** ****** ******
      ****** ****** ****** ****** ****** ****** ****** ****** ****** ******
   4  ****** ****** ****** ****** ****** ****** ****** ****** ****** ******
      ****** ****** ****** ****** ****** ****** ****** ****** ****** ******
      ****** ****** ****** ****** ****** ****** ****** ****** ****** ******
   5  ****** ****** ****** ****** ****** ****** ****** ****** ****** ******
      ****** ****** ****** ****** ****** ****** ****** ****** ****** ******
      ****** ****** ****** ****** ****** ****** ****** ****** ****** ******
   6  ****** ****** ****** ****** ****** ****** ****** ****** ****** ******
      ****** ****** ****** ****** ****** ****** ****** ****** ****** ******
      ****** ****** ****** ****** ****** ****** ****** ****** ****** ******
   7  ****** ****** ****** ****** ****** ****** ****** ****** ****** ******
      ****** ****** ****** ****** ****** ****** ****** ****** ****** ******
      ****** ****** ****** ****** ****** ****** ****** ****** ****** ******
   8  ****** ****** ****** ****** ****** ****** ****** ****** ****** ******
      ****** ****** ****** ****** ****** ****** ****** ****** ****** ******
      ****** ****** ****** ****** ****** ****** ****** ****** ****** ******
   9  ****** ****** ****** ****** ****** ****** ****** ****** ****** ******
      ****** ****** ****** ****** ****** ****** ****** ****** ****** ******
      ****** ****** ****** ****** ****** ****** ****** ****** ****** ******
  10  ****** ****** ****** ****** ****** ****** ****** ****** ****** ******
      ****** ****** ****** ****** ****** ****** ****** ****** ****** ******
      ****** ****** ****** ****** ****** ****** ****** ****** ****** ******
  11  ****** ****** ****** ****** ****** ****** ****** ****** ****** ******
      ****** ****** ****** ****** ****** ****** ****** ****** ****** ******
      ****** ****** ****** ****** ****** ****** ****** ****** ****** ******
  12  ****** ****** ****** ****** ****** ****** ****** ****** ****** ******
      ****** ****** ****** ****** ****** ****** ****** ****** ****** ******
      ****** ****** ****** ****** ****** ****** ****** ****** ****** ******
  13  ****** ****** ****** ****** ****** ****** ****** ****** ****** ******
      ****** ****** ****** ****** ****** ****** ****** ****** ****** ******
      ****** ****** ****** ****** ****** ****** ****** ****** ****** ******
  14  ****** ****** ****** ****** ****** ****** ****** ****** ****** ******
      ****** ****** ****** ****** ****** ****** ****** ****** ****** ******
      ****** ****** ****** ****** ****** ****** ****** ****** ****** ******
  15  ****** ****** ****** ****** ****** ****** ****** ****** ****** ******
      ****** ****** ****** ****** ****** ****** ****** ****** ****** ******
      ****** ****** ****** ****** ****** ****** ****** ****** ****** ******
  16  ****** ****** ****** ****** ****** ****** ****** ****** ****** ******
      ****** ****** ****** ****** ****** ****** ****** ****** ****** ******
      ****** ****** ****** ****** ****** ****** ****** ****** ****** ******
  17  ****** ****** ****** ****** ****** ****** ****** ****** ****** ******
      ****** ****** ****** ****** ****** ****** ****** ****** ****** ******
      ****** ****** ****** ****** ****** ****** ****** ****** ****** ******
  18  ****** ****** ****** ****** ****** ****** ****** ****** ****** ******
      ****** ****** ****** ****** ****** ****** ****** ****** ****** ******
      ****** ****** ****** ****** ****** ****** ****** ****** ****** ******
  19  ****** ****** ****** ****** ****** ****** ****** ****** ****** ******
      ****** ****** ****** ****** ****** ****** ****** ****** ****** ******
      ****** ****** ****** ****** ****** ****** ****** ****** ****** ******
  20  ****** ****** ****** ****** ****** ****** ****** ****** ****** ******
      ****** ****** ****** ****** ****** ****** ****** ****** ****** ******
      ****** ****** ****** ****** ****** ****** ****** ****** ****** ******
  21  ****** ****** ****** ****** ****** ****** ****** ****** ****** ******
      ****** ****** ****** ****** ****** ****** ****** ****** ****** ******
      ****** ****** ****** ****** ****** ****** ****** ****** ****** ******
  22  ****** ****** ****** ****** ****** ****** ****** ****** ****** ******
      ****** ****** ****** ****** ****** ****** ****** ****** ****** ******
      ****** ****** ****** ****** ****** ****** ****** ****** ****** ******
  23  ****** ****** ****** ****** ****** ****** ****** ****** ****** ******
      ****** ****** ****** ****** ****** ****** ****** ****** ****** ******
      ****** ****** ****** ****** ****** ****** ****** ****** ****** ******
  24  ****** ****** ****** ****** ****** ****** ****** ****** ****** ******
      ****** ****** ****** ****** ****** ****** ****** ****** ****** ******
      ****** ****** ****** ****** ****** ****** ****** ****** ****** ******
  25  ****** ****** ****** ****** ****** ****** ****** ****** ****** ******
      ****** ****** ****** ****** ****** ****** ****** ****** ****** ******
      ****** ****** ****** ****** ****** ****** ****** ****** ****** ******

 HEAD WILL BE SAVED ON UNIT   51 AT END OF TIME STEP    1, STRESS PERIOD   11
1
  VOLUMETRIC BUDGET FOR ENTIRE MODEL AT END OF TIME STEP    1, STRESS PERIOD  11
  ------------------------------------------------------------------------------

     CUMULATIVE VOLUMES      L**3       RATES FOR THIS TIME STEP      L**3/T
     ------------------                 ------------------------

           IN:                                      IN:
           ---                                      ---
             STORAGE =    35457512.0811               STORAGE =       17927.8569
       CONSTANT HEAD =    28287539.4285         CONSTANT HEAD =       34435.1758
               WELLS =           0.0000                 WELLS =           0.0000
            RECHARGE =    23901600.0000              RECHARGE =           0.0000
      STREAM LEAKAGE =    10602576.7461        STREAM LEAKAGE =       14483.6615

            TOTAL IN =    98249228.2556              TOTAL IN =       66846.6942

          OUT:                                     OUT:
          ----                                     ----
             STORAGE =     2376437.4869               STORAGE =           0.0000
       CONSTANT HEAD =           0.0000         CONSTANT HEAD =           0.0000
               WELLS =    33022328.9687                 WELLS =       32890.7659
            RECHARGE =           0.0000              RECHARGE =           0.0000
      STREAM LEAKAGE =    62850463.8685        STREAM LEAKAGE =       33955.9333

           TOTAL OUT =    98249230.3241             TOTAL OUT =       66846.6992

            IN - OUT =          -2.0684              IN - OUT =      -5.0146E-03

 PERCENT DISCREPANCY =          -0.00     PERCENT DISCREPANCY =          -0.00






         TIME SUMMARY AT END OF TIME STEP    1 IN STRESS PERIOD   11
                    SECONDS     MINUTES      HOURS       DAYS        YEARS
                    -----------------------------------------------------------
   TIME STEP LENGTH 7.86240E+06 1.31040E+05  2184.0      91.000     0.24914    
 STRESS PERIOD TIME 7.86240E+06 1.31040E+05  2184.0      91.000     0.24914    
         TOTAL TIME 8.67456E+07 1.44576E+06  24096.      1004.0      2.7488    
1
1
                            STRESS PERIOD NO.   12, LENGTH =   91.00000    
                            -----------------------------------------------

                              NUMBER OF TIME STEPS =     1

                               MULTIPLIER FOR DELT =     1.500

                            INITIAL TIME STEP SIZE =   91.00000    

 WELL NO.  LAYER   ROW   COL   STRESS RATE         
 --------------------------------------------------
      1      1     14      6       0.000    
      2      1      3      9       0.000    
      3      1     20     10       0.000    
      4      1     14     20       0.000    
      5      1      8     26      -8223.    
      6      1     11     23      -7775.    
      7      1      7     20      -8549.    
      8      1     17      2      -8344.    

      8 WELLS

                 RECHARGE =  1.000000E-03

 REUSING STREAM SEGMENT DATA FROM LAST STRESS PERIOD
 
 SOLVING FOR HEAD 


     7 CALLS TO PCG ROUTINE FOR TIME STEP   1 IN STRESS PERIOD   12
    24 TOTAL ITERATIONS

 OUTPUT CONTROL FOR STRESS PERIOD   12   TIME STEP    1
    SAVE BUDGET
    SAVE HEAD FOR ALL LAYERS
    PRINT HEAD FOR ALL LAYERS
 UBDSV2 SAVING "STREAMFLOW OUT  " ON UNIT  50 AT TIME STEP  1, STRESS PERIOD  12



 STREAM LISTING     PERIOD     12   STEP        1

 LAYER ROW COL. STREAM  RCH.  FLOW INTO     FLOW TO   FLOW OUT OF   OVRLND.     DIRECT     STREAM       STREAM     STREAM     STREAM   STREAMBED  STREAMBED
                SEG.NO.  NO.  STRM. RCH.    AQUIFER    STRM. RCH.    RUNOFF     PRECIP       ET          HEAD       DEPTH      WIDTH   CONDCTNC.   GRADIENT

   1   13    1     1     1    1.0000E+05 -5.1112E+02   1.0051E+05  0.000E+00  0.000E+00  0.000E+00  4.84062E+01  1.449E-01  2.000E+01  2.000E+04 -2.556E-02
   1   13    2     1     2    1.0051E+05 -1.4943E+03   1.0201E+05  0.000E+00  0.000E+00  0.000E+00  4.79298E+01  1.457E-01  2.000E+01  2.000E+04 -7.472E-02
   1   14    3     1     3    1.0201E+05 -6.6129E+01   1.0207E+05  0.000E+00  0.000E+00  0.000E+00  4.74532E+01  1.464E-01  2.000E+01  2.000E+04 -3.306E-03
   1   15    4     1     4    1.0207E+05  4.2899E+01   1.0203E+05  0.000E+00  0.000E+00  0.000E+00  4.69760E+01  1.464E-01  2.000E+01  2.000E+04  2.145E-03
   1   16    5     1     5    1.0203E+05  8.7449E+02   1.0115E+05  0.000E+00  0.000E+00  0.000E+00  4.64983E+01  1.460E-01  2.000E+01  2.000E+04  4.372E-02
   1   16    6     1     6    1.0115E+05 -3.7706E+02   1.0153E+05  0.000E+00  0.000E+00  0.000E+00  4.60208E+01  1.458E-01  2.000E+01  2.000E+04 -1.885E-02
   1   16    7     1     7    1.0153E+05 -6.1243E+02   1.0214E+05  0.000E+00  0.000E+00  0.000E+00  4.55440E+01  1.462E-01  2.000E+01  2.000E+04 -3.062E-02
   1   16    8     1     8    1.0214E+05 -7.3719E+02   1.0288E+05  0.000E+00  0.000E+00  0.000E+00  4.50673E+01  1.468E-01  2.000E+01  2.000E+04 -3.686E-02
   1   16    9     1     9    1.0288E+05 -8.1414E+02   1.0370E+05  0.000E+00  0.000E+00  0.000E+00  4.45907E+01  1.475E-01  2.000E+01  2.000E+04 -4.071E-02
   1   16   10     1    10    1.0370E+05 -8.6494E+02   1.0456E+05  0.000E+00  0.000E+00  0.000E+00  4.41141E+01  1.482E-01  2.000E+01  2.000E+04 -4.325E-02
   1   16   11     1    11    1.0456E+05 -9.1801E+02   1.0548E+05  0.000E+00  0.000E+00  0.000E+00  4.36376E+01  1.490E-01  2.000E+01  2.000E+04 -4.590E-02
   1   16   12     1    12    1.0548E+05 -1.6287E+03   1.0711E+05  0.000E+00  0.000E+00  0.000E+00  4.31614E+01  1.500E-01  2.000E+01  2.000E+04 -8.144E-02
   1   15   13     1    13    1.0711E+05 -1.5168E+03   1.0862E+05  0.000E+00  0.000E+00  0.000E+00  4.26855E+01  1.514E-01  2.000E+01  2.000E+04 -7.584E-02
   1   14   14     1    14    1.0862E+05 -1.7040E+03   1.1033E+05  0.000E+00  0.000E+00  0.000E+00  4.22095E+01  1.527E-01  2.000E+01  2.000E+04 -8.520E-02
   1   13   15     1    15    1.1033E+05 -1.8597E+03   1.1219E+05  0.000E+00  0.000E+00  0.000E+00  4.17338E+01  1.542E-01  2.000E+01  2.000E+04 -9.298E-02
   1   12   16     1    16    1.1219E+05 -2.0613E+03   1.1425E+05  0.000E+00  0.000E+00  0.000E+00  4.12581E+01  1.558E-01  2.000E+01  2.000E+04 -1.031E-01
   1   12   17     1    17    1.1425E+05 -1.2345E+03   1.1548E+05  0.000E+00  0.000E+00  0.000E+00  4.07822E+01  1.572E-01  2.000E+01  2.000E+04 -6.173E-02
   1   12   18     1    18    1.1548E+05 -1.0100E+03   1.1649E+05  0.000E+00  0.000E+00  0.000E+00  4.03058E+01  1.581E-01  2.000E+01  2.000E+04 -5.050E-02
   1   12   19     1    19    1.1649E+05 -7.6004E+02   1.1725E+05  0.000E+00  0.000E+00  0.000E+00  3.98293E+01  1.588E-01  2.000E+01  2.000E+04 -3.800E-02
   1   13   20     1    20    1.1725E+05 -7.5156E+02   1.1800E+05  0.000E+00  0.000E+00  0.000E+00  3.93526E+01  1.595E-01  2.000E+01  2.000E+04 -3.758E-02
   1   14   21     1    21    1.1800E+05 -1.2059E+03   1.1921E+05  0.000E+00  0.000E+00  0.000E+00  3.88762E+01  1.602E-01  2.000E+01  2.000E+04 -6.029E-02
   1   14   22     1    22    1.1921E+05  5.1495E+03   1.1406E+05  0.000E+00  0.000E+00  0.000E+00  3.83973E+01  1.586E-01  2.000E+01  2.000E+04  2.575E-01
   1    9   30     2     1    5.0000E+04 -6.0731E+01   5.0061E+04  0.000E+00  0.000E+00  0.000E+00  4.02409E+01  1.159E-01  2.000E+01  2.000E+04 -3.037E-03
   1    9   29     2     2    5.0061E+04 -2.2845E+02   5.0289E+04  0.000E+00  0.000E+00  0.000E+00  3.99911E+01  1.161E-01  2.000E+01  2.000E+04 -1.142E-02
   1    9   28     2     3    5.0289E+04 -9.0331E+01   5.0380E+04  0.000E+00  0.000E+00  0.000E+00  3.97413E+01  1.163E-01  2.000E+01  2.000E+04 -4.517E-03
   1    9   27     2     4    5.0380E+04  1.0099E+03   4.9370E+04  0.000E+00  0.000E+00  0.000E+00  3.94907E+01  1.157E-01  2.000E+01  2.000E+04  5.049E-02
   1   10   26     2     5    4.9370E+04  9.8437E+02   4.8385E+04  0.000E+00  0.000E+00  0.000E+00  3.92393E+01  1.143E-01  2.000E+01  2.000E+04  4.922E-02
   1   11   25     2     6    4.8385E+04  1.0847E+03   4.7301E+04  0.000E+00  0.000E+00  0.000E+00  3.89878E+01  1.128E-01  2.000E+01  2.000E+04  5.424E-02
   1   12   24     2     7    4.7301E+04  1.7204E+03   4.5580E+04  0.000E+00  0.000E+00  0.000E+00  3.87358E+01  1.108E-01  2.000E+01  2.000E+04  8.602E-02
   1   13   23     2     8    4.5580E+04  1.8365E+02   4.5396E+04  0.000E+00  0.000E+00  0.000E+00  3.84845E+01  1.095E-01  2.000E+01  2.000E+04  9.182E-03
   1   14   22     2     9    4.5396E+04  1.8637E+03   4.3533E+04  0.000E+00  0.000E+00  0.000E+00  3.82330E+01  1.080E-01  2.000E+01  2.000E+04  9.319E-02
   1   14   22     3     1    1.5759E+05 -8.4804E+03   1.6607E+05  0.000E+00  0.000E+00  0.000E+00  3.77158E+01  1.602E-01  2.000E+01  2.000E+04 -4.240E-01
   1   15   23     3     2    1.6607E+05 -5.4159E+02   1.6662E+05  0.000E+00  0.000E+00  0.000E+00  3.68296E+01  1.629E-01  2.000E+01  2.000E+04 -2.708E-02
   1   15   24     3     3    1.6662E+05 -2.7997E+02   1.6690E+05  0.000E+00  0.000E+00  0.000E+00  3.59409E+01  1.631E-01  2.000E+01  2.000E+04 -1.400E-02
   1   15   25     3     4    1.6690E+05 -2.7212E+02   1.6717E+05  0.000E+00  0.000E+00  0.000E+00  3.50522E+01  1.633E-01  2.000E+01  2.000E+04 -1.361E-02
   1   15   26     3     5    1.6717E+05 -3.2964E+02   1.6750E+05  0.000E+00  0.000E+00  0.000E+00  3.41635E+01  1.635E-01  2.000E+01  2.000E+04 -1.648E-02
   1   16   27     3     6    1.6750E+05 -3.6121E+02   1.6786E+05  0.000E+00  0.000E+00  0.000E+00  3.32748E+01  1.637E-01  2.000E+01  2.000E+04 -1.806E-02
   1   17   28     3     7    1.6786E+05 -1.5401E+03   1.6940E+05  0.000E+00  0.000E+00  0.000E+00  3.23865E+01  1.642E-01  2.000E+01  2.000E+04 -7.700E-02
   1   18   29     3     8    1.6940E+05 -2.8777E+03   1.7228E+05  0.000E+00  0.000E+00  0.000E+00  3.14989E+01  1.655E-01  2.000E+01  2.000E+04 -1.439E-01
   1   18   30     3     9    1.7228E+05 -3.1627E+03   1.7544E+05  0.000E+00  0.000E+00  0.000E+00  3.06117E+01  1.673E-01  2.000E+01  2.000E+04 -1.581E-01



1
              HEAD IN LAYER   1 AT END OF TIME STEP   1 IN STRESS PERIOD   12
  ---------------------------------------------------------------------------

          1      2      3      4      5      6      7      8      9     10
         11     12     13     14     15     16     17     18     19     20
         21     22     23     24     25     26     27     28     29     30
 .........................................................................
   1  ****** ****** ****** ****** ****** ****** ****** ****** ****** ******
      ****** ****** ****** ****** ****** ****** ****** ****** ****** ******
      ****** ****** ****** ****** ****** ****** ****** ****** ****** ******
   2  ****** ****** ****** ****** ****** ****** ****** ****** ****** ******
      ****** ****** ****** ****** ****** ****** ****** ****** ****** ******
      ****** ****** ****** ****** ****** ****** ****** ****** ****** ******
   3  ****** ****** ****** ****** ****** ****** ****** ****** ****** ******
      ****** ****** ****** ****** ****** ****** ****** ****** ****** ******
      ****** ****** ****** ****** ****** ****** ****** ****** ****** ******
   4  ****** ****** ****** ****** ****** ****** ****** ****** ****** ******
      ****** ****** ****** ****** ****** ****** ****** ****** ****** ******
      ****** ****** ****** ****** ****** ****** ****** ****** ****** ******
   5  ****** ****** ****** ****** ****** ****** ****** ****** ****** ******
      ****** ****** ****** ****** ****** ****** ****** ****** ****** ******
      ****** ****** ****** ****** ****** ****** ****** ****** ****** ******
   6  ****** ****** ****** ****** ****** ****** ****** ****** ****** ******
      ****** ****** ****** ****** ****** ****** ****** ****** ****** ******
      ****** ****** ****** ****** ****** ****** ****** ****** ****** ******
   7  ****** ****** ****** ****** ****** ****** ****** ****** ****** ******
      ****** ****** ****** ****** ****** ****** ****** ****** ****** ******
      ****** ****** ****** ****** ****** ****** ****** ****** ****** ******
   8  ****** ****** ****** ****** ****** ****** ****** ****** ****** ******
      ****** ****** ****** ****** ****** ****** ****** ****** ****** ******
      ****** ****** ****** ****** ****** ****** ****** ****** ****** ******
   9  ****** ****** ****** ****** ****** ****** ****** ****** ****** ******
      ****** ****** ****** ****** ****** ****** ****** ****** ****** ******
      ****** ****** ****** ****** ****** ****** ****** ****** ****** ******
  10  ****** ****** ****** ****** ****** ****** ****** ****** ****** ******
      ****** ****** ****** ****** ****** ****** ****** ****** ****** ******
      ****** ****** ****** ****** ****** ****** ****** ****** ****** ******
  11  ****** ****** ****** ****** ****** ****** ****** ****** ****** ******
      ****** ****** ****** ****** ****** ****** ****** ****** ****** ******
      ****** ****** ****** ****** ****** ****** ****** ****** ****** ******
  12  ****** ****** ****** ****** ****** ****** ****** ****** ****** ******
      ****** ****** ****** ****** ****** ****** ****** ****** ****** ******
      ****** ****** ****** ****** ****** ****** ****** ****** ****** ******
  13  ****** ****** ****** ****** ****** ****** ****** ****** ****** ******
      ****** ****** ****** ****** ****** ****** ****** ****** ****** ******
      ****** ****** ****** ****** ****** ****** ****** ****** ****** ******
  14  ****** ****** ****** ****** ****** ****** ****** ****** ****** ******
      ****** ****** ****** ****** ****** ****** ****** ****** ****** ******
      ****** ****** ****** ****** ****** ****** ****** ****** ****** ******
  15  ****** ****** ****** ****** ****** ****** ****** ****** ****** ******
      ****** ****** ****** ****** ****** ****** ****** ****** ****** ******
      ****** ****** ****** ****** ****** ****** ****** ****** ****** ******
  16  ****** ****** ****** ****** ****** ****** ****** ****** ****** ******
      ****** ****** ****** ****** ****** ****** ****** ****** ****** ******
      ****** ****** ****** ****** ****** ****** ****** ****** ****** ******
  17  ****** ****** ****** ****** ****** ****** ****** ****** ****** ******
      ****** ****** ****** ****** ****** ****** ****** ****** ****** ******
      ****** ****** ****** ****** ****** ****** ****** ****** ****** ******
  18  ****** ****** ****** ****** ****** ****** ****** ****** ****** ******
      ****** ****** ****** ****** ****** ****** ****** ****** ****** ******
      ****** ****** ****** ****** ****** ****** ****** ****** ****** ******
  19  ****** ****** ****** ****** ****** ****** ****** ****** ****** ******
      ****** ****** ****** ****** ****** ****** ****** ****** ****** ******
      ****** ****** ****** ****** ****** ****** ****** ****** ****** ******
  20  ****** ****** ****** ****** ****** ****** ****** ****** ****** ******
      ****** ****** ****** ****** ****** ****** ****** ****** ****** ******
      ****** ****** ****** ****** ****** ****** ****** ****** ****** ******
  21  ****** ****** ****** ****** ****** ****** ****** ****** ****** ******
      ****** ****** ****** ****** ****** ****** ****** ****** ****** ******
      ****** ****** ****** ****** ****** ****** ****** ****** ****** ******
  22  ****** ****** ****** ****** ****** ****** ****** ****** ****** ******
      ****** ****** ****** ****** ****** ****** ****** ****** ****** ******
      ****** ****** ****** ****** ****** ****** ****** ****** ****** ******
  23  ****** ****** ****** ****** ****** ****** ****** ****** ****** ******
      ****** ****** ****** ****** ****** ****** ****** ****** ****** ******
      ****** ****** ****** ****** ****** ****** ****** ****** ****** ******
  24  ****** ****** ****** ****** ****** ****** ****** ****** ****** ******
      ****** ****** ****** ****** ****** ****** ****** ****** ****** ******
      ****** ****** ****** ****** ****** ****** ****** ****** ****** ******
  25  ****** ****** ****** ****** ****** ****** ****** ****** ****** ******
      ****** ****** ****** ****** ****** ****** ****** ****** ****** ******
      ****** ****** ****** ****** ****** ****** ****** ****** ****** ******

 HEAD WILL BE SAVED ON UNIT   51 AT END OF TIME STEP    1, STRESS PERIOD   12
1
  VOLUMETRIC BUDGET FOR ENTIRE MODEL AT END OF TIME STEP    1, STRESS PERIOD  12
  ------------------------------------------------------------------------------

     CUMULATIVE VOLUMES      L**3       RATES FOR THIS TIME STEP      L**3/T
     ------------------                 ------------------------

           IN:                                      IN:
           ---                                      ---
             STORAGE =    35458455.1667               STORAGE =          10.3636
       CONSTANT HEAD =    31357700.2625         CONSTANT HEAD =       33738.0311
               WELLS =           0.0000                 WELLS =           0.0000
            RECHARGE =    26413200.0000              RECHARGE =       27600.0000
      STREAM LEAKAGE =    11777720.7216        STREAM LEAKAGE =       12913.6701

            TOTAL IN =   105007076.1508              TOTAL IN =       74262.0648

          OUT:                                     OUT:
          ----                                     ----
             STORAGE =     2651121.6391               STORAGE =        3018.5072
       CONSTANT HEAD =           0.0000         CONSTANT HEAD =           0.0000
               WELLS =    36015388.6660                 WELLS =       32890.7659
            RECHARGE =           0.0000              RECHARGE =           0.0000
      STREAM LEAKAGE =    66340567.8310        STREAM LEAKAGE =       38352.7908

           TOTAL OUT =   105007078.1362             TOTAL OUT =       74262.0639

            IN - OUT =          -1.9854              IN - OUT =       9.1241E-04

 PERCENT DISCREPANCY =          -0.00     PERCENT DISCREPANCY =           0.00






         TIME SUMMARY AT END OF TIME STEP    1 IN STRESS PERIOD   12
                    SECONDS     MINUTES      HOURS       DAYS        YEARS
                    -----------------------------------------------------------
   TIME STEP LENGTH 7.86240E+06 1.31040E+05  2184.0      91.000     0.24914    
 STRESS PERIOD TIME 7.86240E+06 1.31040E+05  2184.0      91.000     0.24914    
         TOTAL TIME 9.46080E+07 1.57680E+06  26280.      1095.0      2.9979    
1

 Run end date and time (yyyy/mm/dd hh:mm:ss): 2019/03/03 17:20:21
 Elapsed run time:  0.079 Seconds

