                                  MODFLOW-2005     
      U.S. GEOLOGICAL SURVEY MODULAR FINITE-DIFFERENCE GROUND-WATER FLOW MODEL
                            VERSION 1.11.00 8/8/2013

 LIST FILE: supply2.lst
                         UNIT   10

 OPENING ..\data\supply.dis
 FILE TYPE:DIS   UNIT   11   STATUS:OLD    
 FORMAT:FORMATTED              ACCESS:SEQUENTIAL          

 OPENING ..\data\supply.ba6
 FILE TYPE:BAS6   UNIT   12   STATUS:OLD    
 FORMAT:FORMATTED              ACCESS:SEQUENTIAL          

 OPENING ..\data\supply.bc6
 FILE TYPE:BCF6   UNIT   13   STATUS:OLD    
 FORMAT:FORMATTED              ACCESS:SEQUENTIAL          

 OPENING ..\data\supply.rch
 FILE TYPE:RCH   UNIT   15   STATUS:OLD    
 FORMAT:FORMATTED              ACCESS:SEQUENTIAL          

 OPENING ..\data\supply2.sfr
 FILE TYPE:SFR   UNIT   16   STATUS:OLD    
 FORMAT:FORMATTED              ACCESS:SEQUENTIAL          

 OPENING ..\data\supply.oc
 FILE TYPE:OC   UNIT   17   STATUS:OLD    
 FORMAT:FORMATTED              ACCESS:SEQUENTIAL          

 OPENING ..\data\supply.pcg
 FILE TYPE:PCG   UNIT   18   STATUS:OLD    
 FORMAT:FORMATTED              ACCESS:SEQUENTIAL          

 OPENING supply2.wel
 FILE TYPE:WEL   UNIT   19   STATUS:OLD    
 FORMAT:FORMATTED              ACCESS:SEQUENTIAL          

 OPENING supply2sf.cbc
 FILE TYPE:DATA(BINARY)   UNIT   50   STATUS:UNKNOWN
 FORMAT:BINARY                 ACCESS:SEQUENTIAL          

 OPENING supply2hd.bhd
 FILE TYPE:DATA(BINARY)   UNIT   51   STATUS:UNKNOWN
 FORMAT:BINARY                 ACCESS:SEQUENTIAL          

 BAS -- BASIC PACKAGE, VERSION 7, 5/2/2005 INPUT READ FROM UNIT   12
 
 MODFLOW was compiled using uniform precision
 Precision of REAL and DOUBLE PRECISION variables:          15

 DISCRETIZATION INPUT DATA READ FROM UNIT   11
    1 LAYERS        25 ROWS        30 COLUMNS
   12 STRESS PERIOD(S) IN SIMULATION
 MODEL TIME UNIT IS DAYS
 MODEL LENGTH UNIT IS UNDEFINED
  Confining bed flag for each layer:
   0

                     DELR =   200.000    

                     DELC =   200.000    

 TOP ELEVATION OF LAYER 1 =  100.0000    

   MODEL LAYER BOTTOM EL. =   0.00000     FOR LAYER   1


 STRESS PERIOD     LENGTH       TIME STEPS     MULTIPLIER FOR DELT    SS FLAG
 ----------------------------------------------------------------------------
        1         92.00000          1                    1.500         TR
        2         91.00000          1                    1.500         TR
        3         91.00000          1                    1.500         TR
        4         91.00000          1                    1.500         TR
        5         92.00000          1                    1.500         TR
        6         91.00000          1                    1.500         TR
        7         91.00000          1                    1.500         TR
        8         91.00000          1                    1.500         TR
        9         92.00000          1                    1.500         TR
       10         91.00000          1                    1.500         TR
       11         91.00000          1                    1.500         TR
       12         91.00000          1                    1.500         TR

 TRANSIENT SIMULATION



 
 #MODOFC transient water supply sample problem                                   
 #                                                                               
 THE FREE FORMAT OPTION HAS BEEN SELECTED



                     BOUNDARY ARRAY FOR LAYER   1
 READING ON UNIT   12 WITH FORMAT: (20I4)              

 AQUIFER HEAD WILL BE SET TO   0.0000     AT ALL NO-FLOW NODES (IBOUND=0).



                       INITIAL HEAD FOR LAYER   1
 READING ON UNIT   12 WITH FORMAT: (10F13.0)           

 OUTPUT CONTROL IS SPECIFIED ONLY AT TIME STEPS FOR WHICH OUTPUT IS DESIRED
 COMPACT CELL-BY-CELL BUDGET FILES WILL BE WRITTEN
 HEAD PRINT FORMAT CODE IS  18    DRAWDOWN PRINT FORMAT CODE IS   0
 HEADS WILL BE SAVED ON UNIT   51    DRAWDOWNS WILL BE SAVED ON UNIT    0

 BCF -- BLOCK-CENTERED FLOW PACKAGE, VERSION 7, 5/2/2005
         INPUT READ FROM UNIT 13
 TRANSIENT SIMULATION
 HEAD AT CELLS THAT CONVERT TO DRY=   0.0000    
 WETTING CAPABILITY IS NOT ACTIVE
      LAYER  LAYER-TYPE CODE     INTERBLOCK T
      --------------------------------------------
         1            0          0 -- HARMONIC    

 COLUMN TO ROW ANISOTROPY =  1.000000    

     PRIMARY STORAGE COEF =  5.000000E-02 FOR LAYER   1

     TRANSMIS. ALONG ROWS =   500.000     FOR LAYER   1

 WEL -- WELL PACKAGE, VERSION 7, 5/2/2005 INPUT READ FROM UNIT   19
 # Well package input file written by MMProc
 No named parameters
 MAXIMUM OF      6 ACTIVE WELLS AT ONE TIME


     0 Well parameters

 RCH -- RECHARGE PACKAGE, VERSION 7, 5/2/2005 INPUT READ FROM UNIT   15
 No named parameters
 OPTION 1 -- RECHARGE TO TOP LAYER


     0 Recharge parameters

 SFR7 -- STREAMFLOW ROUTING PACKAGE, VERSION 1.0.7, 2013-01-15
         INPUT READ FROM UNIT  16
 #  Supply2 test problem for GWM-VI
 #  The eighth entry in the first data line is ISTCB2 -
 #    Setting this to a negative number indicates that
 #    streamflows out of the reach will be saved to a
 #    binary file.  The absolute value of ISTCB2 is the
 #    unit to which unformatted flows will be written.
 #
 No named parameters
 Segment information will not be 
 read by reach
 No named parameters
 No specifed inflow files


 NUMBER OF STREAM REACHES IS   40

 NUMBER OF STREAM SEGMENTS IS    3

 NUMBER OF STREAM PARAMETERS IS    0

 NUMBER OF STREAM SEGMENTS DEFINED USING PARAMETERS IS              0

 MAXIMUM ERROR FOR STREAM LEAKAGE RATES IS  1.00E-04

 CONSTANT FOR MANNINGS EQUATION IS  1.2839E+05





   STREAM NETWORK DESCRIPTION: 

   LAYER    ROW    COL   SEGMENT   REACH     LENGTH
                          NUMBER   NUMBER    IN CELL        
   --------------------------------------------------
      1     13      1       1        1    2.0000E+02
      1     13      2       1        2    2.0000E+02
      1     14      3       1        3    2.0000E+02
      1     15      4       1        4    2.0000E+02
      1     16      5       1        5    2.0000E+02
      1     16      6       1        6    2.0000E+02
      1     16      7       1        7    2.0000E+02
      1     16      8       1        8    2.0000E+02
      1     16      9       1        9    2.0000E+02
      1     16     10       1       10    2.0000E+02
      1     16     11       1       11    2.0000E+02
      1     16     12       1       12    2.0000E+02
      1     15     13       1       13    2.0000E+02
      1     14     14       1       14    2.0000E+02
      1     13     15       1       15    2.0000E+02
      1     12     16       1       16    2.0000E+02
      1     12     17       1       17    2.0000E+02
      1     12     18       1       18    2.0000E+02
      1     12     19       1       19    2.0000E+02
      1     13     20       1       20    2.0000E+02
      1     14     21       1       21    2.0000E+02
      1     14     22       1       22    2.0000E+02
      1      9     30       2        1    2.0000E+02
      1      9     29       2        2    2.0000E+02
      1      9     28       2        3    2.0000E+02
      1      9     27       2        4    2.0000E+02
      1     10     26       2        5    2.0000E+02
      1     11     25       2        6    2.0000E+02
      1     12     24       2        7    2.0000E+02
      1     13     23       2        8    2.0000E+02
      1     14     22       2        9    2.0000E+02
      1     14     22       3        1    2.0000E+02
      1     15     23       3        2    2.0000E+02
      1     15     24       3        3    2.0000E+02
      1     15     25       3        4    2.0000E+02
      1     15     26       3        5    2.0000E+02
      1     16     27       3        6    2.0000E+02
      1     17     28       3        7    2.0000E+02
      1     18     29       3        8    2.0000E+02
      1     18     30       3        9    2.0000E+02




 PCG -- CONJUGATE-GRADIENT SOLUTION PACKAGE, VERSION 7, 5/2/2005
 MAXIMUM OF    500 CALLS OF SOLUTION ROUTINE
 MAXIMUM OF      5 INTERNAL ITERATIONS PER CALL TO SOLUTION ROUTINE
 MATRIX PRECONDITIONING TYPE :    1



                                    SOLUTION BY THE CONJUGATE-GRADIENT METHOD
                                   -------------------------------------------
                    MAXIMUM NUMBER OF CALLS TO PCG ROUTINE =      500
                        MAXIMUM ITERATIONS PER CALL TO PCG =        5
                               MATRIX PRECONDITIONING TYPE =        1
        RELAXATION FACTOR (ONLY USED WITH PRECOND. TYPE 1) =    0.10000E+01
 PARAMETER OF POLYNOMIAL PRECOND. = 2 (2) OR IS CALCULATED :        0
                         HEAD CHANGE CRITERION FOR CLOSURE =    0.10000E-05
                     RESIDUAL CHANGE CRITERION FOR CLOSURE =    0.10000E+01
            PCG HEAD AND RESIDUAL CHANGE PRINTOUT INTERVAL =        1
     PRINTING FROM SOLVER IS LIMITED(1) OR SUPPRESSED (>1) =        1
                            STEADY-STATE DAMPING PARAMETER =    0.10000E+01
                               TRANSIENT DAMPING PARAMETER =    0.10000E+01
1
                            STRESS PERIOD NO.    1, LENGTH =   92.00000    
                            -----------------------------------------------

                              NUMBER OF TIME STEPS =     1

                               MULTIPLIER FOR DELT =     1.500

                            INITIAL TIME STEP SIZE =   92.00000    

 WELL NO.  LAYER   ROW   COL   STRESS RATE         
 --------------------------------------------------
      1      1      5     14     -0.2595E+05
      2      1      4     17     -0.2695E+05
      3      1      3     26     -0.3390E+05

      3 WELLS

                 RECHARGE =  5.000000E-04



 CLASSIFICATION & COUNT OF STREAM SEGMENTS BASED ON SOURCE OF INFLOW:

                HEADWATER     DIVERSION     RECEIVES TRIBUTARY FLOW
                ---------     ---------     -----------------------
                     2              0               1



                    INPUT DATA FOR EACH STREAM SEGMENT
 ---------------------------------------------------------------------------------------------

 SEGMENT    SEG.     INFLOW   OVERLAND   STREAM    STREAM   ICALC  OUTFLOW  DIVERSION PRIORITY
    NO.    LENGTH     RATE     RUNOFF      ET       PPT.    METH.  TO SEG.  FROM SEG.    NO.

      1  4.400E+03 1.000E+05 0.000E+00 0.000E+00 0.000E+00    1        3        0        0
      2  1.800E+03 5.000E+04 0.000E+00 0.000E+00 0.000E+00    1        3        0        0
      3  1.800E+03 0.000E+00 0.000E+00 0.000E+00 0.000E+00    1        0        0        0


         STREAMBED PROPERTIES AND STREAM DIMENSIONS

 SEGMENT     BED HYD. COND.      BED THICKNESS     ELEV.-TOP OF BED     WIDTH OF STREAM     DEPTH OF STREAM    STREAM ROUGHNESS
    No.     UPPER     LOWER     UPPER     LOWER     UPPER     LOWER     UPPER     LOWER     UPPER     LOWER   CHANNEL      BANK

     1  5.000E+00 5.000E+00 1.000E+00 1.000E+00 4.850E+01 3.800E+01 2.000E+01 2.000E+01                     5.000E-02
     2  5.000E+00 5.000E+00 1.000E+00 1.000E+00 4.025E+01 3.800E+01 2.000E+01 2.000E+01                     5.000E-02
     3  5.000E+00 5.000E+00 1.000E+00 1.000E+00 3.800E+01 3.000E+01 2.000E+01 2.000E+01                     5.000E-02



 
 SOLVING FOR HEAD 


     8 CALLS TO PCG ROUTINE FOR TIME STEP   1 IN STRESS PERIOD    1
    34 TOTAL ITERATIONS

 OUTPUT CONTROL FOR STRESS PERIOD    1   TIME STEP    1
    SAVE BUDGET
    SAVE HEAD FOR ALL LAYERS
    PRINT HEAD FOR ALL LAYERS
 UBDSV2 SAVING "STREAMFLOW OUT  " ON UNIT  50 AT TIME STEP  1, STRESS PERIOD   1



 STREAM LISTING     PERIOD      1   STEP        1

 LAYER ROW COL. STREAM  RCH.  FLOW INTO     FLOW TO   FLOW OUT OF   OVRLND.     DIRECT     STREAM       STREAM     STREAM     STREAM   STREAMBED  STREAMBED
                SEG.NO.  NO.  STRM. RCH.    AQUIFER    STRM. RCH.    RUNOFF     PRECIP       ET          HEAD       DEPTH      WIDTH   CONDCTNC.   GRADIENT

   1   13    1     1     1    1.0000E+05 -5.6978E+03   1.0570E+05  0.000E+00  0.000E+00  0.000E+00  4.84085E+01  1.471E-01  2.000E+01  2.000E+04 -2.849E-01
   1   13    2     1     2    1.0570E+05 -8.4895E+03   1.1419E+05  0.000E+00  0.000E+00  0.000E+00  4.79372E+01  1.531E-01  2.000E+01  2.000E+04 -4.245E-01
   1   14    3     1     3    1.1419E+05 -7.7915E+03   1.2198E+05  0.000E+00  0.000E+00  0.000E+00  4.74666E+01  1.598E-01  2.000E+01  2.000E+04 -3.896E-01
   1   15    4     1     4    1.2198E+05 -7.6371E+03   1.2962E+05  0.000E+00  0.000E+00  0.000E+00  4.69956E+01  1.660E-01  2.000E+01  2.000E+04 -3.819E-01
   1   16    5     1     5    1.2962E+05 -7.4711E+03   1.3709E+05  0.000E+00  0.000E+00  0.000E+00  4.65242E+01  1.719E-01  2.000E+01  2.000E+04 -3.736E-01
   1   16    6     1     6    1.3709E+05 -5.9559E+03   1.4304E+05  0.000E+00  0.000E+00  0.000E+00  4.60521E+01  1.771E-01  2.000E+01  2.000E+04 -2.978E-01
   1   16    7     1     7    1.4304E+05 -6.0781E+03   1.4912E+05  0.000E+00  0.000E+00  0.000E+00  4.55793E+01  1.816E-01  2.000E+01  2.000E+04 -3.039E-01
   1   16    8     1     8    1.4912E+05 -6.1491E+03   1.5527E+05  0.000E+00  0.000E+00  0.000E+00  4.51066E+01  1.861E-01  2.000E+01  2.000E+04 -3.075E-01
   1   16    9     1     9    1.5527E+05 -6.1534E+03   1.6142E+05  0.000E+00  0.000E+00  0.000E+00  4.46338E+01  1.906E-01  2.000E+01  2.000E+04 -3.077E-01
   1   16   10     1    10    1.6142E+05 -6.0988E+03   1.6752E+05  0.000E+00  0.000E+00  0.000E+00  4.41609E+01  1.950E-01  2.000E+01  2.000E+04 -3.049E-01
   1   16   11     1    11    1.6752E+05 -6.0257E+03   1.7355E+05  0.000E+00  0.000E+00  0.000E+00  4.36879E+01  1.993E-01  2.000E+01  2.000E+04 -3.013E-01
   1   16   12     1    12    1.7355E+05 -7.8706E+03   1.8142E+05  0.000E+00  0.000E+00  0.000E+00  4.32155E+01  2.041E-01  2.000E+01  2.000E+04 -3.935E-01
   1   15   13     1    13    1.8142E+05 -8.0188E+03   1.8944E+05  0.000E+00  0.000E+00  0.000E+00  4.27436E+01  2.095E-01  2.000E+01  2.000E+04 -4.009E-01
   1   14   14     1    14    1.8944E+05 -8.0890E+03   1.9753E+05  0.000E+00  0.000E+00  0.000E+00  4.22718E+01  2.149E-01  2.000E+01  2.000E+04 -4.044E-01
   1   13   15     1    15    1.9753E+05 -8.0514E+03   2.0558E+05  0.000E+00  0.000E+00  0.000E+00  4.17998E+01  2.203E-01  2.000E+01  2.000E+04 -4.026E-01
   1   12   16     1    16    2.0558E+05 -8.2486E+03   2.1383E+05  0.000E+00  0.000E+00  0.000E+00  4.13278E+01  2.256E-01  2.000E+01  2.000E+04 -4.124E-01
   1   12   17     1    17    2.1383E+05 -5.9212E+03   2.1975E+05  0.000E+00  0.000E+00  0.000E+00  4.08551E+01  2.301E-01  2.000E+01  2.000E+04 -2.961E-01
   1   12   18     1    18    2.1975E+05 -5.8264E+03   2.2557E+05  0.000E+00  0.000E+00  0.000E+00  4.03816E+01  2.338E-01  2.000E+01  2.000E+04 -2.913E-01
   1   12   19     1    19    2.2557E+05 -7.3559E+03   2.3293E+05  0.000E+00  0.000E+00  0.000E+00  3.99084E+01  2.380E-01  2.000E+01  2.000E+04 -3.678E-01
   1   13   20     1    20    2.3293E+05 -6.4541E+03   2.3938E+05  0.000E+00  0.000E+00  0.000E+00  3.94354E+01  2.422E-01  2.000E+01  2.000E+04 -3.227E-01
   1   14   21     1    21    2.3938E+05 -5.5858E+03   2.4497E+05  0.000E+00  0.000E+00  0.000E+00  3.89618E+01  2.459E-01  2.000E+01  2.000E+04 -2.793E-01
   1   14   22     1    22    2.4497E+05  4.4008E+03   2.4057E+05  0.000E+00  0.000E+00  0.000E+00  3.84849E+01  2.463E-01  2.000E+01  2.000E+04  2.200E-01
   1    9   30     2     1    5.0000E+04 -4.9964E+03   5.4996E+04  0.000E+00  0.000E+00  0.000E+00  4.02443E+01  1.193E-01  2.000E+01  2.000E+04 -2.498E-01
   1    9   29     2     2    5.4996E+04 -5.2428E+03   6.0239E+04  0.000E+00  0.000E+00  0.000E+00  4.00012E+01  1.262E-01  2.000E+01  2.000E+04 -2.621E-01
   1    9   28     2     3    6.0239E+04 -5.4566E+03   6.5696E+04  0.000E+00  0.000E+00  0.000E+00  3.97581E+01  1.331E-01  2.000E+01  2.000E+04 -2.728E-01
   1    9   27     2     4    6.5696E+04 -8.2943E+03   7.3990E+04  0.000E+00  0.000E+00  0.000E+00  3.95166E+01  1.416E-01  2.000E+01  2.000E+04 -4.147E-01
   1   10   26     2     5    7.3990E+04 -6.9445E+03   8.0935E+04  0.000E+00  0.000E+00  0.000E+00  3.92757E+01  1.507E-01  2.000E+01  2.000E+04 -3.472E-01
   1   11   25     2     6    8.0935E+04 -6.0461E+03   8.6981E+04  0.000E+00  0.000E+00  0.000E+00  3.90331E+01  1.581E-01  2.000E+01  2.000E+04 -3.023E-01
   1   12   24     2     7    8.6981E+04 -4.9418E+03   9.1923E+04  0.000E+00  0.000E+00  0.000E+00  3.87893E+01  1.643E-01  2.000E+01  2.000E+04 -2.471E-01
   1   13   23     2     8    9.1923E+04 -3.5479E+03   9.5470E+04  0.000E+00  0.000E+00  0.000E+00  3.85439E+01  1.689E-01  2.000E+01  2.000E+04 -1.774E-01
   1   14   22     2     9    9.5470E+04  6.1183E+02   9.4859E+04  0.000E+00  0.000E+00  0.000E+00  3.82955E+01  1.705E-01  2.000E+01  2.000E+04  3.059E-02
   1   14   22     3     1    3.3543E+05 -9.1835E+03   3.4461E+05  0.000E+00  0.000E+00  0.000E+00  3.78057E+01  2.502E-01  2.000E+01  2.000E+04 -4.592E-01
   1   15   23     3     2    3.4461E+05 -6.0476E+03   3.5066E+05  0.000E+00  0.000E+00  0.000E+00  3.69202E+01  2.535E-01  2.000E+01  2.000E+04 -3.024E-01
   1   15   24     3     3    3.5066E+05 -4.3719E+03   3.5503E+05  0.000E+00  0.000E+00  0.000E+00  3.60335E+01  2.558E-01  2.000E+01  2.000E+04 -2.186E-01
   1   15   25     3     4    3.5503E+05 -4.3601E+03   3.5939E+05  0.000E+00  0.000E+00  0.000E+00  3.51466E+01  2.577E-01  2.000E+01  2.000E+04 -2.180E-01
   1   15   26     3     5    3.5939E+05 -5.6734E+03   3.6506E+05  0.000E+00  0.000E+00  0.000E+00  3.42598E+01  2.598E-01  2.000E+01  2.000E+04 -2.837E-01
   1   16   27     3     6    3.6506E+05 -7.2938E+03   3.7236E+05  0.000E+00  0.000E+00  0.000E+00  3.33737E+01  2.626E-01  2.000E+01  2.000E+04 -3.647E-01
   1   17   28     3     7    3.7236E+05 -8.0763E+03   3.8043E+05  0.000E+00  0.000E+00  0.000E+00  3.24881E+01  2.659E-01  2.000E+01  2.000E+04 -4.038E-01
   1   18   29     3     8    3.8043E+05 -9.1263E+03   3.8956E+05  0.000E+00  0.000E+00  0.000E+00  3.16028E+01  2.695E-01  2.000E+01  2.000E+04 -4.563E-01
   1   18   30     3     9    3.8956E+05 -7.5410E+03   3.9710E+05  0.000E+00  0.000E+00  0.000E+00  3.07174E+01  2.730E-01  2.000E+01  2.000E+04 -3.770E-01



1
              HEAD IN LAYER   1 AT END OF TIME STEP   1 IN STRESS PERIOD    1
  ---------------------------------------------------------------------------

          1      2      3      4      5      6      7      8      9     10
         11     12     13     14     15     16     17     18     19     20
         21     22     23     24     25     26     27     28     29     30
 .........................................................................
   1  ****** ****** ****** ****** ****** ****** ****** ****** ****** ******
      ****** ****** ****** ****** ****** ****** ****** ****** ****** ******
      ****** ****** ****** ****** ****** ****** ****** ****** ****** ******
   2  ****** ****** ****** ****** ****** ****** ****** ****** ****** ******
      ****** ****** ****** ****** ****** ****** ****** ****** ****** ******
      ****** ****** ****** ****** ****** ****** ****** ****** ****** ******
   3  ****** ****** ****** ****** ****** ****** ****** ****** ****** ******
      ****** ****** ****** ****** ****** ****** ****** ****** ****** ******
      ****** ****** ****** ****** ****** ****** ****** ****** ****** ******
   4  ****** ****** ****** ****** ****** ****** ****** ****** ****** ******
      ****** ****** ****** ****** ****** ****** ****** ****** ****** ******
      ****** ****** ****** ****** ****** ****** ****** ****** ****** ******
   5  ****** ****** ****** ****** ****** ****** ****** ****** ****** ******
      ****** ****** ****** ****** ****** ****** ****** ****** ****** ******
      ****** ****** ****** ****** ****** ****** ****** ****** ****** ******
   6  ****** ****** ****** ****** ****** ****** ****** ****** ****** ******
      ****** ****** ****** ****** ****** ****** ****** ****** ****** ******
      ****** ****** ****** ****** ****** ****** ****** ****** ****** ******
   7  ****** ****** ****** ****** ****** ****** ****** ****** ****** ******
      ****** ****** ****** ****** ****** ****** ****** ****** ****** ******
      ****** ****** ****** ****** ****** ****** ****** ****** ****** ******
   8  ****** ****** ****** ****** ****** ****** ****** ****** ****** ******
      ****** ****** ****** ****** ****** ****** ****** ****** ****** ******
      ****** ****** ****** ****** ****** ****** ****** ****** ****** ******
   9  ****** ****** ****** ****** ****** ****** ****** ****** ****** ******
      ****** ****** ****** ****** ****** ****** ****** ****** ****** ******
      ****** ****** ****** ****** ****** ****** ****** ****** ****** ******
  10  ****** ****** ****** ****** ****** ****** ****** ****** ****** ******
      ****** ****** ****** ****** ****** ****** ****** ****** ****** ******
      ****** ****** ****** ****** ****** ****** ****** ****** ****** ******
  11  ****** ****** ****** ****** ****** ****** ****** ****** ****** ******
      ****** ****** ****** ****** ****** ****** ****** ****** ****** ******
      ****** ****** ****** ****** ****** ****** ****** ****** ****** ******
  12  ****** ****** ****** ****** ****** ****** ****** ****** ****** ******
      ****** ****** ****** ****** ****** ****** ****** ****** ****** ******
      ****** ****** ****** ****** ****** ****** ****** ****** ****** ******
  13  ****** ****** ****** ****** ****** ****** ****** ****** ****** ******
      ****** ****** ****** ****** ****** ****** ****** ****** ****** ******
      ****** ****** ****** ****** ****** ****** ****** ****** ****** ******
  14  ****** ****** ****** ****** ****** ****** ****** ****** ****** ******
      ****** ****** ****** ****** ****** ****** ****** ****** ****** ******
      ****** ****** ****** ****** ****** ****** ****** ****** ****** ******
  15  ****** ****** ****** ****** ****** ****** ****** ****** ****** ******
      ****** ****** ****** ****** ****** ****** ****** ****** ****** ******
      ****** ****** ****** ****** ****** ****** ****** ****** ****** ******
  16  ****** ****** ****** ****** ****** ****** ****** ****** ****** ******
      ****** ****** ****** ****** ****** ****** ****** ****** ****** ******
      ****** ****** ****** ****** ****** ****** ****** ****** ****** ******
  17  ****** ****** ****** ****** ****** ****** ****** ****** ****** ******
      ****** ****** ****** ****** ****** ****** ****** ****** ****** ******
      ****** ****** ****** ****** ****** ****** ****** ****** ****** ******
  18  ****** ****** ****** ****** ****** ****** ****** ****** ****** ******
      ****** ****** ****** ****** ****** ****** ****** ****** ****** ******
      ****** ****** ****** ****** ****** ****** ****** ****** ****** ******
  19  ****** ****** ****** ****** ****** ****** ****** ****** ****** ******
      ****** ****** ****** ****** ****** ****** ****** ****** ****** ******
      ****** ****** ****** ****** ****** ****** ****** ****** ****** ******
  20  ****** ****** ****** ****** ****** ****** ****** ****** ****** ******
      ****** ****** ****** ****** ****** ****** ****** ****** ****** ******
      ****** ****** ****** ****** ****** ****** ****** ****** ****** ******
  21  ****** ****** ****** ****** ****** ****** ****** ****** ****** ******
      ****** ****** ****** ****** ****** ****** ****** ****** ****** ******
      ****** ****** ****** ****** ****** ****** ****** ****** ****** ******
  22  ****** ****** ****** ****** ****** ****** ****** ****** ****** ******
      ****** ****** ****** ****** ****** ****** ****** ****** ****** ******
      ****** ****** ****** ****** ****** ****** ****** ****** ****** ******
  23  ****** ****** ****** ****** ****** ****** ****** ****** ****** ******
      ****** ****** ****** ****** ****** ****** ****** ****** ****** ******
      ****** ****** ****** ****** ****** ****** ****** ****** ****** ******
  24  ****** ****** ****** ****** ****** ****** ****** ****** ****** ******
      ****** ****** ****** ****** ****** ****** ****** ****** ****** ******
      ****** ****** ****** ****** ****** ****** ****** ****** ****** ******
  25  ****** ****** ****** ****** ****** ****** ****** ****** ****** ******
      ****** ****** ****** ****** ****** ****** ****** ****** ****** ******
      ****** ****** ****** ****** ****** ****** ****** ****** ****** ******

 HEAD WILL BE SAVED ON UNIT   51 AT END OF TIME STEP    1, STRESS PERIOD    1
1
  VOLUMETRIC BUDGET FOR ENTIRE MODEL AT END OF TIME STEP    1, STRESS PERIOD   1
  ------------------------------------------------------------------------------

     CUMULATIVE VOLUMES      L**3       RATES FOR THIS TIME STEP      L**3/T
     ------------------                 ------------------------

           IN:                                      IN:
           ---                                      ---
             STORAGE =    17890253.6894               STORAGE =      194459.2792
       CONSTANT HEAD =    11559617.7306         CONSTANT HEAD =      125648.0188
               WELLS =           0.0000                 WELLS =           0.0000
            RECHARGE =     1269600.0000              RECHARGE =       13800.0000
      STREAM LEAKAGE =      461162.9800        STREAM LEAKAGE =        5012.6411

            TOTAL IN =    31180634.4000              TOTAL IN =      338919.9391

          OUT:                                     OUT:
          ----                                     ----
             STORAGE =           0.0000               STORAGE =           0.0000
       CONSTANT HEAD =           0.0000         CONSTANT HEAD =           0.0000
               WELLS =     7986142.1149                 WELLS =       86805.8926
            RECHARGE =           0.0000              RECHARGE =           0.0000
      STREAM LEAKAGE =    23194492.4252        STREAM LEAKAGE =      252114.0481

           TOTAL OUT =    31180634.5400             TOTAL OUT =      338919.9407

            IN - OUT =          -0.1400              IN - OUT =      -1.5222E-03

 PERCENT DISCREPANCY =          -0.00     PERCENT DISCREPANCY =          -0.00






         TIME SUMMARY AT END OF TIME STEP    1 IN STRESS PERIOD    1
                    SECONDS     MINUTES      HOURS       DAYS        YEARS
                    -----------------------------------------------------------
   TIME STEP LENGTH 7.94880E+06 1.32480E+05  2208.0      92.000     0.25188    
 STRESS PERIOD TIME 7.94880E+06 1.32480E+05  2208.0      92.000     0.25188    
         TOTAL TIME 7.94880E+06 1.32480E+05  2208.0      92.000     0.25188    
1
1
                            STRESS PERIOD NO.    2, LENGTH =   91.00000    
                            -----------------------------------------------

                              NUMBER OF TIME STEPS =     1

                               MULTIPLIER FOR DELT =     1.500

                            INITIAL TIME STEP SIZE =   91.00000    

 WELL NO.  LAYER   ROW   COL   STRESS RATE         
 --------------------------------------------------
      1      1      5     14     -0.2595E+05
      2      1      4     17     -0.2695E+05
      3      1      3     26     -0.3390E+05

      3 WELLS

                 RECHARGE =  2.000000E-03

 REUSING STREAM SEGMENT DATA FROM LAST STRESS PERIOD
 
 SOLVING FOR HEAD 


     7 CALLS TO PCG ROUTINE FOR TIME STEP   1 IN STRESS PERIOD    2
    27 TOTAL ITERATIONS

 OUTPUT CONTROL FOR STRESS PERIOD    2   TIME STEP    1
    SAVE BUDGET
    SAVE HEAD FOR ALL LAYERS
    PRINT HEAD FOR ALL LAYERS
 UBDSV2 SAVING "STREAMFLOW OUT  " ON UNIT  50 AT TIME STEP  1, STRESS PERIOD   2



 STREAM LISTING     PERIOD      2   STEP        1

 LAYER ROW COL. STREAM  RCH.  FLOW INTO     FLOW TO   FLOW OUT OF   OVRLND.     DIRECT     STREAM       STREAM     STREAM     STREAM   STREAMBED  STREAMBED
                SEG.NO.  NO.  STRM. RCH.    AQUIFER    STRM. RCH.    RUNOFF     PRECIP       ET          HEAD       DEPTH      WIDTH   CONDCTNC.   GRADIENT

   1   13    1     1     1    1.0000E+05 -3.7194E+03   1.0372E+05  0.000E+00  0.000E+00  0.000E+00  4.84076E+01  1.463E-01  2.000E+01  2.000E+04 -1.860E-01
   1   13    2     1     2    1.0372E+05 -5.9534E+03   1.0967E+05  0.000E+00  0.000E+00  0.000E+00  4.79345E+01  1.504E-01  2.000E+01  2.000E+04 -2.977E-01
   1   14    3     1     3    1.0967E+05 -4.9767E+03   1.1465E+05  0.000E+00  0.000E+00  0.000E+00  4.74618E+01  1.550E-01  2.000E+01  2.000E+04 -2.488E-01
   1   15    4     1     4    1.1465E+05 -4.8596E+03   1.1951E+05  0.000E+00  0.000E+00  0.000E+00  4.69886E+01  1.590E-01  2.000E+01  2.000E+04 -2.430E-01
   1   16    5     1     5    1.1951E+05 -5.1289E+03   1.2464E+05  0.000E+00  0.000E+00  0.000E+00  4.65153E+01  1.630E-01  2.000E+01  2.000E+04 -2.564E-01
   1   16    6     1     6    1.2464E+05 -4.0169E+03   1.2865E+05  0.000E+00  0.000E+00  0.000E+00  4.60417E+01  1.667E-01  2.000E+01  2.000E+04 -2.008E-01
   1   16    7     1     7    1.2865E+05 -4.0865E+03   1.3274E+05  0.000E+00  0.000E+00  0.000E+00  4.55676E+01  1.699E-01  2.000E+01  2.000E+04 -2.043E-01
   1   16    8     1     8    1.3274E+05 -4.1216E+03   1.3686E+05  0.000E+00  0.000E+00  0.000E+00  4.50935E+01  1.730E-01  2.000E+01  2.000E+04 -2.061E-01
   1   16    9     1     9    1.3686E+05 -4.1084E+03   1.4097E+05  0.000E+00  0.000E+00  0.000E+00  4.46194E+01  1.762E-01  2.000E+01  2.000E+04 -2.054E-01
   1   16   10     1    10    1.4097E+05 -4.0571E+03   1.4503E+05  0.000E+00  0.000E+00  0.000E+00  4.41452E+01  1.793E-01  2.000E+01  2.000E+04 -2.029E-01
   1   16   11     1    11    1.4503E+05 -4.0116E+03   1.4904E+05  0.000E+00  0.000E+00  0.000E+00  4.36709E+01  1.823E-01  2.000E+01  2.000E+04 -2.006E-01
   1   16   12     1    12    1.4904E+05 -5.4200E+03   1.5446E+05  0.000E+00  0.000E+00  0.000E+00  4.31971E+01  1.858E-01  2.000E+01  2.000E+04 -2.710E-01
   1   15   13     1    13    1.5446E+05 -5.0050E+03   1.5946E+05  0.000E+00  0.000E+00  0.000E+00  4.27237E+01  1.896E-01  2.000E+01  2.000E+04 -2.503E-01
   1   14   14     1    14    1.5946E+05 -4.8584E+03   1.6432E+05  0.000E+00  0.000E+00  0.000E+00  4.22500E+01  1.931E-01  2.000E+01  2.000E+04 -2.429E-01
   1   13   15     1    15    1.6432E+05 -4.7274E+03   1.6905E+05  0.000E+00  0.000E+00  0.000E+00  4.17761E+01  1.965E-01  2.000E+01  2.000E+04 -2.364E-01
   1   12   16     1    16    1.6905E+05 -4.9869E+03   1.7404E+05  0.000E+00  0.000E+00  0.000E+00  4.13022E+01  2.000E-01  2.000E+01  2.000E+04 -2.493E-01
   1   12   17     1    17    1.7404E+05 -3.4275E+03   1.7747E+05  0.000E+00  0.000E+00  0.000E+00  4.08279E+01  2.029E-01  2.000E+01  2.000E+04 -1.714E-01
   1   12   18     1    18    1.7747E+05 -3.3718E+03   1.8084E+05  0.000E+00  0.000E+00  0.000E+00  4.03530E+01  2.052E-01  2.000E+01  2.000E+04 -1.686E-01
   1   12   19     1    19    1.8084E+05 -4.3541E+03   1.8519E+05  0.000E+00  0.000E+00  0.000E+00  3.98783E+01  2.079E-01  2.000E+01  2.000E+04 -2.177E-01
   1   13   20     1    20    1.8519E+05 -3.5971E+03   1.8879E+05  0.000E+00  0.000E+00  0.000E+00  3.94038E+01  2.106E-01  2.000E+01  2.000E+04 -1.799E-01
   1   14   21     1    21    1.8879E+05 -3.2244E+03   1.9201E+05  0.000E+00  0.000E+00  0.000E+00  3.89288E+01  2.129E-01  2.000E+01  2.000E+04 -1.612E-01
   1   14   22     1    22    1.9201E+05  4.9745E+03   1.8704E+05  0.000E+00  0.000E+00  0.000E+00  3.84509E+01  2.123E-01  2.000E+01  2.000E+04  2.487E-01
   1    9   30     2     1    5.0000E+04 -2.6308E+03   5.2631E+04  0.000E+00  0.000E+00  0.000E+00  4.02427E+01  1.177E-01  2.000E+01  2.000E+04 -1.315E-01
   1    9   29     2     2    5.2631E+04 -2.8866E+03   5.5517E+04  0.000E+00  0.000E+00  0.000E+00  3.99964E+01  1.214E-01  2.000E+01  2.000E+04 -1.443E-01
   1    9   28     2     3    5.5517E+04 -3.1140E+03   5.8631E+04  0.000E+00  0.000E+00  0.000E+00  3.97504E+01  1.254E-01  2.000E+01  2.000E+04 -1.557E-01
   1    9   27     2     4    5.8631E+04 -5.3106E+03   6.3942E+04  0.000E+00  0.000E+00  0.000E+00  3.95059E+01  1.309E-01  2.000E+01  2.000E+04 -2.655E-01
   1   10   26     2     5    6.3942E+04 -3.6666E+03   6.7609E+04  0.000E+00  0.000E+00  0.000E+00  3.92616E+01  1.366E-01  2.000E+01  2.000E+04 -1.833E-01
   1   11   25     2     6    6.7609E+04 -2.8713E+03   7.0480E+04  0.000E+00  0.000E+00  0.000E+00  3.90156E+01  1.406E-01  2.000E+01  2.000E+04 -1.436E-01
   1   12   24     2     7    7.0480E+04 -2.1039E+03   7.2584E+04  0.000E+00  0.000E+00  0.000E+00  3.87686E+01  1.436E-01  2.000E+01  2.000E+04 -1.052E-01
   1   13   23     2     8    7.2584E+04 -1.3000E+03   7.3884E+04  0.000E+00  0.000E+00  0.000E+00  3.85207E+01  1.457E-01  2.000E+01  2.000E+04 -6.500E-02
   1   14   22     2     9    7.3884E+04  1.3688E+03   7.2515E+04  0.000E+00  0.000E+00  0.000E+00  3.82706E+01  1.456E-01  2.000E+01  2.000E+04  6.844E-02
   1   14   22     3     1    2.5955E+05 -8.6359E+03   2.6819E+05  0.000E+00  0.000E+00  0.000E+00  3.77704E+01  2.148E-01  2.000E+01  2.000E+04 -4.318E-01
   1   15   23     3     2    2.6819E+05 -3.9760E+03   2.7216E+05  0.000E+00  0.000E+00  0.000E+00  3.68846E+01  2.179E-01  2.000E+01  2.000E+04 -1.988E-01
   1   15   24     3     3    2.7216E+05 -2.6819E+03   2.7485E+05  0.000E+00  0.000E+00  0.000E+00  3.59973E+01  2.195E-01  2.000E+01  2.000E+04 -1.341E-01
   1   15   25     3     4    2.7485E+05 -2.5326E+03   2.7738E+05  0.000E+00  0.000E+00  0.000E+00  3.51097E+01  2.208E-01  2.000E+01  2.000E+04 -1.266E-01
   1   15   26     3     5    2.7738E+05 -3.0686E+03   2.8045E+05  0.000E+00  0.000E+00  0.000E+00  3.42221E+01  2.221E-01  2.000E+01  2.000E+04 -1.534E-01
   1   16   27     3     6    2.8045E+05 -4.2686E+03   2.8472E+05  0.000E+00  0.000E+00  0.000E+00  3.33350E+01  2.239E-01  2.000E+01  2.000E+04 -2.134E-01
   1   17   28     3     7    2.8472E+05 -5.1052E+03   2.8982E+05  0.000E+00  0.000E+00  0.000E+00  3.24483E+01  2.261E-01  2.000E+01  2.000E+04 -2.553E-01
   1   18   29     3     8    2.8982E+05 -6.6973E+03   2.9652E+05  0.000E+00  0.000E+00  0.000E+00  3.15622E+01  2.289E-01  2.000E+01  2.000E+04 -3.349E-01
   1   18   30     3     9    2.9652E+05 -5.4758E+03   3.0199E+05  0.000E+00  0.000E+00  0.000E+00  3.06761E+01  2.317E-01  2.000E+01  2.000E+04 -2.738E-01



1
              HEAD IN LAYER   1 AT END OF TIME STEP   1 IN STRESS PERIOD    2
  ---------------------------------------------------------------------------

          1      2      3      4      5      6      7      8      9     10
         11     12     13     14     15     16     17     18     19     20
         21     22     23     24     25     26     27     28     29     30
 .........................................................................
   1  ****** ****** ****** ****** ****** ****** ****** ****** ****** ******
      ****** ****** ****** ****** ****** ****** ****** ****** ****** ******
      ****** ****** ****** ****** ****** ****** ****** ****** ****** ******
   2  ****** ****** ****** ****** ****** ****** ****** ****** ****** ******
      ****** ****** ****** ****** ****** ****** ****** ****** ****** ******
      ****** ****** ****** ****** ****** ****** ****** ****** ****** ******
   3  ****** ****** ****** ****** ****** ****** ****** ****** ****** ******
      ****** ****** ****** ****** ****** ****** ****** ****** ****** ******
      ****** ****** ****** ****** ****** ****** ****** ****** ****** ******
   4  ****** ****** ****** ****** ****** ****** ****** ****** ****** ******
      ****** ****** ****** ****** ****** ****** ****** ****** ****** ******
      ****** ****** ****** ****** ****** ****** ****** ****** ****** ******
   5  ****** ****** ****** ****** ****** ****** ****** ****** ****** ******
      ****** ****** ****** ****** ****** ****** ****** ****** ****** ******
      ****** ****** ****** ****** ****** ****** ****** ****** ****** ******
   6  ****** ****** ****** ****** ****** ****** ****** ****** ****** ******
      ****** ****** ****** ****** ****** ****** ****** ****** ****** ******
      ****** ****** ****** ****** ****** ****** ****** ****** ****** ******
   7  ****** ****** ****** ****** ****** ****** ****** ****** ****** ******
      ****** ****** ****** ****** ****** ****** ****** ****** ****** ******
      ****** ****** ****** ****** ****** ****** ****** ****** ****** ******
   8  ****** ****** ****** ****** ****** ****** ****** ****** ****** ******
      ****** ****** ****** ****** ****** ****** ****** ****** ****** ******
      ****** ****** ****** ****** ****** ****** ****** ****** ****** ******
   9  ****** ****** ****** ****** ****** ****** ****** ****** ****** ******
      ****** ****** ****** ****** ****** ****** ****** ****** ****** ******
      ****** ****** ****** ****** ****** ****** ****** ****** ****** ******
  10  ****** ****** ****** ****** ****** ****** ****** ****** ****** ******
      ****** ****** ****** ****** ****** ****** ****** ****** ****** ******
      ****** ****** ****** ****** ****** ****** ****** ****** ****** ******
  11  ****** ****** ****** ****** ****** ****** ****** ****** ****** ******
      ****** ****** ****** ****** ****** ****** ****** ****** ****** ******
      ****** ****** ****** ****** ****** ****** ****** ****** ****** ******
  12  ****** ****** ****** ****** ****** ****** ****** ****** ****** ******
      ****** ****** ****** ****** ****** ****** ****** ****** ****** ******
      ****** ****** ****** ****** ****** ****** ****** ****** ****** ******
  13  ****** ****** ****** ****** ****** ****** ****** ****** ****** ******
      ****** ****** ****** ****** ****** ****** ****** ****** ****** ******
      ****** ****** ****** ****** ****** ****** ****** ****** ****** ******
  14  ****** ****** ****** ****** ****** ****** ****** ****** ****** ******
      ****** ****** ****** ****** ****** ****** ****** ****** ****** ******
      ****** ****** ****** ****** ****** ****** ****** ****** ****** ******
  15  ****** ****** ****** ****** ****** ****** ****** ****** ****** ******
      ****** ****** ****** ****** ****** ****** ****** ****** ****** ******
      ****** ****** ****** ****** ****** ****** ****** ****** ****** ******
  16  ****** ****** ****** ****** ****** ****** ****** ****** ****** ******
      ****** ****** ****** ****** ****** ****** ****** ****** ****** ******
      ****** ****** ****** ****** ****** ****** ****** ****** ****** ******
  17  ****** ****** ****** ****** ****** ****** ****** ****** ****** ******
      ****** ****** ****** ****** ****** ****** ****** ****** ****** ******
      ****** ****** ****** ****** ****** ****** ****** ****** ****** ******
  18  ****** ****** ****** ****** ****** ****** ****** ****** ****** ******
      ****** ****** ****** ****** ****** ****** ****** ****** ****** ******
      ****** ****** ****** ****** ****** ****** ****** ****** ****** ******
  19  ****** ****** ****** ****** ****** ****** ****** ****** ****** ******
      ****** ****** ****** ****** ****** ****** ****** ****** ****** ******
      ****** ****** ****** ****** ****** ****** ****** ****** ****** ******
  20  ****** ****** ****** ****** ****** ****** ****** ****** ****** ******
      ****** ****** ****** ****** ****** ****** ****** ****** ****** ******
      ****** ****** ****** ****** ****** ****** ****** ****** ****** ******
  21  ****** ****** ****** ****** ****** ****** ****** ****** ****** ******
      ****** ****** ****** ****** ****** ****** ****** ****** ****** ******
      ****** ****** ****** ****** ****** ****** ****** ****** ****** ******
  22  ****** ****** ****** ****** ****** ****** ****** ****** ****** ******
      ****** ****** ****** ****** ****** ****** ****** ****** ****** ******
      ****** ****** ****** ****** ****** ****** ****** ****** ****** ******
  23  ****** ****** ****** ****** ****** ****** ****** ****** ****** ******
      ****** ****** ****** ****** ****** ****** ****** ****** ****** ******
      ****** ****** ****** ****** ****** ****** ****** ****** ****** ******
  24  ****** ****** ****** ****** ****** ****** ****** ****** ****** ******
      ****** ****** ****** ****** ****** ****** ****** ****** ****** ******
      ****** ****** ****** ****** ****** ****** ****** ****** ****** ******
  25  ****** ****** ****** ****** ****** ****** ****** ****** ****** ******
      ****** ****** ****** ****** ****** ****** ****** ****** ****** ******
      ****** ****** ****** ****** ****** ****** ****** ****** ****** ******

 HEAD WILL BE SAVED ON UNIT   51 AT END OF TIME STEP    1, STRESS PERIOD    2
1
  VOLUMETRIC BUDGET FOR ENTIRE MODEL AT END OF TIME STEP    1, STRESS PERIOD   2
  ------------------------------------------------------------------------------

     CUMULATIVE VOLUMES      L**3       RATES FOR THIS TIME STEP      L**3/T
     ------------------                 ------------------------

           IN:                                      IN:
           ---                                      ---
             STORAGE =    21226916.6313               STORAGE =       36666.6257
       CONSTANT HEAD =    24930599.1791         CONSTANT HEAD =      146933.8621
               WELLS =           0.0000                 WELLS =           0.0000
            RECHARGE =     6292800.0000              RECHARGE =       55200.0000
      STREAM LEAKAGE =     1038399.4261        STREAM LEAKAGE =        6343.2576

            TOTAL IN =    53488715.2364              TOTAL IN =      245143.7455

          OUT:                                     OUT:
          ----                                     ----
             STORAGE =           0.0000               STORAGE =           0.0000
       CONSTANT HEAD =           0.0000         CONSTANT HEAD =           0.0000
               WELLS =    15885478.3372                 WELLS =       86805.8926
            RECHARGE =           0.0000              RECHARGE =           0.0000
      STREAM LEAKAGE =    37603237.4968        STREAM LEAKAGE =      158337.8579

           TOTAL OUT =    53488715.8340             TOTAL OUT =      245143.7505

            IN - OUT =          -0.5976              IN - OUT =      -5.0277E-03

 PERCENT DISCREPANCY =          -0.00     PERCENT DISCREPANCY =          -0.00






         TIME SUMMARY AT END OF TIME STEP    1 IN STRESS PERIOD    2
                    SECONDS     MINUTES      HOURS       DAYS        YEARS
                    -----------------------------------------------------------
   TIME STEP LENGTH 7.86240E+06 1.31040E+05  2184.0      91.000     0.24914    
 STRESS PERIOD TIME 7.86240E+06 1.31040E+05  2184.0      91.000     0.24914    
         TOTAL TIME 1.58112E+07 2.63520E+05  4392.0      183.00     0.50103    
1
1
                            STRESS PERIOD NO.    3, LENGTH =   91.00000    
                            -----------------------------------------------

                              NUMBER OF TIME STEPS =     1

                               MULTIPLIER FOR DELT =     1.500

                            INITIAL TIME STEP SIZE =   91.00000    

 WELL NO.  LAYER   ROW   COL   STRESS RATE         
 --------------------------------------------------
      1      1      5     14     -0.2595E+05
      2      1      4     17     -0.2695E+05
      3      1      3     26     -0.3390E+05

      3 WELLS

                 RECHARGE =   0.00000    

 REUSING STREAM SEGMENT DATA FROM LAST STRESS PERIOD
 
 SOLVING FOR HEAD 


     7 CALLS TO PCG ROUTINE FOR TIME STEP   1 IN STRESS PERIOD    3
    27 TOTAL ITERATIONS

 OUTPUT CONTROL FOR STRESS PERIOD    3   TIME STEP    1
    SAVE BUDGET
    SAVE HEAD FOR ALL LAYERS
    PRINT HEAD FOR ALL LAYERS
 UBDSV2 SAVING "STREAMFLOW OUT  " ON UNIT  50 AT TIME STEP  1, STRESS PERIOD   3



 STREAM LISTING     PERIOD      3   STEP        1

 LAYER ROW COL. STREAM  RCH.  FLOW INTO     FLOW TO   FLOW OUT OF   OVRLND.     DIRECT     STREAM       STREAM     STREAM     STREAM   STREAMBED  STREAMBED
                SEG.NO.  NO.  STRM. RCH.    AQUIFER    STRM. RCH.    RUNOFF     PRECIP       ET          HEAD       DEPTH      WIDTH   CONDCTNC.   GRADIENT

   1   13    1     1     1    1.0000E+05 -2.7585E+03   1.0276E+05  0.000E+00  0.000E+00  0.000E+00  4.84072E+01  1.458E-01  2.000E+01  2.000E+04 -1.379E-01
   1   13    2     1     2    1.0276E+05 -4.6156E+03   1.0737E+05  0.000E+00  0.000E+00  0.000E+00  4.79331E+01  1.490E-01  2.000E+01  2.000E+04 -2.308E-01
   1   14    3     1     3    1.0737E+05 -3.6726E+03   1.1105E+05  0.000E+00  0.000E+00  0.000E+00  4.74593E+01  1.525E-01  2.000E+01  2.000E+04 -1.836E-01
   1   15    4     1     4    1.1105E+05 -3.5932E+03   1.1464E+05  0.000E+00  0.000E+00  0.000E+00  4.69851E+01  1.555E-01  2.000E+01  2.000E+04 -1.797E-01
   1   16    5     1     5    1.1464E+05 -4.0111E+03   1.1865E+05  0.000E+00  0.000E+00  0.000E+00  4.65109E+01  1.587E-01  2.000E+01  2.000E+04 -2.006E-01
   1   16    6     1     6    1.1865E+05 -3.1177E+03   1.2177E+05  0.000E+00  0.000E+00  0.000E+00  4.60365E+01  1.615E-01  2.000E+01  2.000E+04 -1.559E-01
   1   16    7     1     7    1.2177E+05 -3.1583E+03   1.2493E+05  0.000E+00  0.000E+00  0.000E+00  4.55618E+01  1.641E-01  2.000E+01  2.000E+04 -1.579E-01
   1   16    8     1     8    1.2493E+05 -3.1750E+03   1.2810E+05  0.000E+00  0.000E+00  0.000E+00  4.50870E+01  1.666E-01  2.000E+01  2.000E+04 -1.588E-01
   1   16    9     1     9    1.2810E+05 -3.1570E+03   1.3126E+05  0.000E+00  0.000E+00  0.000E+00  4.46122E+01  1.691E-01  2.000E+01  2.000E+04 -1.579E-01
   1   16   10     1    10    1.3126E+05 -3.1148E+03   1.3437E+05  0.000E+00  0.000E+00  0.000E+00  4.41374E+01  1.715E-01  2.000E+01  2.000E+04 -1.557E-01
   1   16   11     1    11    1.3437E+05 -3.0894E+03   1.3746E+05  0.000E+00  0.000E+00  0.000E+00  4.36625E+01  1.739E-01  2.000E+01  2.000E+04 -1.545E-01
   1   16   12     1    12    1.3746E+05 -4.2464E+03   1.4171E+05  0.000E+00  0.000E+00  0.000E+00  4.31881E+01  1.767E-01  2.000E+01  2.000E+04 -2.123E-01
   1   15   13     1    13    1.4171E+05 -3.6457E+03   1.4536E+05  0.000E+00  0.000E+00  0.000E+00  4.27138E+01  1.797E-01  2.000E+01  2.000E+04 -1.823E-01
   1   14   14     1    14    1.4536E+05 -3.4195E+03   1.4877E+05  0.000E+00  0.000E+00  0.000E+00  4.22391E+01  1.823E-01  2.000E+01  2.000E+04 -1.710E-01
   1   13   15     1    15    1.4877E+05 -3.2625E+03   1.5204E+05  0.000E+00  0.000E+00  0.000E+00  4.17643E+01  1.848E-01  2.000E+01  2.000E+04 -1.631E-01
   1   12   16     1    16    1.5204E+05 -3.4635E+03   1.5550E+05  0.000E+00  0.000E+00  0.000E+00  4.12895E+01  1.873E-01  2.000E+01  2.000E+04 -1.732E-01
   1   12   17     1    17    1.5550E+05 -2.3649E+03   1.5787E+05  0.000E+00  0.000E+00  0.000E+00  4.08144E+01  1.894E-01  2.000E+01  2.000E+04 -1.182E-01
   1   12   18     1    18    1.5787E+05 -2.3420E+03   1.6021E+05  0.000E+00  0.000E+00  0.000E+00  4.03388E+01  1.911E-01  2.000E+01  2.000E+04 -1.171E-01
   1   12   19     1    19    1.6021E+05 -3.0790E+03   1.6329E+05  0.000E+00  0.000E+00  0.000E+00  3.98635E+01  1.930E-01  2.000E+01  2.000E+04 -1.539E-01
   1   13   20     1    20    1.6329E+05 -2.4914E+03   1.6578E+05  0.000E+00  0.000E+00  0.000E+00  3.93882E+01  1.950E-01  2.000E+01  2.000E+04 -1.246E-01
   1   14   21     1    21    1.6578E+05 -2.2486E+03   1.6803E+05  0.000E+00  0.000E+00  0.000E+00  3.89126E+01  1.967E-01  2.000E+01  2.000E+04 -1.124E-01
   1   14   22     1    22    1.6803E+05  5.1433E+03   1.6288E+05  0.000E+00  0.000E+00  0.000E+00  3.84343E+01  1.957E-01  2.000E+01  2.000E+04  2.572E-01
   1    9   30     2     1    5.0000E+04 -1.7833E+03   5.1783E+04  0.000E+00  0.000E+00  0.000E+00  4.02421E+01  1.171E-01  2.000E+01  2.000E+04 -8.916E-02
   1    9   29     2     2    5.1783E+04 -2.0446E+03   5.3828E+04  0.000E+00  0.000E+00  0.000E+00  3.99947E+01  1.197E-01  2.000E+01  2.000E+04 -1.022E-01
   1    9   28     2     3    5.3828E+04 -2.2704E+03   5.6098E+04  0.000E+00  0.000E+00  0.000E+00  3.97476E+01  1.226E-01  2.000E+01  2.000E+04 -1.135E-01
   1    9   27     2     4    5.6098E+04 -4.1136E+03   6.0212E+04  0.000E+00  0.000E+00  0.000E+00  3.95019E+01  1.269E-01  2.000E+01  2.000E+04 -2.057E-01
   1   10   26     2     5    6.0212E+04 -2.4529E+03   6.2665E+04  0.000E+00  0.000E+00  0.000E+00  3.92561E+01  1.311E-01  2.000E+01  2.000E+04 -1.226E-01
   1   11   25     2     6    6.2665E+04 -1.7252E+03   6.4390E+04  0.000E+00  0.000E+00  0.000E+00  3.90088E+01  1.338E-01  2.000E+01  2.000E+04 -8.626E-02
   1   12   24     2     7    6.4390E+04 -1.1248E+03   6.5515E+04  0.000E+00  0.000E+00  0.000E+00  3.87606E+01  1.356E-01  2.000E+01  2.000E+04 -5.624E-02
   1   13   23     2     8    6.5515E+04 -5.8362E+02   6.6098E+04  0.000E+00  0.000E+00  0.000E+00  3.85116E+01  1.366E-01  2.000E+01  2.000E+04 -2.918E-02
   1   14   22     2     9    6.6098E+04  1.6760E+03   6.4422E+04  0.000E+00  0.000E+00  0.000E+00  3.82609E+01  1.359E-01  2.000E+01  2.000E+04  8.380E-02
   1   14   22     3     1    2.2731E+05 -8.4590E+03   2.3576E+05  0.000E+00  0.000E+00  0.000E+00  3.77542E+01  1.986E-01  2.000E+01  2.000E+04 -4.229E-01
   1   15   23     3     2    2.3576E+05 -3.1089E+03   2.3887E+05  0.000E+00  0.000E+00  0.000E+00  3.68683E+01  2.016E-01  2.000E+01  2.000E+04 -1.554E-01
   1   15   24     3     3    2.3887E+05 -2.0882E+03   2.4096E+05  0.000E+00  0.000E+00  0.000E+00  3.59807E+01  2.029E-01  2.000E+01  2.000E+04 -1.044E-01
   1   15   25     3     4    2.4096E+05 -1.9371E+03   2.4290E+05  0.000E+00  0.000E+00  0.000E+00  3.50928E+01  2.039E-01  2.000E+01  2.000E+04 -9.685E-02
   1   15   26     3     5    2.4290E+05 -2.2518E+03   2.4515E+05  0.000E+00  0.000E+00  0.000E+00  3.42050E+01  2.050E-01  2.000E+01  2.000E+04 -1.126E-01
   1   16   27     3     6    2.4515E+05 -3.2346E+03   2.4839E+05  0.000E+00  0.000E+00  0.000E+00  3.33175E+01  2.064E-01  2.000E+01  2.000E+04 -1.617E-01
   1   17   28     3     7    2.4839E+05 -4.0637E+03   2.5245E+05  0.000E+00  0.000E+00  0.000E+00  3.24304E+01  2.082E-01  2.000E+01  2.000E+04 -2.032E-01
   1   18   29     3     8    2.5245E+05 -5.7564E+03   2.5821E+05  0.000E+00  0.000E+00  0.000E+00  3.15440E+01  2.106E-01  2.000E+01  2.000E+04 -2.878E-01
   1   18   30     3     9    2.5821E+05 -4.7700E+03   2.6298E+05  0.000E+00  0.000E+00  0.000E+00  3.06577E+01  2.132E-01  2.000E+01  2.000E+04 -2.385E-01



1
              HEAD IN LAYER   1 AT END OF TIME STEP   1 IN STRESS PERIOD    3
  ---------------------------------------------------------------------------

          1      2      3      4      5      6      7      8      9     10
         11     12     13     14     15     16     17     18     19     20
         21     22     23     24     25     26     27     28     29     30
 .........................................................................
   1  ****** ****** ****** ****** ****** ****** ****** ****** ****** ******
      ****** ****** ****** ****** ****** ****** ****** ****** ****** ******
      ****** ****** ****** ****** ****** ****** ****** ****** ****** ******
   2  ****** ****** ****** ****** ****** ****** ****** ****** ****** ******
      ****** ****** ****** ****** ****** ****** ****** ****** ****** ******
      ****** ****** ****** ****** ****** ****** ****** ****** ****** ******
   3  ****** ****** ****** ****** ****** ****** ****** ****** ****** ******
      ****** ****** ****** ****** ****** ****** ****** ****** ****** ******
      ****** ****** ****** ****** ****** ****** ****** ****** ****** ******
   4  ****** ****** ****** ****** ****** ****** ****** ****** ****** ******
      ****** ****** ****** ****** ****** ****** ****** ****** ****** ******
      ****** ****** ****** ****** ****** ****** ****** ****** ****** ******
   5  ****** ****** ****** ****** ****** ****** ****** ****** ****** ******
      ****** ****** ****** ****** ****** ****** ****** ****** ****** ******
      ****** ****** ****** ****** ****** ****** ****** ****** ****** ******
   6  ****** ****** ****** ****** ****** ****** ****** ****** ****** ******
      ****** ****** ****** ****** ****** ****** ****** ****** ****** ******
      ****** ****** ****** ****** ****** ****** ****** ****** ****** ******
   7  ****** ****** ****** ****** ****** ****** ****** ****** ****** ******
      ****** ****** ****** ****** ****** ****** ****** ****** ****** ******
      ****** ****** ****** ****** ****** ****** ****** ****** ****** ******
   8  ****** ****** ****** ****** ****** ****** ****** ****** ****** ******
      ****** ****** ****** ****** ****** ****** ****** ****** ****** ******
      ****** ****** ****** ****** ****** ****** ****** ****** ****** ******
   9  ****** ****** ****** ****** ****** ****** ****** ****** ****** ******
      ****** ****** ****** ****** ****** ****** ****** ****** ****** ******
      ****** ****** ****** ****** ****** ****** ****** ****** ****** ******
  10  ****** ****** ****** ****** ****** ****** ****** ****** ****** ******
      ****** ****** ****** ****** ****** ****** ****** ****** ****** ******
      ****** ****** ****** ****** ****** ****** ****** ****** ****** ******
  11  ****** ****** ****** ****** ****** ****** ****** ****** ****** ******
      ****** ****** ****** ****** ****** ****** ****** ****** ****** ******
      ****** ****** ****** ****** ****** ****** ****** ****** ****** ******
  12  ****** ****** ****** ****** ****** ****** ****** ****** ****** ******
      ****** ****** ****** ****** ****** ****** ****** ****** ****** ******
      ****** ****** ****** ****** ****** ****** ****** ****** ****** ******
  13  ****** ****** ****** ****** ****** ****** ****** ****** ****** ******
      ****** ****** ****** ****** ****** ****** ****** ****** ****** ******
      ****** ****** ****** ****** ****** ****** ****** ****** ****** ******
  14  ****** ****** ****** ****** ****** ****** ****** ****** ****** ******
      ****** ****** ****** ****** ****** ****** ****** ****** ****** ******
      ****** ****** ****** ****** ****** ****** ****** ****** ****** ******
  15  ****** ****** ****** ****** ****** ****** ****** ****** ****** ******
      ****** ****** ****** ****** ****** ****** ****** ****** ****** ******
      ****** ****** ****** ****** ****** ****** ****** ****** ****** ******
  16  ****** ****** ****** ****** ****** ****** ****** ****** ****** ******
      ****** ****** ****** ****** ****** ****** ****** ****** ****** ******
      ****** ****** ****** ****** ****** ****** ****** ****** ****** ******
  17  ****** ****** ****** ****** ****** ****** ****** ****** ****** ******
      ****** ****** ****** ****** ****** ****** ****** ****** ****** ******
      ****** ****** ****** ****** ****** ****** ****** ****** ****** ******
  18  ****** ****** ****** ****** ****** ****** ****** ****** ****** ******
      ****** ****** ****** ****** ****** ****** ****** ****** ****** ******
      ****** ****** ****** ****** ****** ****** ****** ****** ****** ******
  19  ****** ****** ****** ****** ****** ****** ****** ****** ****** ******
      ****** ****** ****** ****** ****** ****** ****** ****** ****** ******
      ****** ****** ****** ****** ****** ****** ****** ****** ****** ******
  20  ****** ****** ****** ****** ****** ****** ****** ****** ****** ******
      ****** ****** ****** ****** ****** ****** ****** ****** ****** ******
      ****** ****** ****** ****** ****** ****** ****** ****** ****** ******
  21  ****** ****** ****** ****** ****** ****** ****** ****** ****** ******
      ****** ****** ****** ****** ****** ****** ****** ****** ****** ******
      ****** ****** ****** ****** ****** ****** ****** ****** ****** ******
  22  ****** ****** ****** ****** ****** ****** ****** ****** ****** ******
      ****** ****** ****** ****** ****** ****** ****** ****** ****** ******
      ****** ****** ****** ****** ****** ****** ****** ****** ****** ******
  23  ****** ****** ****** ****** ****** ****** ****** ****** ****** ******
      ****** ****** ****** ****** ****** ****** ****** ****** ****** ******
      ****** ****** ****** ****** ****** ****** ****** ****** ****** ******
  24  ****** ****** ****** ****** ****** ****** ****** ****** ****** ******
      ****** ****** ****** ****** ****** ****** ****** ****** ****** ******
      ****** ****** ****** ****** ****** ****** ****** ****** ****** ******
  25  ****** ****** ****** ****** ****** ****** ****** ****** ****** ******
      ****** ****** ****** ****** ****** ****** ****** ****** ****** ******
      ****** ****** ****** ****** ****** ****** ****** ****** ****** ******

 HEAD WILL BE SAVED ON UNIT   51 AT END OF TIME STEP    1, STRESS PERIOD    3
1
  VOLUMETRIC BUDGET FOR ENTIRE MODEL AT END OF TIME STEP    1, STRESS PERIOD   3
  ------------------------------------------------------------------------------

     CUMULATIVE VOLUMES      L**3       RATES FOR THIS TIME STEP      L**3/T
     ------------------                 ------------------------

           IN:                                      IN:
           ---                                      ---
             STORAGE =    23767141.9098               STORAGE =       27914.5635
       CONSTANT HEAD =    40570462.1280         CONSTANT HEAD =      171866.6258
               WELLS =           0.0000                 WELLS =           0.0000
            RECHARGE =     6292800.0000              RECHARGE =           0.0000
      STREAM LEAKAGE =     1658951.6094        STREAM LEAKAGE =        6819.2548

            TOTAL IN =    72289355.6471              TOTAL IN =      206600.4441

          OUT:                                     OUT:
          ----                                     ----
             STORAGE =           0.0000               STORAGE =           0.0000
       CONSTANT HEAD =           0.0000         CONSTANT HEAD =           0.0000
               WELLS =    23784814.5595                 WELLS =       86805.8926
            RECHARGE =           0.0000              RECHARGE =           0.0000
      STREAM LEAKAGE =    48504541.9282        STREAM LEAKAGE =      119794.5542

           TOTAL OUT =    72289356.4877             TOTAL OUT =      206600.4467

            IN - OUT =          -0.8406              IN - OUT =      -2.6704E-03

 PERCENT DISCREPANCY =          -0.00     PERCENT DISCREPANCY =          -0.00






         TIME SUMMARY AT END OF TIME STEP    1 IN STRESS PERIOD    3
                    SECONDS     MINUTES      HOURS       DAYS        YEARS
                    -----------------------------------------------------------
   TIME STEP LENGTH 7.86240E+06 1.31040E+05  2184.0      91.000     0.24914    
 STRESS PERIOD TIME 7.86240E+06 1.31040E+05  2184.0      91.000     0.24914    
         TOTAL TIME 2.36736E+07 3.94560E+05  6576.0      274.00     0.75017    
1
1
                            STRESS PERIOD NO.    4, LENGTH =   91.00000    
                            -----------------------------------------------

                              NUMBER OF TIME STEPS =     1

                               MULTIPLIER FOR DELT =     1.500

                            INITIAL TIME STEP SIZE =   91.00000    

 WELL NO.  LAYER   ROW   COL   STRESS RATE         
 --------------------------------------------------
      1      1      5     14     -0.2595E+05
      2      1      4     17     -0.2695E+05
      3      1      3     26     -0.3390E+05

      3 WELLS

                 RECHARGE =  1.000000E-03

 REUSING STREAM SEGMENT DATA FROM LAST STRESS PERIOD
 
 SOLVING FOR HEAD 


     5 CALLS TO PCG ROUTINE FOR TIME STEP   1 IN STRESS PERIOD    4
    18 TOTAL ITERATIONS

 OUTPUT CONTROL FOR STRESS PERIOD    4   TIME STEP    1
    SAVE BUDGET
    SAVE HEAD FOR ALL LAYERS
    PRINT HEAD FOR ALL LAYERS
 UBDSV2 SAVING "STREAMFLOW OUT  " ON UNIT  50 AT TIME STEP  1, STRESS PERIOD   4



 STREAM LISTING     PERIOD      4   STEP        1

 LAYER ROW COL. STREAM  RCH.  FLOW INTO     FLOW TO   FLOW OUT OF   OVRLND.     DIRECT     STREAM       STREAM     STREAM     STREAM   STREAMBED  STREAMBED
                SEG.NO.  NO.  STRM. RCH.    AQUIFER    STRM. RCH.    RUNOFF     PRECIP       ET          HEAD       DEPTH      WIDTH   CONDCTNC.   GRADIENT

   1   13    1     1     1    1.0000E+05 -2.7531E+03   1.0275E+05  0.000E+00  0.000E+00  0.000E+00  4.84072E+01  1.458E-01  2.000E+01  2.000E+04 -1.377E-01
   1   13    2     1     2    1.0275E+05 -4.5581E+03   1.0731E+05  0.000E+00  0.000E+00  0.000E+00  4.79331E+01  1.490E-01  2.000E+01  2.000E+04 -2.279E-01
   1   14    3     1     3    1.0731E+05 -3.6865E+03   1.1100E+05  0.000E+00  0.000E+00  0.000E+00  4.74593E+01  1.525E-01  2.000E+01  2.000E+04 -1.843E-01
   1   15    4     1     4    1.1100E+05 -3.6338E+03   1.1463E+05  0.000E+00  0.000E+00  0.000E+00  4.69851E+01  1.555E-01  2.000E+01  2.000E+04 -1.817E-01
   1   16    5     1     5    1.1463E+05 -4.0775E+03   1.1871E+05  0.000E+00  0.000E+00  0.000E+00  4.65109E+01  1.587E-01  2.000E+01  2.000E+04 -2.039E-01
   1   16    6     1     6    1.1871E+05 -3.1572E+03   1.2187E+05  0.000E+00  0.000E+00  0.000E+00  4.60366E+01  1.616E-01  2.000E+01  2.000E+04 -1.579E-01
   1   16    7     1     7    1.2187E+05 -3.1902E+03   1.2506E+05  0.000E+00  0.000E+00  0.000E+00  4.55619E+01  1.642E-01  2.000E+01  2.000E+04 -1.595E-01
   1   16    8     1     8    1.2506E+05 -3.2025E+03   1.2826E+05  0.000E+00  0.000E+00  0.000E+00  4.50871E+01  1.667E-01  2.000E+01  2.000E+04 -1.601E-01
   1   16    9     1     9    1.2826E+05 -3.1830E+03   1.3144E+05  0.000E+00  0.000E+00  0.000E+00  4.46124E+01  1.692E-01  2.000E+01  2.000E+04 -1.591E-01
   1   16   10     1    10    1.3144E+05 -3.1422E+03   1.3458E+05  0.000E+00  0.000E+00  0.000E+00  4.41376E+01  1.717E-01  2.000E+01  2.000E+04 -1.571E-01
   1   16   11     1    11    1.3458E+05 -3.1213E+03   1.3771E+05  0.000E+00  0.000E+00  0.000E+00  4.36627E+01  1.741E-01  2.000E+01  2.000E+04 -1.561E-01
   1   16   12     1    12    1.3771E+05 -4.2945E+03   1.4200E+05  0.000E+00  0.000E+00  0.000E+00  4.31883E+01  1.769E-01  2.000E+01  2.000E+04 -2.147E-01
   1   15   13     1    13    1.4200E+05 -3.6640E+03   1.4566E+05  0.000E+00  0.000E+00  0.000E+00  4.27140E+01  1.799E-01  2.000E+01  2.000E+04 -1.832E-01
   1   14   14     1    14    1.4566E+05 -3.4140E+03   1.4908E+05  0.000E+00  0.000E+00  0.000E+00  4.22394E+01  1.825E-01  2.000E+01  2.000E+04 -1.707E-01
   1   13   15     1    15    1.4908E+05 -3.2339E+03   1.5231E+05  0.000E+00  0.000E+00  0.000E+00  4.17646E+01  1.850E-01  2.000E+01  2.000E+04 -1.617E-01
   1   12   16     1    16    1.5231E+05 -3.3681E+03   1.5568E+05  0.000E+00  0.000E+00  0.000E+00  4.12897E+01  1.874E-01  2.000E+01  2.000E+04 -1.684E-01
   1   12   17     1    17    1.5568E+05 -2.3445E+03   1.5802E+05  0.000E+00  0.000E+00  0.000E+00  4.08145E+01  1.895E-01  2.000E+01  2.000E+04 -1.172E-01
   1   12   18     1    18    1.5802E+05 -2.3345E+03   1.6036E+05  0.000E+00  0.000E+00  0.000E+00  4.03389E+01  1.912E-01  2.000E+01  2.000E+04 -1.167E-01
   1   12   19     1    19    1.6036E+05 -3.0668E+03   1.6343E+05  0.000E+00  0.000E+00  0.000E+00  3.98636E+01  1.931E-01  2.000E+01  2.000E+04 -1.533E-01
   1   13   20     1    20    1.6343E+05 -2.5552E+03   1.6598E+05  0.000E+00  0.000E+00  0.000E+00  3.93883E+01  1.951E-01  2.000E+01  2.000E+04 -1.278E-01
   1   14   21     1    21    1.6598E+05 -2.3174E+03   1.6830E+05  0.000E+00  0.000E+00  0.000E+00  3.89128E+01  1.969E-01  2.000E+01  2.000E+04 -1.159E-01
   1   14   22     1    22    1.6830E+05  5.1111E+03   1.6319E+05  0.000E+00  0.000E+00  0.000E+00  3.84345E+01  1.959E-01  2.000E+01  2.000E+04  2.556E-01
   1    9   30     2     1    5.0000E+04 -1.8714E+03   5.1871E+04  0.000E+00  0.000E+00  0.000E+00  4.02422E+01  1.172E-01  2.000E+01  2.000E+04 -9.357E-02
   1    9   29     2     2    5.1871E+04 -2.1294E+03   5.4001E+04  0.000E+00  0.000E+00  0.000E+00  3.99949E+01  1.199E-01  2.000E+01  2.000E+04 -1.065E-01
   1    9   28     2     3    5.4001E+04 -2.3469E+03   5.6348E+04  0.000E+00  0.000E+00  0.000E+00  3.97479E+01  1.229E-01  2.000E+01  2.000E+04 -1.173E-01
   1    9   27     2     4    5.6348E+04 -4.1628E+03   6.0510E+04  0.000E+00  0.000E+00  0.000E+00  3.95022E+01  1.272E-01  2.000E+01  2.000E+04 -2.081E-01
   1   10   26     2     5    6.0510E+04 -2.5308E+03   6.3041E+04  0.000E+00  0.000E+00  0.000E+00  3.92565E+01  1.315E-01  2.000E+01  2.000E+04 -1.265E-01
   1   11   25     2     6    6.3041E+04 -1.8083E+03   6.4850E+04  0.000E+00  0.000E+00  0.000E+00  3.90093E+01  1.343E-01  2.000E+01  2.000E+04 -9.041E-02
   1   12   24     2     7    6.4850E+04 -1.2121E+03   6.6062E+04  0.000E+00  0.000E+00  0.000E+00  3.87612E+01  1.362E-01  2.000E+01  2.000E+04 -6.061E-02
   1   13   23     2     8    6.6062E+04 -6.7077E+02   6.6732E+04  0.000E+00  0.000E+00  0.000E+00  3.85124E+01  1.374E-01  2.000E+01  2.000E+04 -3.354E-02
   1   14   22     2     9    6.6732E+04  1.6558E+03   6.5077E+04  0.000E+00  0.000E+00  0.000E+00  3.82617E+01  1.367E-01  2.000E+01  2.000E+04  8.279E-02
   1   14   22     3     1    2.2826E+05 -8.4853E+03   2.3675E+05  0.000E+00  0.000E+00  0.000E+00  3.77547E+01  1.991E-01  2.000E+01  2.000E+04 -4.243E-01
   1   15   23     3     2    2.3675E+05 -3.1882E+03   2.3994E+05  0.000E+00  0.000E+00  0.000E+00  3.68688E+01  2.021E-01  2.000E+01  2.000E+04 -1.594E-01
   1   15   24     3     3    2.3994E+05 -2.1736E+03   2.4211E+05  0.000E+00  0.000E+00  0.000E+00  3.59813E+01  2.035E-01  2.000E+01  2.000E+04 -1.087E-01
   1   15   25     3     4    2.4211E+05 -2.0340E+03   2.4415E+05  0.000E+00  0.000E+00  0.000E+00  3.50934E+01  2.046E-01  2.000E+01  2.000E+04 -1.017E-01
   1   15   26     3     5    2.4415E+05 -2.3815E+03   2.4653E+05  0.000E+00  0.000E+00  0.000E+00  3.42057E+01  2.057E-01  2.000E+01  2.000E+04 -1.191E-01
   1   16   27     3     6    2.4653E+05 -3.3753E+03   2.4990E+05  0.000E+00  0.000E+00  0.000E+00  3.33182E+01  2.071E-01  2.000E+01  2.000E+04 -1.688E-01
   1   17   28     3     7    2.4990E+05 -4.2050E+03   2.5411E+05  0.000E+00  0.000E+00  0.000E+00  3.24312E+01  2.090E-01  2.000E+01  2.000E+04 -2.103E-01
   1   18   29     3     8    2.5411E+05 -5.8832E+03   2.5999E+05  0.000E+00  0.000E+00  0.000E+00  3.15448E+01  2.115E-01  2.000E+01  2.000E+04 -2.942E-01
   1   18   30     3     9    2.5999E+05 -4.8813E+03   2.6487E+05  0.000E+00  0.000E+00  0.000E+00  3.06586E+01  2.141E-01  2.000E+01  2.000E+04 -2.441E-01



1
              HEAD IN LAYER   1 AT END OF TIME STEP   1 IN STRESS PERIOD    4
  ---------------------------------------------------------------------------

          1      2      3      4      5      6      7      8      9     10
         11     12     13     14     15     16     17     18     19     20
         21     22     23     24     25     26     27     28     29     30
 .........................................................................
   1  ****** ****** ****** ****** ****** ****** ****** ****** ****** ******
      ****** ****** ****** ****** ****** ****** ****** ****** ****** ******
      ****** ****** ****** ****** ****** ****** ****** ****** ****** ******
   2  ****** ****** ****** ****** ****** ****** ****** ****** ****** ******
      ****** ****** ****** ****** ****** ****** ****** ****** ****** ******
      ****** ****** ****** ****** ****** ****** ****** ****** ****** ******
   3  ****** ****** ****** ****** ****** ****** ****** ****** ****** ******
      ****** ****** ****** ****** ****** ****** ****** ****** ****** ******
      ****** ****** ****** ****** ****** ****** ****** ****** ****** ******
   4  ****** ****** ****** ****** ****** ****** ****** ****** ****** ******
      ****** ****** ****** ****** ****** ****** ****** ****** ****** ******
      ****** ****** ****** ****** ****** ****** ****** ****** ****** ******
   5  ****** ****** ****** ****** ****** ****** ****** ****** ****** ******
      ****** ****** ****** ****** ****** ****** ****** ****** ****** ******
      ****** ****** ****** ****** ****** ****** ****** ****** ****** ******
   6  ****** ****** ****** ****** ****** ****** ****** ****** ****** ******
      ****** ****** ****** ****** ****** ****** ****** ****** ****** ******
      ****** ****** ****** ****** ****** ****** ****** ****** ****** ******
   7  ****** ****** ****** ****** ****** ****** ****** ****** ****** ******
      ****** ****** ****** ****** ****** ****** ****** ****** ****** ******
      ****** ****** ****** ****** ****** ****** ****** ****** ****** ******
   8  ****** ****** ****** ****** ****** ****** ****** ****** ****** ******
      ****** ****** ****** ****** ****** ****** ****** ****** ****** ******
      ****** ****** ****** ****** ****** ****** ****** ****** ****** ******
   9  ****** ****** ****** ****** ****** ****** ****** ****** ****** ******
      ****** ****** ****** ****** ****** ****** ****** ****** ****** ******
      ****** ****** ****** ****** ****** ****** ****** ****** ****** ******
  10  ****** ****** ****** ****** ****** ****** ****** ****** ****** ******
      ****** ****** ****** ****** ****** ****** ****** ****** ****** ******
      ****** ****** ****** ****** ****** ****** ****** ****** ****** ******
  11  ****** ****** ****** ****** ****** ****** ****** ****** ****** ******
      ****** ****** ****** ****** ****** ****** ****** ****** ****** ******
      ****** ****** ****** ****** ****** ****** ****** ****** ****** ******
  12  ****** ****** ****** ****** ****** ****** ****** ****** ****** ******
      ****** ****** ****** ****** ****** ****** ****** ****** ****** ******
      ****** ****** ****** ****** ****** ****** ****** ****** ****** ******
  13  ****** ****** ****** ****** ****** ****** ****** ****** ****** ******
      ****** ****** ****** ****** ****** ****** ****** ****** ****** ******
      ****** ****** ****** ****** ****** ****** ****** ****** ****** ******
  14  ****** ****** ****** ****** ****** ****** ****** ****** ****** ******
      ****** ****** ****** ****** ****** ****** ****** ****** ****** ******
      ****** ****** ****** ****** ****** ****** ****** ****** ****** ******
  15  ****** ****** ****** ****** ****** ****** ****** ****** ****** ******
      ****** ****** ****** ****** ****** ****** ****** ****** ****** ******
      ****** ****** ****** ****** ****** ****** ****** ****** ****** ******
  16  ****** ****** ****** ****** ****** ****** ****** ****** ****** ******
      ****** ****** ****** ****** ****** ****** ****** ****** ****** ******
      ****** ****** ****** ****** ****** ****** ****** ****** ****** ******
  17  ****** ****** ****** ****** ****** ****** ****** ****** ****** ******
      ****** ****** ****** ****** ****** ****** ****** ****** ****** ******
      ****** ****** ****** ****** ****** ****** ****** ****** ****** ******
  18  ****** ****** ****** ****** ****** ****** ****** ****** ****** ******
      ****** ****** ****** ****** ****** ****** ****** ****** ****** ******
      ****** ****** ****** ****** ****** ****** ****** ****** ****** ******
  19  ****** ****** ****** ****** ****** ****** ****** ****** ****** ******
      ****** ****** ****** ****** ****** ****** ****** ****** ****** ******
      ****** ****** ****** ****** ****** ****** ****** ****** ****** ******
  20  ****** ****** ****** ****** ****** ****** ****** ****** ****** ******
      ****** ****** ****** ****** ****** ****** ****** ****** ****** ******
      ****** ****** ****** ****** ****** ****** ****** ****** ****** ******
  21  ****** ****** ****** ****** ****** ****** ****** ****** ****** ******
      ****** ****** ****** ****** ****** ****** ****** ****** ****** ******
      ****** ****** ****** ****** ****** ****** ****** ****** ****** ******
  22  ****** ****** ****** ****** ****** ****** ****** ****** ****** ******
      ****** ****** ****** ****** ****** ****** ****** ****** ****** ******
      ****** ****** ****** ****** ****** ****** ****** ****** ****** ******
  23  ****** ****** ****** ****** ****** ****** ****** ****** ****** ******
      ****** ****** ****** ****** ****** ****** ****** ****** ****** ******
      ****** ****** ****** ****** ****** ****** ****** ****** ****** ******
  24  ****** ****** ****** ****** ****** ****** ****** ****** ****** ******
      ****** ****** ****** ****** ****** ****** ****** ****** ****** ******
      ****** ****** ****** ****** ****** ****** ****** ****** ****** ******
  25  ****** ****** ****** ****** ****** ****** ****** ****** ****** ******
      ****** ****** ****** ****** ****** ****** ****** ****** ****** ******
      ****** ****** ****** ****** ****** ****** ****** ****** ****** ******

 HEAD WILL BE SAVED ON UNIT   51 AT END OF TIME STEP    1, STRESS PERIOD    4
1
  VOLUMETRIC BUDGET FOR ENTIRE MODEL AT END OF TIME STEP    1, STRESS PERIOD   4
  ------------------------------------------------------------------------------

     CUMULATIVE VOLUMES      L**3       RATES FOR THIS TIME STEP      L**3/T
     ------------------                 ------------------------

           IN:                                      IN:
           ---                                      ---
             STORAGE =    23990527.3663               STORAGE =        2454.7852
       CONSTANT HEAD =    56219525.8189         CONSTANT HEAD =      171967.7329
               WELLS =           0.0000                 WELLS =           0.0000
            RECHARGE =     8804400.0000              RECHARGE =       27600.0000
      STREAM LEAKAGE =     2274732.4581        STREAM LEAKAGE =        6766.8225

            TOTAL IN =    91289185.6433              TOTAL IN =      208789.3406

          OUT:                                     OUT:
          ----                                     ----
             STORAGE =       31420.9970               STORAGE =         345.2857
       CONSTANT HEAD =           0.0000         CONSTANT HEAD =           0.0000
               WELLS =    31684150.7818                 WELLS =       86805.8926
            RECHARGE =           0.0000              RECHARGE =           0.0000
      STREAM LEAKAGE =    59573614.6131        STREAM LEAKAGE =      121638.1614

           TOTAL OUT =    91289186.3920             TOTAL OUT =      208789.3396

            IN - OUT =          -0.7487              IN - OUT =       1.0098E-03

 PERCENT DISCREPANCY =          -0.00     PERCENT DISCREPANCY =           0.00






         TIME SUMMARY AT END OF TIME STEP    1 IN STRESS PERIOD    4
                    SECONDS     MINUTES      HOURS       DAYS        YEARS
                    -----------------------------------------------------------
   TIME STEP LENGTH 7.86240E+06 1.31040E+05  2184.0      91.000     0.24914    
 STRESS PERIOD TIME 7.86240E+06 1.31040E+05  2184.0      91.000     0.24914    
         TOTAL TIME 3.15360E+07 5.25600E+05  8760.0      365.00     0.99932    
1
1
                            STRESS PERIOD NO.    5, LENGTH =   92.00000    
                            -----------------------------------------------

                              NUMBER OF TIME STEPS =     1

                               MULTIPLIER FOR DELT =     1.500

                            INITIAL TIME STEP SIZE =   92.00000    

 WELL NO.  LAYER   ROW   COL   STRESS RATE         
 --------------------------------------------------
      1      1      5     14     -0.2595E+05
      2      1      4     17     -0.2695E+05
      3      1      3     26     -0.3390E+05

      3 WELLS

                 RECHARGE =  5.000000E-04

 REUSING STREAM SEGMENT DATA FROM LAST STRESS PERIOD
 
 SOLVING FOR HEAD 


     6 CALLS TO PCG ROUTINE FOR TIME STEP   1 IN STRESS PERIOD    5
    23 TOTAL ITERATIONS

 OUTPUT CONTROL FOR STRESS PERIOD    5   TIME STEP    1
    SAVE BUDGET
    SAVE HEAD FOR ALL LAYERS
    PRINT HEAD FOR ALL LAYERS
 UBDSV2 SAVING "STREAMFLOW OUT  " ON UNIT  50 AT TIME STEP  1, STRESS PERIOD   5



 STREAM LISTING     PERIOD      5   STEP        1

 LAYER ROW COL. STREAM  RCH.  FLOW INTO     FLOW TO   FLOW OUT OF   OVRLND.     DIRECT     STREAM       STREAM     STREAM     STREAM   STREAMBED  STREAMBED
                SEG.NO.  NO.  STRM. RCH.    AQUIFER    STRM. RCH.    RUNOFF     PRECIP       ET          HEAD       DEPTH      WIDTH   CONDCTNC.   GRADIENT

   1   13    1     1     1    1.0000E+05 -2.5643E+03   1.0256E+05  0.000E+00  0.000E+00  0.000E+00  4.84071E+01  1.458E-01  2.000E+01  2.000E+04 -1.282E-01
   1   13    2     1     2    1.0256E+05 -4.2911E+03   1.0686E+05  0.000E+00  0.000E+00  0.000E+00  4.79328E+01  1.487E-01  2.000E+01  2.000E+04 -2.146E-01
   1   14    3     1     3    1.0686E+05 -3.4448E+03   1.1030E+05  0.000E+00  0.000E+00  0.000E+00  4.74588E+01  1.520E-01  2.000E+01  2.000E+04 -1.722E-01
   1   15    4     1     4    1.1030E+05 -3.4080E+03   1.1371E+05  0.000E+00  0.000E+00  0.000E+00  4.69844E+01  1.548E-01  2.000E+01  2.000E+04 -1.704E-01
   1   16    5     1     5    1.1371E+05 -3.8877E+03   1.1760E+05  0.000E+00  0.000E+00  0.000E+00  4.65101E+01  1.578E-01  2.000E+01  2.000E+04 -1.944E-01
   1   16    6     1     6    1.1760E+05 -2.9971E+03   1.2059E+05  0.000E+00  0.000E+00  0.000E+00  4.60356E+01  1.606E-01  2.000E+01  2.000E+04 -1.499E-01
   1   16    7     1     7    1.2059E+05 -3.0240E+03   1.2362E+05  0.000E+00  0.000E+00  0.000E+00  4.55608E+01  1.631E-01  2.000E+01  2.000E+04 -1.512E-01
   1   16    8     1     8    1.2362E+05 -3.0332E+03   1.2665E+05  0.000E+00  0.000E+00  0.000E+00  4.50859E+01  1.655E-01  2.000E+01  2.000E+04 -1.517E-01
   1   16    9     1     9    1.2665E+05 -3.0134E+03   1.2966E+05  0.000E+00  0.000E+00  0.000E+00  4.46111E+01  1.679E-01  2.000E+01  2.000E+04 -1.507E-01
   1   16   10     1    10    1.2966E+05 -2.9751E+03   1.3264E+05  0.000E+00  0.000E+00  0.000E+00  4.41361E+01  1.702E-01  2.000E+01  2.000E+04 -1.488E-01
   1   16   11     1    11    1.3264E+05 -2.9592E+03   1.3560E+05  0.000E+00  0.000E+00  0.000E+00  4.36611E+01  1.725E-01  2.000E+01  2.000E+04 -1.480E-01
   1   16   12     1    12    1.3560E+05 -4.0963E+03   1.3969E+05  0.000E+00  0.000E+00  0.000E+00  4.31866E+01  1.752E-01  2.000E+01  2.000E+04 -2.048E-01
   1   15   13     1    13    1.3969E+05 -3.4298E+03   1.4312E+05  0.000E+00  0.000E+00  0.000E+00  4.27122E+01  1.781E-01  2.000E+01  2.000E+04 -1.715E-01
   1   14   14     1    14    1.4312E+05 -3.1658E+03   1.4629E+05  0.000E+00  0.000E+00  0.000E+00  4.22374E+01  1.806E-01  2.000E+01  2.000E+04 -1.583E-01
   1   13   15     1    15    1.4629E+05 -2.9803E+03   1.4927E+05  0.000E+00  0.000E+00  0.000E+00  4.17624E+01  1.828E-01  2.000E+01  2.000E+04 -1.490E-01
   1   12   16     1    16    1.4927E+05 -3.1035E+03   1.5237E+05  0.000E+00  0.000E+00  0.000E+00  4.12874E+01  1.851E-01  2.000E+01  2.000E+04 -1.552E-01
   1   12   17     1    17    1.5237E+05 -2.1653E+03   1.5454E+05  0.000E+00  0.000E+00  0.000E+00  4.08120E+01  1.870E-01  2.000E+01  2.000E+04 -1.083E-01
   1   12   18     1    18    1.5454E+05 -2.1635E+03   1.5670E+05  0.000E+00  0.000E+00  0.000E+00  4.03363E+01  1.886E-01  2.000E+01  2.000E+04 -1.082E-01
   1   12   19     1    19    1.5670E+05 -2.8588E+03   1.5956E+05  0.000E+00  0.000E+00  0.000E+00  3.98609E+01  1.904E-01  2.000E+01  2.000E+04 -1.429E-01
   1   13   20     1    20    1.5956E+05 -2.3759E+03   1.6194E+05  0.000E+00  0.000E+00  0.000E+00  3.93855E+01  1.923E-01  2.000E+01  2.000E+04 -1.188E-01
   1   14   21     1    21    1.6194E+05 -2.1604E+03   1.6410E+05  0.000E+00  0.000E+00  0.000E+00  3.89098E+01  1.939E-01  2.000E+01  2.000E+04 -1.080E-01
   1   14   22     1    22    1.6410E+05  5.1371E+03   1.5896E+05  0.000E+00  0.000E+00  0.000E+00  3.84315E+01  1.929E-01  2.000E+01  2.000E+04  2.569E-01
   1    9   30     2     1    5.0000E+04 -1.7485E+03   5.1749E+04  0.000E+00  0.000E+00  0.000E+00  4.02421E+01  1.171E-01  2.000E+01  2.000E+04 -8.743E-02
   1    9   29     2     2    5.1749E+04 -2.0063E+03   5.3755E+04  0.000E+00  0.000E+00  0.000E+00  3.99947E+01  1.197E-01  2.000E+01  2.000E+04 -1.003E-01
   1    9   28     2     3    5.3755E+04 -2.2215E+03   5.5976E+04  0.000E+00  0.000E+00  0.000E+00  3.97475E+01  1.225E-01  2.000E+01  2.000E+04 -1.111E-01
   1    9   27     2     4    5.5976E+04 -3.9817E+03   5.9958E+04  0.000E+00  0.000E+00  0.000E+00  3.95016E+01  1.266E-01  2.000E+01  2.000E+04 -1.991E-01
   1   10   26     2     5    5.9958E+04 -2.3476E+03   6.2306E+04  0.000E+00  0.000E+00  0.000E+00  3.92557E+01  1.307E-01  2.000E+01  2.000E+04 -1.174E-01
   1   11   25     2     6    6.2306E+04 -1.6325E+03   6.3938E+04  0.000E+00  0.000E+00  0.000E+00  3.90083E+01  1.333E-01  2.000E+01  2.000E+04 -8.162E-02
   1   12   24     2     7    6.3938E+04 -1.0563E+03   6.4994E+04  0.000E+00  0.000E+00  0.000E+00  3.87599E+01  1.349E-01  2.000E+01  2.000E+04 -5.282E-02
   1   13   23     2     8    6.4994E+04 -5.5010E+02   6.5545E+04  0.000E+00  0.000E+00  0.000E+00  3.85110E+01  1.360E-01  2.000E+01  2.000E+04 -2.750E-02
   1   14   22     2     9    6.5545E+04  1.7115E+03   6.3833E+04  0.000E+00  0.000E+00  0.000E+00  3.82602E+01  1.352E-01  2.000E+01  2.000E+04  8.557E-02
   1   14   22     3     1    2.2279E+05 -8.4558E+03   2.3125E+05  0.000E+00  0.000E+00  0.000E+00  3.77519E+01  1.963E-01  2.000E+01  2.000E+04 -4.228E-01
   1   15   23     3     2    2.3125E+05 -3.0472E+03   2.3430E+05  0.000E+00  0.000E+00  0.000E+00  3.68659E+01  1.993E-01  2.000E+01  2.000E+04 -1.524E-01
   1   15   24     3     3    2.3430E+05 -2.0752E+03   2.3637E+05  0.000E+00  0.000E+00  0.000E+00  3.59784E+01  2.006E-01  2.000E+01  2.000E+04 -1.038E-01
   1   15   25     3     4    2.3637E+05 -1.9378E+03   2.3831E+05  0.000E+00  0.000E+00  0.000E+00  3.50905E+01  2.016E-01  2.000E+01  2.000E+04 -9.689E-02
   1   15   26     3     5    2.3831E+05 -2.2618E+03   2.4057E+05  0.000E+00  0.000E+00  0.000E+00  3.42027E+01  2.027E-01  2.000E+01  2.000E+04 -1.131E-01
   1   16   27     3     6    2.4057E+05 -3.2229E+03   2.4379E+05  0.000E+00  0.000E+00  0.000E+00  3.33152E+01  2.041E-01  2.000E+01  2.000E+04 -1.611E-01
   1   17   28     3     7    2.4379E+05 -4.0495E+03   2.4784E+05  0.000E+00  0.000E+00  0.000E+00  3.24281E+01  2.059E-01  2.000E+01  2.000E+04 -2.025E-01
   1   18   29     3     8    2.4784E+05 -5.7371E+03   2.5358E+05  0.000E+00  0.000E+00  0.000E+00  3.15417E+01  2.084E-01  2.000E+01  2.000E+04 -2.869E-01
   1   18   30     3     9    2.5358E+05 -4.7730E+03   2.5835E+05  0.000E+00  0.000E+00  0.000E+00  3.06554E+01  2.110E-01  2.000E+01  2.000E+04 -2.386E-01



1
              HEAD IN LAYER   1 AT END OF TIME STEP   1 IN STRESS PERIOD    5
  ---------------------------------------------------------------------------

          1      2      3      4      5      6      7      8      9     10
         11     12     13     14     15     16     17     18     19     20
         21     22     23     24     25     26     27     28     29     30
 .........................................................................
   1  ****** ****** ****** ****** ****** ****** ****** ****** ****** ******
      ****** ****** ****** ****** ****** ****** ****** ****** ****** ******
      ****** ****** ****** ****** ****** ****** ****** ****** ****** ******
   2  ****** ****** ****** ****** ****** ****** ****** ****** ****** ******
      ****** ****** ****** ****** ****** ****** ****** ****** ****** ******
      ****** ****** ****** ****** ****** ****** ****** ****** ****** ******
   3  ****** ****** ****** ****** ****** ****** ****** ****** ****** ******
      ****** ****** ****** ****** ****** ****** ****** ****** ****** ******
      ****** ****** ****** ****** ****** ****** ****** ****** ****** ******
   4  ****** ****** ****** ****** ****** ****** ****** ****** ****** ******
      ****** ****** ****** ****** ****** ****** ****** ****** ****** ******
      ****** ****** ****** ****** ****** ****** ****** ****** ****** ******
   5  ****** ****** ****** ****** ****** ****** ****** ****** ****** ******
      ****** ****** ****** ****** ****** ****** ****** ****** ****** ******
      ****** ****** ****** ****** ****** ****** ****** ****** ****** ******
   6  ****** ****** ****** ****** ****** ****** ****** ****** ****** ******
      ****** ****** ****** ****** ****** ****** ****** ****** ****** ******
      ****** ****** ****** ****** ****** ****** ****** ****** ****** ******
   7  ****** ****** ****** ****** ****** ****** ****** ****** ****** ******
      ****** ****** ****** ****** ****** ****** ****** ****** ****** ******
      ****** ****** ****** ****** ****** ****** ****** ****** ****** ******
   8  ****** ****** ****** ****** ****** ****** ****** ****** ****** ******
      ****** ****** ****** ****** ****** ****** ****** ****** ****** ******
      ****** ****** ****** ****** ****** ****** ****** ****** ****** ******
   9  ****** ****** ****** ****** ****** ****** ****** ****** ****** ******
      ****** ****** ****** ****** ****** ****** ****** ****** ****** ******
      ****** ****** ****** ****** ****** ****** ****** ****** ****** ******
  10  ****** ****** ****** ****** ****** ****** ****** ****** ****** ******
      ****** ****** ****** ****** ****** ****** ****** ****** ****** ******
      ****** ****** ****** ****** ****** ****** ****** ****** ****** ******
  11  ****** ****** ****** ****** ****** ****** ****** ****** ****** ******
      ****** ****** ****** ****** ****** ****** ****** ****** ****** ******
      ****** ****** ****** ****** ****** ****** ****** ****** ****** ******
  12  ****** ****** ****** ****** ****** ****** ****** ****** ****** ******
      ****** ****** ****** ****** ****** ****** ****** ****** ****** ******
      ****** ****** ****** ****** ****** ****** ****** ****** ****** ******
  13  ****** ****** ****** ****** ****** ****** ****** ****** ****** ******
      ****** ****** ****** ****** ****** ****** ****** ****** ****** ******
      ****** ****** ****** ****** ****** ****** ****** ****** ****** ******
  14  ****** ****** ****** ****** ****** ****** ****** ****** ****** ******
      ****** ****** ****** ****** ****** ****** ****** ****** ****** ******
      ****** ****** ****** ****** ****** ****** ****** ****** ****** ******
  15  ****** ****** ****** ****** ****** ****** ****** ****** ****** ******
      ****** ****** ****** ****** ****** ****** ****** ****** ****** ******
      ****** ****** ****** ****** ****** ****** ****** ****** ****** ******
  16  ****** ****** ****** ****** ****** ****** ****** ****** ****** ******
      ****** ****** ****** ****** ****** ****** ****** ****** ****** ******
      ****** ****** ****** ****** ****** ****** ****** ****** ****** ******
  17  ****** ****** ****** ****** ****** ****** ****** ****** ****** ******
      ****** ****** ****** ****** ****** ****** ****** ****** ****** ******
      ****** ****** ****** ****** ****** ****** ****** ****** ****** ******
  18  ****** ****** ****** ****** ****** ****** ****** ****** ****** ******
      ****** ****** ****** ****** ****** ****** ****** ****** ****** ******
      ****** ****** ****** ****** ****** ****** ****** ****** ****** ******
  19  ****** ****** ****** ****** ****** ****** ****** ****** ****** ******
      ****** ****** ****** ****** ****** ****** ****** ****** ****** ******
      ****** ****** ****** ****** ****** ****** ****** ****** ****** ******
  20  ****** ****** ****** ****** ****** ****** ****** ****** ****** ******
      ****** ****** ****** ****** ****** ****** ****** ****** ****** ******
      ****** ****** ****** ****** ****** ****** ****** ****** ****** ******
  21  ****** ****** ****** ****** ****** ****** ****** ****** ****** ******
      ****** ****** ****** ****** ****** ****** ****** ****** ****** ******
      ****** ****** ****** ****** ****** ****** ****** ****** ****** ******
  22  ****** ****** ****** ****** ****** ****** ****** ****** ****** ******
      ****** ****** ****** ****** ****** ****** ****** ****** ****** ******
      ****** ****** ****** ****** ****** ****** ****** ****** ****** ******
  23  ****** ****** ****** ****** ****** ****** ****** ****** ****** ******
      ****** ****** ****** ****** ****** ****** ****** ****** ****** ******
      ****** ****** ****** ****** ****** ****** ****** ****** ****** ******
  24  ****** ****** ****** ****** ****** ****** ****** ****** ****** ******
      ****** ****** ****** ****** ****** ****** ****** ****** ****** ******
      ****** ****** ****** ****** ****** ****** ****** ****** ****** ******
  25  ****** ****** ****** ****** ****** ****** ****** ****** ****** ******
      ****** ****** ****** ****** ****** ****** ****** ****** ****** ******
      ****** ****** ****** ****** ****** ****** ****** ****** ****** ******

 HEAD WILL BE SAVED ON UNIT   51 AT END OF TIME STEP    1, STRESS PERIOD    5
1
  VOLUMETRIC BUDGET FOR ENTIRE MODEL AT END OF TIME STEP    1, STRESS PERIOD   5
  ------------------------------------------------------------------------------

     CUMULATIVE VOLUMES      L**3       RATES FOR THIS TIME STEP      L**3/T
     ------------------                 ------------------------

           IN:                                      IN:
           ---                                      ---
             STORAGE =    24435305.1650               STORAGE =        4834.5413
       CONSTANT HEAD =    72459833.7765         CONSTANT HEAD =      176525.0865
               WELLS =           0.0000                 WELLS =           0.0000
            RECHARGE =    10074000.0000              RECHARGE =       13800.0000
      STREAM LEAKAGE =     2904798.4147        STREAM LEAKAGE =        6848.5430

            TOTAL IN =   109873937.3562              TOTAL IN =      202008.1708

          OUT:                                     OUT:
          ----                                     ----
             STORAGE =       31420.9970               STORAGE =           0.0000
       CONSTANT HEAD =           0.0000         CONSTANT HEAD =           0.0000
               WELLS =    39670292.8967                 WELLS =       86805.8926
            RECHARGE =           0.0000              RECHARGE =           0.0000
      STREAM LEAKAGE =    70172224.2858        STREAM LEAKAGE =      115202.2791

           TOTAL OUT =   109873938.1795             TOTAL OUT =      202008.1716

            IN - OUT =          -0.8233              IN - OUT =      -8.1097E-04

 PERCENT DISCREPANCY =          -0.00     PERCENT DISCREPANCY =          -0.00






         TIME SUMMARY AT END OF TIME STEP    1 IN STRESS PERIOD    5
                    SECONDS     MINUTES      HOURS       DAYS        YEARS
                    -----------------------------------------------------------
   TIME STEP LENGTH 7.94880E+06 1.32480E+05  2208.0      92.000     0.25188    
 STRESS PERIOD TIME 7.94880E+06 1.32480E+05  2208.0      92.000     0.25188    
         TOTAL TIME 3.94848E+07 6.58080E+05  10968.      457.00      1.2512    
1
1
                            STRESS PERIOD NO.    6, LENGTH =   91.00000    
                            -----------------------------------------------

                              NUMBER OF TIME STEPS =     1

                               MULTIPLIER FOR DELT =     1.500

                            INITIAL TIME STEP SIZE =   91.00000    

 WELL NO.  LAYER   ROW   COL   STRESS RATE         
 --------------------------------------------------
      1      1      5     14     -0.2595E+05
      2      1      4     17     -0.2695E+05
      3      1      3     26     -0.3390E+05

      3 WELLS

                 RECHARGE =  2.000000E-03

 REUSING STREAM SEGMENT DATA FROM LAST STRESS PERIOD
 
 SOLVING FOR HEAD 


     7 CALLS TO PCG ROUTINE FOR TIME STEP   1 IN STRESS PERIOD    6
    26 TOTAL ITERATIONS

 OUTPUT CONTROL FOR STRESS PERIOD    6   TIME STEP    1
    SAVE BUDGET
    SAVE HEAD FOR ALL LAYERS
    PRINT HEAD FOR ALL LAYERS
 UBDSV2 SAVING "STREAMFLOW OUT  " ON UNIT  50 AT TIME STEP  1, STRESS PERIOD   6



 STREAM LISTING     PERIOD      6   STEP        1

 LAYER ROW COL. STREAM  RCH.  FLOW INTO     FLOW TO   FLOW OUT OF   OVRLND.     DIRECT     STREAM       STREAM     STREAM     STREAM   STREAMBED  STREAMBED
                SEG.NO.  NO.  STRM. RCH.    AQUIFER    STRM. RCH.    RUNOFF     PRECIP       ET          HEAD       DEPTH      WIDTH   CONDCTNC.   GRADIENT

   1   13    1     1     1    1.0000E+05 -2.9565E+03   1.0296E+05  0.000E+00  0.000E+00  0.000E+00  4.84073E+01  1.459E-01  2.000E+01  2.000E+04 -1.478E-01
   1   13    2     1     2    1.0296E+05 -4.8041E+03   1.0776E+05  0.000E+00  0.000E+00  0.000E+00  4.79333E+01  1.493E-01  2.000E+01  2.000E+04 -2.402E-01
   1   14    3     1     3    1.0776E+05 -3.9760E+03   1.1174E+05  0.000E+00  0.000E+00  0.000E+00  4.74598E+01  1.530E-01  2.000E+01  2.000E+04 -1.988E-01
   1   15    4     1     4    1.1174E+05 -3.9389E+03   1.1568E+05  0.000E+00  0.000E+00  0.000E+00  4.69858E+01  1.562E-01  2.000E+01  2.000E+04 -1.969E-01
   1   16    5     1     5    1.1568E+05 -4.3842E+03   1.2006E+05  0.000E+00  0.000E+00  0.000E+00  4.65119E+01  1.596E-01  2.000E+01  2.000E+04 -2.192E-01
   1   16    6     1     6    1.2006E+05 -3.3856E+03   1.2345E+05  0.000E+00  0.000E+00  0.000E+00  4.60378E+01  1.628E-01  2.000E+01  2.000E+04 -1.693E-01
   1   16    7     1     7    1.2345E+05 -3.4174E+03   1.2686E+05  0.000E+00  0.000E+00  0.000E+00  4.55632E+01  1.655E-01  2.000E+01  2.000E+04 -1.709E-01
   1   16    8     1     8    1.2686E+05 -3.4296E+03   1.3029E+05  0.000E+00  0.000E+00  0.000E+00  4.50887E+01  1.682E-01  2.000E+01  2.000E+04 -1.715E-01
   1   16    9     1     9    1.3029E+05 -3.4096E+03   1.3370E+05  0.000E+00  0.000E+00  0.000E+00  4.46141E+01  1.709E-01  2.000E+01  2.000E+04 -1.705E-01
   1   16   10     1    10    1.3370E+05 -3.3682E+03   1.3707E+05  0.000E+00  0.000E+00  0.000E+00  4.41394E+01  1.735E-01  2.000E+01  2.000E+04 -1.684E-01
   1   16   11     1    11    1.3707E+05 -3.3481E+03   1.4042E+05  0.000E+00  0.000E+00  0.000E+00  4.36647E+01  1.761E-01  2.000E+01  2.000E+04 -1.674E-01
   1   16   12     1    12    1.4042E+05 -4.6005E+03   1.4502E+05  0.000E+00  0.000E+00  0.000E+00  4.31904E+01  1.791E-01  2.000E+01  2.000E+04 -2.300E-01
   1   15   13     1    13    1.4502E+05 -3.9721E+03   1.4899E+05  0.000E+00  0.000E+00  0.000E+00  4.27164E+01  1.823E-01  2.000E+01  2.000E+04 -1.986E-01
   1   14   14     1    14    1.4899E+05 -3.7150E+03   1.5271E+05  0.000E+00  0.000E+00  0.000E+00  4.22419E+01  1.851E-01  2.000E+01  2.000E+04 -1.857E-01
   1   13   15     1    15    1.5271E+05 -3.5176E+03   1.5622E+05  0.000E+00  0.000E+00  0.000E+00  4.17673E+01  1.878E-01  2.000E+01  2.000E+04 -1.759E-01
   1   12   16     1    16    1.5622E+05 -3.6112E+03   1.5983E+05  0.000E+00  0.000E+00  0.000E+00  4.12926E+01  1.904E-01  2.000E+01  2.000E+04 -1.806E-01
   1   12   17     1    17    1.5983E+05 -2.5484E+03   1.6238E+05  0.000E+00  0.000E+00  0.000E+00  4.08176E+01  1.926E-01  2.000E+01  2.000E+04 -1.274E-01
   1   12   18     1    18    1.6238E+05 -2.5415E+03   1.6492E+05  0.000E+00  0.000E+00  0.000E+00  4.03421E+01  1.944E-01  2.000E+01  2.000E+04 -1.271E-01
   1   12   19     1    19    1.6492E+05 -3.3193E+03   1.6824E+05  0.000E+00  0.000E+00  0.000E+00  3.98669E+01  1.965E-01  2.000E+01  2.000E+04 -1.660E-01
   1   13   20     1    20    1.6824E+05 -2.8320E+03   1.7108E+05  0.000E+00  0.000E+00  0.000E+00  3.93918E+01  1.986E-01  2.000E+01  2.000E+04 -1.416E-01
   1   14   21     1    21    1.7108E+05 -2.5834E+03   1.7366E+05  0.000E+00  0.000E+00  0.000E+00  3.89164E+01  2.005E-01  2.000E+01  2.000E+04 -1.292E-01
   1   14   22     1    22    1.7366E+05  5.0553E+03   1.6860E+05  0.000E+00  0.000E+00  0.000E+00  3.84383E+01  1.997E-01  2.000E+01  2.000E+04  2.528E-01
   1    9   30     2     1    5.0000E+04 -2.1033E+03   5.2103E+04  0.000E+00  0.000E+00  0.000E+00  4.02423E+01  1.173E-01  2.000E+01  2.000E+04 -1.052E-01
   1    9   29     2     2    5.2103E+04 -2.3581E+03   5.4461E+04  0.000E+00  0.000E+00  0.000E+00  3.99954E+01  1.204E-01  2.000E+01  2.000E+04 -1.179E-01
   1    9   28     2     3    5.4461E+04 -2.5705E+03   5.7032E+04  0.000E+00  0.000E+00  0.000E+00  3.97487E+01  1.237E-01  2.000E+01  2.000E+04 -1.285E-01
   1    9   27     2     4    5.7032E+04 -4.4447E+03   6.1477E+04  0.000E+00  0.000E+00  0.000E+00  3.95033E+01  1.283E-01  2.000E+01  2.000E+04 -2.222E-01
   1   10   26     2     5    6.1477E+04 -2.8278E+03   6.4304E+04  0.000E+00  0.000E+00  0.000E+00  3.92580E+01  1.330E-01  2.000E+01  2.000E+04 -1.414E-01
   1   11   25     2     6    6.4304E+04 -2.0919E+03   6.6396E+04  0.000E+00  0.000E+00  0.000E+00  3.90111E+01  1.361E-01  2.000E+01  2.000E+04 -1.046E-01
   1   12   24     2     7    6.6396E+04 -1.4625E+03   6.7859E+04  0.000E+00  0.000E+00  0.000E+00  3.87633E+01  1.383E-01  2.000E+01  2.000E+04 -7.313E-02
   1   13   23     2     8    6.7859E+04 -8.6731E+02   6.8726E+04  0.000E+00  0.000E+00  0.000E+00  3.85147E+01  1.397E-01  2.000E+01  2.000E+04 -4.337E-02
   1   14   22     2     9    6.8726E+04  1.5744E+03   6.7152E+04  0.000E+00  0.000E+00  0.000E+00  3.82643E+01  1.393E-01  2.000E+01  2.000E+04  7.872E-02
   1   14   22     3     1    2.3576E+05 -8.5401E+03   2.4430E+05  0.000E+00  0.000E+00  0.000E+00  3.77585E+01  2.030E-01  2.000E+01  2.000E+04 -4.270E-01
   1   15   23     3     2    2.4430E+05 -3.4439E+03   2.4774E+05  0.000E+00  0.000E+00  0.000E+00  3.68727E+01  2.060E-01  2.000E+01  2.000E+04 -1.722E-01
   1   15   24     3     3    2.4774E+05 -2.3624E+03   2.5010E+05  0.000E+00  0.000E+00  0.000E+00  3.59852E+01  2.075E-01  2.000E+01  2.000E+04 -1.181E-01
   1   15   25     3     4    2.5010E+05 -2.2258E+03   2.5233E+05  0.000E+00  0.000E+00  0.000E+00  3.50975E+01  2.086E-01  2.000E+01  2.000E+04 -1.113E-01
   1   15   26     3     5    2.5233E+05 -2.6330E+03   2.5496E+05  0.000E+00  0.000E+00  0.000E+00  3.42098E+01  2.098E-01  2.000E+01  2.000E+04 -1.317E-01
   1   16   27     3     6    2.5496E+05 -3.6887E+03   2.5865E+05  0.000E+00  0.000E+00  0.000E+00  3.33225E+01  2.114E-01  2.000E+01  2.000E+04 -1.844E-01
   1   17   28     3     7    2.5865E+05 -4.5251E+03   2.6317E+05  0.000E+00  0.000E+00  0.000E+00  3.24356E+01  2.134E-01  2.000E+01  2.000E+04 -2.263E-01
   1   18   29     3     8    2.6317E+05 -6.1836E+03   2.6936E+05  0.000E+00  0.000E+00  0.000E+00  3.15494E+01  2.160E-01  2.000E+01  2.000E+04 -3.092E-01
   1   18   30     3     9    2.6936E+05 -5.1097E+03   2.7447E+05  0.000E+00  0.000E+00  0.000E+00  3.06632E+01  2.188E-01  2.000E+01  2.000E+04 -2.555E-01



1
              HEAD IN LAYER   1 AT END OF TIME STEP   1 IN STRESS PERIOD    6
  ---------------------------------------------------------------------------

          1      2      3      4      5      6      7      8      9     10
         11     12     13     14     15     16     17     18     19     20
         21     22     23     24     25     26     27     28     29     30
 .........................................................................
   1  ****** ****** ****** ****** ****** ****** ****** ****** ****** ******
      ****** ****** ****** ****** ****** ****** ****** ****** ****** ******
      ****** ****** ****** ****** ****** ****** ****** ****** ****** ******
   2  ****** ****** ****** ****** ****** ****** ****** ****** ****** ******
      ****** ****** ****** ****** ****** ****** ****** ****** ****** ******
      ****** ****** ****** ****** ****** ****** ****** ****** ****** ******
   3  ****** ****** ****** ****** ****** ****** ****** ****** ****** ******
      ****** ****** ****** ****** ****** ****** ****** ****** ****** ******
      ****** ****** ****** ****** ****** ****** ****** ****** ****** ******
   4  ****** ****** ****** ****** ****** ****** ****** ****** ****** ******
      ****** ****** ****** ****** ****** ****** ****** ****** ****** ******
      ****** ****** ****** ****** ****** ****** ****** ****** ****** ******
   5  ****** ****** ****** ****** ****** ****** ****** ****** ****** ******
      ****** ****** ****** ****** ****** ****** ****** ****** ****** ******
      ****** ****** ****** ****** ****** ****** ****** ****** ****** ******
   6  ****** ****** ****** ****** ****** ****** ****** ****** ****** ******
      ****** ****** ****** ****** ****** ****** ****** ****** ****** ******
      ****** ****** ****** ****** ****** ****** ****** ****** ****** ******
   7  ****** ****** ****** ****** ****** ****** ****** ****** ****** ******
      ****** ****** ****** ****** ****** ****** ****** ****** ****** ******
      ****** ****** ****** ****** ****** ****** ****** ****** ****** ******
   8  ****** ****** ****** ****** ****** ****** ****** ****** ****** ******
      ****** ****** ****** ****** ****** ****** ****** ****** ****** ******
      ****** ****** ****** ****** ****** ****** ****** ****** ****** ******
   9  ****** ****** ****** ****** ****** ****** ****** ****** ****** ******
      ****** ****** ****** ****** ****** ****** ****** ****** ****** ******
      ****** ****** ****** ****** ****** ****** ****** ****** ****** ******
  10  ****** ****** ****** ****** ****** ****** ****** ****** ****** ******
      ****** ****** ****** ****** ****** ****** ****** ****** ****** ******
      ****** ****** ****** ****** ****** ****** ****** ****** ****** ******
  11  ****** ****** ****** ****** ****** ****** ****** ****** ****** ******
      ****** ****** ****** ****** ****** ****** ****** ****** ****** ******
      ****** ****** ****** ****** ****** ****** ****** ****** ****** ******
  12  ****** ****** ****** ****** ****** ****** ****** ****** ****** ******
      ****** ****** ****** ****** ****** ****** ****** ****** ****** ******
      ****** ****** ****** ****** ****** ****** ****** ****** ****** ******
  13  ****** ****** ****** ****** ****** ****** ****** ****** ****** ******
      ****** ****** ****** ****** ****** ****** ****** ****** ****** ******
      ****** ****** ****** ****** ****** ****** ****** ****** ****** ******
  14  ****** ****** ****** ****** ****** ****** ****** ****** ****** ******
      ****** ****** ****** ****** ****** ****** ****** ****** ****** ******
      ****** ****** ****** ****** ****** ****** ****** ****** ****** ******
  15  ****** ****** ****** ****** ****** ****** ****** ****** ****** ******
      ****** ****** ****** ****** ****** ****** ****** ****** ****** ******
      ****** ****** ****** ****** ****** ****** ****** ****** ****** ******
  16  ****** ****** ****** ****** ****** ****** ****** ****** ****** ******
      ****** ****** ****** ****** ****** ****** ****** ****** ****** ******
      ****** ****** ****** ****** ****** ****** ****** ****** ****** ******
  17  ****** ****** ****** ****** ****** ****** ****** ****** ****** ******
      ****** ****** ****** ****** ****** ****** ****** ****** ****** ******
      ****** ****** ****** ****** ****** ****** ****** ****** ****** ******
  18  ****** ****** ****** ****** ****** ****** ****** ****** ****** ******
      ****** ****** ****** ****** ****** ****** ****** ****** ****** ******
      ****** ****** ****** ****** ****** ****** ****** ****** ****** ******
  19  ****** ****** ****** ****** ****** ****** ****** ****** ****** ******
      ****** ****** ****** ****** ****** ****** ****** ****** ****** ******
      ****** ****** ****** ****** ****** ****** ****** ****** ****** ******
  20  ****** ****** ****** ****** ****** ****** ****** ****** ****** ******
      ****** ****** ****** ****** ****** ****** ****** ****** ****** ******
      ****** ****** ****** ****** ****** ****** ****** ****** ****** ******
  21  ****** ****** ****** ****** ****** ****** ****** ****** ****** ******
      ****** ****** ****** ****** ****** ****** ****** ****** ****** ******
      ****** ****** ****** ****** ****** ****** ****** ****** ****** ******
  22  ****** ****** ****** ****** ****** ****** ****** ****** ****** ******
      ****** ****** ****** ****** ****** ****** ****** ****** ****** ******
      ****** ****** ****** ****** ****** ****** ****** ****** ****** ******
  23  ****** ****** ****** ****** ****** ****** ****** ****** ****** ******
      ****** ****** ****** ****** ****** ****** ****** ****** ****** ******
      ****** ****** ****** ****** ****** ****** ****** ****** ****** ******
  24  ****** ****** ****** ****** ****** ****** ****** ****** ****** ******
      ****** ****** ****** ****** ****** ****** ****** ****** ****** ******
      ****** ****** ****** ****** ****** ****** ****** ****** ****** ******
  25  ****** ****** ****** ****** ****** ****** ****** ****** ****** ******
      ****** ****** ****** ****** ****** ****** ****** ****** ****** ******
      ****** ****** ****** ****** ****** ****** ****** ****** ****** ******

 HEAD WILL BE SAVED ON UNIT   51 AT END OF TIME STEP    1, STRESS PERIOD    6
1
  VOLUMETRIC BUDGET FOR ENTIRE MODEL AT END OF TIME STEP    1, STRESS PERIOD   6
  ------------------------------------------------------------------------------

     CUMULATIVE VOLUMES      L**3       RATES FOR THIS TIME STEP      L**3/T
     ------------------                 ------------------------

           IN:                                      IN:
           ---                                      ---
             STORAGE =    24435305.1650               STORAGE =           0.0000
       CONSTANT HEAD =    87565543.5150         CONSTANT HEAD =      165996.8103
               WELLS =           0.0000                 WELLS =           0.0000
            RECHARGE =    15097200.0000              RECHARGE =       55200.0000
      STREAM LEAKAGE =     3508108.8776        STREAM LEAKAGE =        6629.7853

            TOTAL IN =   130606157.5577              TOTAL IN =      227826.5956

          OUT:                                     OUT:
          ----                                     ----
             STORAGE =      934437.2738               STORAGE =        9923.2558
       CONSTANT HEAD =           0.0000         CONSTANT HEAD =           0.0000
               WELLS =    47569629.1190                 WELLS =       86805.8926
            RECHARGE =           0.0000              RECHARGE =           0.0000
      STREAM LEAKAGE =    82102091.8382        STREAM LEAKAGE =      131097.4456

           TOTAL OUT =   130606158.2311             TOTAL OUT =      227826.5940

            IN - OUT =          -0.6734              IN - OUT =       1.6471E-03

 PERCENT DISCREPANCY =          -0.00     PERCENT DISCREPANCY =           0.00






         TIME SUMMARY AT END OF TIME STEP    1 IN STRESS PERIOD    6
                    SECONDS     MINUTES      HOURS       DAYS        YEARS
                    -----------------------------------------------------------
   TIME STEP LENGTH 7.86240E+06 1.31040E+05  2184.0      91.000     0.24914    
 STRESS PERIOD TIME 7.86240E+06 1.31040E+05  2184.0      91.000     0.24914    
         TOTAL TIME 4.73472E+07 7.89120E+05  13152.      548.00      1.5003    
1
1
                            STRESS PERIOD NO.    7, LENGTH =   91.00000    
                            -----------------------------------------------

                              NUMBER OF TIME STEPS =     1

                               MULTIPLIER FOR DELT =     1.500

                            INITIAL TIME STEP SIZE =   91.00000    

 WELL NO.  LAYER   ROW   COL   STRESS RATE         
 --------------------------------------------------
      1      1      5     14     -0.2088E+05
      2      1      4     17     -0.2248E+05
      3      1      3     26     -0.3099E+05

      3 WELLS

                 RECHARGE =   0.00000    

 REUSING STREAM SEGMENT DATA FROM LAST STRESS PERIOD
 
 SOLVING FOR HEAD 


     7 CALLS TO PCG ROUTINE FOR TIME STEP   1 IN STRESS PERIOD    7
    26 TOTAL ITERATIONS

 OUTPUT CONTROL FOR STRESS PERIOD    7   TIME STEP    1
    SAVE BUDGET
    SAVE HEAD FOR ALL LAYERS
    PRINT HEAD FOR ALL LAYERS
 UBDSV2 SAVING "STREAMFLOW OUT  " ON UNIT  50 AT TIME STEP  1, STRESS PERIOD   7



 STREAM LISTING     PERIOD      7   STEP        1

 LAYER ROW COL. STREAM  RCH.  FLOW INTO     FLOW TO   FLOW OUT OF   OVRLND.     DIRECT     STREAM       STREAM     STREAM     STREAM   STREAMBED  STREAMBED
                SEG.NO.  NO.  STRM. RCH.    AQUIFER    STRM. RCH.    RUNOFF     PRECIP       ET          HEAD       DEPTH      WIDTH   CONDCTNC.   GRADIENT

   1   13    1     1     1    1.0000E+05 -2.4702E+03   1.0247E+05  0.000E+00  0.000E+00  0.000E+00  4.84071E+01  1.457E-01  2.000E+01  2.000E+04 -1.235E-01
   1   13    2     1     2    1.0247E+05 -4.1714E+03   1.0664E+05  0.000E+00  0.000E+00  0.000E+00  4.79327E+01  1.486E-01  2.000E+01  2.000E+04 -2.086E-01
   1   14    3     1     3    1.0664E+05 -3.3235E+03   1.0997E+05  0.000E+00  0.000E+00  0.000E+00  4.74586E+01  1.517E-01  2.000E+01  2.000E+04 -1.662E-01
   1   15    4     1     4    1.0997E+05 -3.2901E+03   1.1326E+05  0.000E+00  0.000E+00  0.000E+00  4.69841E+01  1.545E-01  2.000E+01  2.000E+04 -1.645E-01
   1   16    5     1     5    1.1326E+05 -3.7824E+03   1.1704E+05  0.000E+00  0.000E+00  0.000E+00  4.65097E+01  1.574E-01  2.000E+01  2.000E+04 -1.891E-01
   1   16    6     1     6    1.1704E+05 -2.9128E+03   1.1995E+05  0.000E+00  0.000E+00  0.000E+00  4.60352E+01  1.602E-01  2.000E+01  2.000E+04 -1.456E-01
   1   16    7     1     7    1.1995E+05 -2.9401E+03   1.2289E+05  0.000E+00  0.000E+00  0.000E+00  4.55602E+01  1.625E-01  2.000E+01  2.000E+04 -1.470E-01
   1   16    8     1     8    1.2289E+05 -2.9509E+03   1.2584E+05  0.000E+00  0.000E+00  0.000E+00  4.50853E+01  1.649E-01  2.000E+01  2.000E+04 -1.475E-01
   1   16    9     1     9    1.2584E+05 -2.9336E+03   1.2877E+05  0.000E+00  0.000E+00  0.000E+00  4.46104E+01  1.672E-01  2.000E+01  2.000E+04 -1.467E-01
   1   16   10     1    10    1.2877E+05 -2.8983E+03   1.3167E+05  0.000E+00  0.000E+00  0.000E+00  4.41354E+01  1.695E-01  2.000E+01  2.000E+04 -1.449E-01
   1   16   11     1    11    1.3167E+05 -2.8847E+03   1.3456E+05  0.000E+00  0.000E+00  0.000E+00  4.36604E+01  1.717E-01  2.000E+01  2.000E+04 -1.442E-01
   1   16   12     1    12    1.3456E+05 -3.9996E+03   1.3856E+05  0.000E+00  0.000E+00  0.000E+00  4.31858E+01  1.744E-01  2.000E+01  2.000E+04 -2.000E-01
   1   15   13     1    13    1.3856E+05 -3.3396E+03   1.4190E+05  0.000E+00  0.000E+00  0.000E+00  4.27113E+01  1.772E-01  2.000E+01  2.000E+04 -1.670E-01
   1   14   14     1    14    1.4190E+05 -3.0991E+03   1.4500E+05  0.000E+00  0.000E+00  0.000E+00  4.22364E+01  1.796E-01  2.000E+01  2.000E+04 -1.550E-01
   1   13   15     1    15    1.4500E+05 -2.9585E+03   1.4795E+05  0.000E+00  0.000E+00  0.000E+00  4.17614E+01  1.819E-01  2.000E+01  2.000E+04 -1.479E-01
   1   12   16     1    16    1.4795E+05 -3.1844E+03   1.5114E+05  0.000E+00  0.000E+00  0.000E+00  4.12864E+01  1.842E-01  2.000E+01  2.000E+04 -1.592E-01
   1   12   17     1    17    1.5114E+05 -2.1987E+03   1.5334E+05  0.000E+00  0.000E+00  0.000E+00  4.08111E+01  1.861E-01  2.000E+01  2.000E+04 -1.099E-01
   1   12   18     1    18    1.5334E+05 -2.1827E+03   1.5552E+05  0.000E+00  0.000E+00  0.000E+00  4.03355E+01  1.877E-01  2.000E+01  2.000E+04 -1.091E-01
   1   12   19     1    19    1.5552E+05 -2.8754E+03   1.5840E+05  0.000E+00  0.000E+00  0.000E+00  3.98600E+01  1.896E-01  2.000E+01  2.000E+04 -1.438E-01
   1   13   20     1    20    1.5840E+05 -2.3140E+03   1.6071E+05  0.000E+00  0.000E+00  0.000E+00  3.93846E+01  1.915E-01  2.000E+01  2.000E+04 -1.157E-01
   1   14   21     1    21    1.6071E+05 -2.0790E+03   1.6279E+05  0.000E+00  0.000E+00  0.000E+00  3.89089E+01  1.930E-01  2.000E+01  2.000E+04 -1.039E-01
   1   14   22     1    22    1.6279E+05  5.1534E+03   1.5764E+05  0.000E+00  0.000E+00  0.000E+00  3.84306E+01  1.919E-01  2.000E+01  2.000E+04  2.577E-01
   1    9   30     2     1    5.0000E+04 -1.7122E+03   5.1712E+04  0.000E+00  0.000E+00  0.000E+00  4.02421E+01  1.171E-01  2.000E+01  2.000E+04 -8.561E-02
   1    9   29     2     2    5.1712E+04 -1.9758E+03   5.3688E+04  0.000E+00  0.000E+00  0.000E+00  3.99946E+01  1.196E-01  2.000E+01  2.000E+04 -9.879E-02
   1    9   28     2     3    5.3688E+04 -2.2027E+03   5.5891E+04  0.000E+00  0.000E+00  0.000E+00  3.97474E+01  1.224E-01  2.000E+01  2.000E+04 -1.101E-01
   1    9   27     2     4    5.5891E+04 -3.9957E+03   5.9886E+04  0.000E+00  0.000E+00  0.000E+00  3.95015E+01  1.265E-01  2.000E+01  2.000E+04 -1.998E-01
   1   10   26     2     5    5.9886E+04 -2.3106E+03   6.2197E+04  0.000E+00  0.000E+00  0.000E+00  3.92556E+01  1.306E-01  2.000E+01  2.000E+04 -1.155E-01
   1   11   25     2     6    6.2197E+04 -1.5803E+03   6.3777E+04  0.000E+00  0.000E+00  0.000E+00  3.90081E+01  1.331E-01  2.000E+01  2.000E+04 -7.902E-02
   1   12   24     2     7    6.3777E+04 -1.0006E+03   6.4778E+04  0.000E+00  0.000E+00  0.000E+00  3.87597E+01  1.347E-01  2.000E+01  2.000E+04 -5.003E-02
   1   13   23     2     8    6.4778E+04 -4.9753E+02   6.5275E+04  0.000E+00  0.000E+00  0.000E+00  3.85107E+01  1.357E-01  2.000E+01  2.000E+04 -2.488E-02
   1   14   22     2     9    6.5275E+04  1.7395E+03   6.3536E+04  0.000E+00  0.000E+00  0.000E+00  3.82599E+01  1.349E-01  2.000E+01  2.000E+04  8.698E-02
   1   14   22     3     1    2.2117E+05 -8.4376E+03   2.2961E+05  0.000E+00  0.000E+00  0.000E+00  3.77510E+01  1.955E-01  2.000E+01  2.000E+04 -4.219E-01
   1   15   23     3     2    2.2961E+05 -2.9596E+03   2.3257E+05  0.000E+00  0.000E+00  0.000E+00  3.68651E+01  1.984E-01  2.000E+01  2.000E+04 -1.480E-01
   1   15   24     3     3    2.3257E+05 -2.0060E+03   2.3457E+05  0.000E+00  0.000E+00  0.000E+00  3.59775E+01  1.997E-01  2.000E+01  2.000E+04 -1.003E-01
   1   15   25     3     4    2.3457E+05 -1.8661E+03   2.3644E+05  0.000E+00  0.000E+00  0.000E+00  3.50896E+01  2.007E-01  2.000E+01  2.000E+04 -9.330E-02
   1   15   26     3     5    2.3644E+05 -2.1682E+03   2.3861E+05  0.000E+00  0.000E+00  0.000E+00  3.42017E+01  2.017E-01  2.000E+01  2.000E+04 -1.084E-01
   1   16   27     3     6    2.3861E+05 -3.1109E+03   2.4172E+05  0.000E+00  0.000E+00  0.000E+00  3.33142E+01  2.031E-01  2.000E+01  2.000E+04 -1.555E-01
   1   17   28     3     7    2.4172E+05 -3.9366E+03   2.4566E+05  0.000E+00  0.000E+00  0.000E+00  3.24271E+01  2.048E-01  2.000E+01  2.000E+04 -1.968E-01
   1   18   29     3     8    2.4566E+05 -5.6345E+03   2.5129E+05  0.000E+00  0.000E+00  0.000E+00  3.15406E+01  2.072E-01  2.000E+01  2.000E+04 -2.817E-01
   1   18   30     3     9    2.5129E+05 -4.6915E+03   2.5598E+05  0.000E+00  0.000E+00  0.000E+00  3.06543E+01  2.098E-01  2.000E+01  2.000E+04 -2.346E-01



1
              HEAD IN LAYER   1 AT END OF TIME STEP   1 IN STRESS PERIOD    7
  ---------------------------------------------------------------------------

          1      2      3      4      5      6      7      8      9     10
         11     12     13     14     15     16     17     18     19     20
         21     22     23     24     25     26     27     28     29     30
 .........................................................................
   1  ****** ****** ****** ****** ****** ****** ****** ****** ****** ******
      ****** ****** ****** ****** ****** ****** ****** ****** ****** ******
      ****** ****** ****** ****** ****** ****** ****** ****** ****** ******
   2  ****** ****** ****** ****** ****** ****** ****** ****** ****** ******
      ****** ****** ****** ****** ****** ****** ****** ****** ****** ******
      ****** ****** ****** ****** ****** ****** ****** ****** ****** ******
   3  ****** ****** ****** ****** ****** ****** ****** ****** ****** ******
      ****** ****** ****** ****** ****** ****** ****** ****** ****** ******
      ****** ****** ****** ****** ****** ****** ****** ****** ****** ******
   4  ****** ****** ****** ****** ****** ****** ****** ****** ****** ******
      ****** ****** ****** ****** ****** ****** ****** ****** ****** ******
      ****** ****** ****** ****** ****** ****** ****** ****** ****** ******
   5  ****** ****** ****** ****** ****** ****** ****** ****** ****** ******
      ****** ****** ****** ****** ****** ****** ****** ****** ****** ******
      ****** ****** ****** ****** ****** ****** ****** ****** ****** ******
   6  ****** ****** ****** ****** ****** ****** ****** ****** ****** ******
      ****** ****** ****** ****** ****** ****** ****** ****** ****** ******
      ****** ****** ****** ****** ****** ****** ****** ****** ****** ******
   7  ****** ****** ****** ****** ****** ****** ****** ****** ****** ******
      ****** ****** ****** ****** ****** ****** ****** ****** ****** ******
      ****** ****** ****** ****** ****** ****** ****** ****** ****** ******
   8  ****** ****** ****** ****** ****** ****** ****** ****** ****** ******
      ****** ****** ****** ****** ****** ****** ****** ****** ****** ******
      ****** ****** ****** ****** ****** ****** ****** ****** ****** ******
   9  ****** ****** ****** ****** ****** ****** ****** ****** ****** ******
      ****** ****** ****** ****** ****** ****** ****** ****** ****** ******
      ****** ****** ****** ****** ****** ****** ****** ****** ****** ******
  10  ****** ****** ****** ****** ****** ****** ****** ****** ****** ******
      ****** ****** ****** ****** ****** ****** ****** ****** ****** ******
      ****** ****** ****** ****** ****** ****** ****** ****** ****** ******
  11  ****** ****** ****** ****** ****** ****** ****** ****** ****** ******
      ****** ****** ****** ****** ****** ****** ****** ****** ****** ******
      ****** ****** ****** ****** ****** ****** ****** ****** ****** ******
  12  ****** ****** ****** ****** ****** ****** ****** ****** ****** ******
      ****** ****** ****** ****** ****** ****** ****** ****** ****** ******
      ****** ****** ****** ****** ****** ****** ****** ****** ****** ******
  13  ****** ****** ****** ****** ****** ****** ****** ****** ****** ******
      ****** ****** ****** ****** ****** ****** ****** ****** ****** ******
      ****** ****** ****** ****** ****** ****** ****** ****** ****** ******
  14  ****** ****** ****** ****** ****** ****** ****** ****** ****** ******
      ****** ****** ****** ****** ****** ****** ****** ****** ****** ******
      ****** ****** ****** ****** ****** ****** ****** ****** ****** ******
  15  ****** ****** ****** ****** ****** ****** ****** ****** ****** ******
      ****** ****** ****** ****** ****** ****** ****** ****** ****** ******
      ****** ****** ****** ****** ****** ****** ****** ****** ****** ******
  16  ****** ****** ****** ****** ****** ****** ****** ****** ****** ******
      ****** ****** ****** ****** ****** ****** ****** ****** ****** ******
      ****** ****** ****** ****** ****** ****** ****** ****** ****** ******
  17  ****** ****** ****** ****** ****** ****** ****** ****** ****** ******
      ****** ****** ****** ****** ****** ****** ****** ****** ****** ******
      ****** ****** ****** ****** ****** ****** ****** ****** ****** ******
  18  ****** ****** ****** ****** ****** ****** ****** ****** ****** ******
      ****** ****** ****** ****** ****** ****** ****** ****** ****** ******
      ****** ****** ****** ****** ****** ****** ****** ****** ****** ******
  19  ****** ****** ****** ****** ****** ****** ****** ****** ****** ******
      ****** ****** ****** ****** ****** ****** ****** ****** ****** ******
      ****** ****** ****** ****** ****** ****** ****** ****** ****** ******
  20  ****** ****** ****** ****** ****** ****** ****** ****** ****** ******
      ****** ****** ****** ****** ****** ****** ****** ****** ****** ******
      ****** ****** ****** ****** ****** ****** ****** ****** ****** ******
  21  ****** ****** ****** ****** ****** ****** ****** ****** ****** ******
      ****** ****** ****** ****** ****** ****** ****** ****** ****** ******
      ****** ****** ****** ****** ****** ****** ****** ****** ****** ******
  22  ****** ****** ****** ****** ****** ****** ****** ****** ****** ******
      ****** ****** ****** ****** ****** ****** ****** ****** ****** ******
      ****** ****** ****** ****** ****** ****** ****** ****** ****** ******
  23  ****** ****** ****** ****** ****** ****** ****** ****** ****** ******
      ****** ****** ****** ****** ****** ****** ****** ****** ****** ******
      ****** ****** ****** ****** ****** ****** ****** ****** ****** ******
  24  ****** ****** ****** ****** ****** ****** ****** ****** ****** ******
      ****** ****** ****** ****** ****** ****** ****** ****** ****** ******
      ****** ****** ****** ****** ****** ****** ****** ****** ****** ******
  25  ****** ****** ****** ****** ****** ****** ****** ****** ****** ******
      ****** ****** ****** ****** ****** ****** ****** ****** ****** ******
      ****** ****** ****** ****** ****** ****** ****** ****** ****** ******

 HEAD WILL BE SAVED ON UNIT   51 AT END OF TIME STEP    1, STRESS PERIOD    7
1
  VOLUMETRIC BUDGET FOR ENTIRE MODEL AT END OF TIME STEP    1, STRESS PERIOD   7
  ------------------------------------------------------------------------------

     CUMULATIVE VOLUMES      L**3       RATES FOR THIS TIME STEP      L**3/T
     ------------------                 ------------------------

           IN:                                      IN:
           ---                                      ---
             STORAGE =    25246734.6637               STORAGE =        8916.8077
       CONSTANT HEAD =   103274870.7153         CONSTANT HEAD =      172629.9692
               WELLS =           0.0000                 WELLS =           0.0000
            RECHARGE =    15097200.0000              RECHARGE =           0.0000
      STREAM LEAKAGE =     4135365.1707        STREAM LEAKAGE =        6892.9263

            TOTAL IN =   147754170.5497              TOTAL IN =      188439.7032

          OUT:                                     OUT:
          ----                                     ----
             STORAGE =     1045020.6587               STORAGE =        1215.2020
       CONSTANT HEAD =           0.0000         CONSTANT HEAD =           0.0000
               WELLS =    54335397.1789                 WELLS =       74349.0996
            RECHARGE =           0.0000              RECHARGE =           0.0000
      STREAM LEAKAGE =    92373753.5744        STREAM LEAKAGE =      112875.4037

           TOTAL OUT =   147754171.4121             TOTAL OUT =      188439.7053

            IN - OUT =          -0.8624              IN - OUT =      -2.0766E-03

 PERCENT DISCREPANCY =          -0.00     PERCENT DISCREPANCY =          -0.00






         TIME SUMMARY AT END OF TIME STEP    1 IN STRESS PERIOD    7
                    SECONDS     MINUTES      HOURS       DAYS        YEARS
                    -----------------------------------------------------------
   TIME STEP LENGTH 7.86240E+06 1.31040E+05  2184.0      91.000     0.24914    
 STRESS PERIOD TIME 7.86240E+06 1.31040E+05  2184.0      91.000     0.24914    
         TOTAL TIME 5.52096E+07 9.20160E+05  15336.      639.00      1.7495    
1
1
                            STRESS PERIOD NO.    8, LENGTH =   91.00000    
                            -----------------------------------------------

                              NUMBER OF TIME STEPS =     1

                               MULTIPLIER FOR DELT =     1.500

                            INITIAL TIME STEP SIZE =   91.00000    

 WELL NO.  LAYER   ROW   COL   STRESS RATE         
 --------------------------------------------------
      1      1      5     14     -0.2088E+05
      2      1      4     17     -0.2248E+05
      3      1      3     26     -0.3099E+05

      3 WELLS

                 RECHARGE =  1.000000E-03

 REUSING STREAM SEGMENT DATA FROM LAST STRESS PERIOD
 
 SOLVING FOR HEAD 


     6 CALLS TO PCG ROUTINE FOR TIME STEP   1 IN STRESS PERIOD    8
    23 TOTAL ITERATIONS

 OUTPUT CONTROL FOR STRESS PERIOD    8   TIME STEP    1
    SAVE BUDGET
    SAVE HEAD FOR ALL LAYERS
    PRINT HEAD FOR ALL LAYERS
 UBDSV2 SAVING "STREAMFLOW OUT  " ON UNIT  50 AT TIME STEP  1, STRESS PERIOD   8



 STREAM LISTING     PERIOD      8   STEP        1

 LAYER ROW COL. STREAM  RCH.  FLOW INTO     FLOW TO   FLOW OUT OF   OVRLND.     DIRECT     STREAM       STREAM     STREAM     STREAM   STREAMBED  STREAMBED
                SEG.NO.  NO.  STRM. RCH.    AQUIFER    STRM. RCH.    RUNOFF     PRECIP       ET          HEAD       DEPTH      WIDTH   CONDCTNC.   GRADIENT

   1   13    1     1     1    1.0000E+05 -2.6514E+03   1.0265E+05  0.000E+00  0.000E+00  0.000E+00  4.84072E+01  1.458E-01  2.000E+01  2.000E+04 -1.326E-01
   1   13    2     1     2    1.0265E+05 -4.4050E+03   1.0706E+05  0.000E+00  0.000E+00  0.000E+00  4.79329E+01  1.488E-01  2.000E+01  2.000E+04 -2.203E-01
   1   14    3     1     3    1.0706E+05 -3.5751E+03   1.1063E+05  0.000E+00  0.000E+00  0.000E+00  4.74590E+01  1.522E-01  2.000E+01  2.000E+04 -1.788E-01
   1   15    4     1     4    1.1063E+05 -3.5417E+03   1.1417E+05  0.000E+00  0.000E+00  0.000E+00  4.69847E+01  1.552E-01  2.000E+01  2.000E+04 -1.771E-01
   1   16    5     1     5    1.1417E+05 -4.0094E+03   1.1818E+05  0.000E+00  0.000E+00  0.000E+00  4.65105E+01  1.583E-01  2.000E+01  2.000E+04 -2.005E-01
   1   16    6     1     6    1.1818E+05 -3.0976E+03   1.2128E+05  0.000E+00  0.000E+00  0.000E+00  4.60362E+01  1.612E-01  2.000E+01  2.000E+04 -1.549E-01
   1   16    7     1     7    1.2128E+05 -3.1292E+03   1.2441E+05  0.000E+00  0.000E+00  0.000E+00  4.55614E+01  1.637E-01  2.000E+01  2.000E+04 -1.565E-01
   1   16    8     1     8    1.2441E+05 -3.1432E+03   1.2755E+05  0.000E+00  0.000E+00  0.000E+00  4.50866E+01  1.662E-01  2.000E+01  2.000E+04 -1.572E-01
   1   16    9     1     9    1.2755E+05 -3.1275E+03   1.3068E+05  0.000E+00  0.000E+00  0.000E+00  4.46118E+01  1.686E-01  2.000E+01  2.000E+04 -1.564E-01
   1   16   10     1    10    1.3068E+05 -3.0918E+03   1.3377E+05  0.000E+00  0.000E+00  0.000E+00  4.41370E+01  1.710E-01  2.000E+01  2.000E+04 -1.546E-01
   1   16   11     1    11    1.3377E+05 -3.0756E+03   1.3685E+05  0.000E+00  0.000E+00  0.000E+00  4.36621E+01  1.734E-01  2.000E+01  2.000E+04 -1.538E-01
   1   16   12     1    12    1.3685E+05 -4.2328E+03   1.4108E+05  0.000E+00  0.000E+00  0.000E+00  4.31876E+01  1.762E-01  2.000E+01  2.000E+04 -2.116E-01
   1   15   13     1    13    1.4108E+05 -3.6108E+03   1.4469E+05  0.000E+00  0.000E+00  0.000E+00  4.27133E+01  1.792E-01  2.000E+01  2.000E+04 -1.805E-01
   1   14   14     1    14    1.4469E+05 -3.3894E+03   1.4808E+05  0.000E+00  0.000E+00  0.000E+00  4.22386E+01  1.818E-01  2.000E+01  2.000E+04 -1.695E-01
   1   13   15     1    15    1.4808E+05 -3.2661E+03   1.5135E+05  0.000E+00  0.000E+00  0.000E+00  4.17638E+01  1.843E-01  2.000E+01  2.000E+04 -1.633E-01
   1   12   16     1    16    1.5135E+05 -3.5193E+03   1.5487E+05  0.000E+00  0.000E+00  0.000E+00  4.12890E+01  1.868E-01  2.000E+01  2.000E+04 -1.760E-01
   1   12   17     1    17    1.5487E+05 -2.4423E+03   1.5731E+05  0.000E+00  0.000E+00  0.000E+00  4.08139E+01  1.889E-01  2.000E+01  2.000E+04 -1.221E-01
   1   12   18     1    18    1.5731E+05 -2.4190E+03   1.5973E+05  0.000E+00  0.000E+00  0.000E+00  4.03384E+01  1.907E-01  2.000E+01  2.000E+04 -1.210E-01
   1   12   19     1    19    1.5973E+05 -3.1652E+03   1.6289E+05  0.000E+00  0.000E+00  0.000E+00  3.98632E+01  1.927E-01  2.000E+01  2.000E+04 -1.583E-01
   1   13   20     1    20    1.6289E+05 -2.5644E+03   1.6546E+05  0.000E+00  0.000E+00  0.000E+00  3.93879E+01  1.948E-01  2.000E+01  2.000E+04 -1.282E-01
   1   14   21     1    21    1.6546E+05 -2.2850E+03   1.6774E+05  0.000E+00  0.000E+00  0.000E+00  3.89124E+01  1.965E-01  2.000E+01  2.000E+04 -1.142E-01
   1   14   22     1    22    1.6774E+05  5.1062E+03   1.6264E+05  0.000E+00  0.000E+00  0.000E+00  3.84341E+01  1.955E-01  2.000E+01  2.000E+04  2.553E-01
   1    9   30     2     1    5.0000E+04 -1.9158E+03   5.1916E+04  0.000E+00  0.000E+00  0.000E+00  4.02422E+01  1.172E-01  2.000E+01  2.000E+04 -9.579E-02
   1    9   29     2     2    5.1916E+04 -2.1795E+03   5.4095E+04  0.000E+00  0.000E+00  0.000E+00  3.99950E+01  1.200E-01  2.000E+01  2.000E+04 -1.090E-01
   1    9   28     2     3    5.4095E+04 -2.4085E+03   5.6504E+04  0.000E+00  0.000E+00  0.000E+00  3.97481E+01  1.231E-01  2.000E+01  2.000E+04 -1.204E-01
   1    9   27     2     4    5.6504E+04 -4.2770E+03   6.0781E+04  0.000E+00  0.000E+00  0.000E+00  3.95025E+01  1.275E-01  2.000E+01  2.000E+04 -2.138E-01
   1   10   26     2     5    6.0781E+04 -2.5951E+03   6.3376E+04  0.000E+00  0.000E+00  0.000E+00  3.92569E+01  1.319E-01  2.000E+01  2.000E+04 -1.298E-01
   1   11   25     2     6    6.3376E+04 -1.8529E+03   6.5229E+04  0.000E+00  0.000E+00  0.000E+00  3.90097E+01  1.347E-01  2.000E+01  2.000E+04 -9.265E-02
   1   12   24     2     7    6.5229E+04 -1.2451E+03   6.6474E+04  0.000E+00  0.000E+00  0.000E+00  3.87617E+01  1.367E-01  2.000E+01  2.000E+04 -6.225E-02
   1   13   23     2     8    6.6474E+04 -6.9186E+02   6.7166E+04  0.000E+00  0.000E+00  0.000E+00  3.85129E+01  1.379E-01  2.000E+01  2.000E+04 -3.459E-02
   1   14   22     2     9    6.7166E+04  1.6694E+03   6.5496E+04  0.000E+00  0.000E+00  0.000E+00  3.82623E+01  1.373E-01  2.000E+01  2.000E+04  8.347E-02
   1   14   22     3     1    2.2813E+05 -8.4836E+03   2.3662E+05  0.000E+00  0.000E+00  0.000E+00  3.77546E+01  1.991E-01  2.000E+01  2.000E+04 -4.242E-01
   1   15   23     3     2    2.3662E+05 -3.1437E+03   2.3976E+05  0.000E+00  0.000E+00  0.000E+00  3.68687E+01  2.020E-01  2.000E+01  2.000E+04 -1.572E-01
   1   15   24     3     3    2.3976E+05 -2.1502E+03   2.4191E+05  0.000E+00  0.000E+00  0.000E+00  3.59812E+01  2.034E-01  2.000E+01  2.000E+04 -1.075E-01
   1   15   25     3     4    2.4191E+05 -2.0152E+03   2.4392E+05  0.000E+00  0.000E+00  0.000E+00  3.50933E+01  2.044E-01  2.000E+01  2.000E+04 -1.008E-01
   1   15   26     3     5    2.4392E+05 -2.3633E+03   2.4629E+05  0.000E+00  0.000E+00  0.000E+00  3.42055E+01  2.055E-01  2.000E+01  2.000E+04 -1.182E-01
   1   16   27     3     6    2.4629E+05 -3.3451E+03   2.4963E+05  0.000E+00  0.000E+00  0.000E+00  3.33181E+01  2.070E-01  2.000E+01  2.000E+04 -1.673E-01
   1   17   28     3     7    2.4963E+05 -4.1731E+03   2.5381E+05  0.000E+00  0.000E+00  0.000E+00  3.24311E+01  2.089E-01  2.000E+01  2.000E+04 -2.087E-01
   1   18   29     3     8    2.5381E+05 -5.8506E+03   2.5966E+05  0.000E+00  0.000E+00  0.000E+00  3.15447E+01  2.113E-01  2.000E+01  2.000E+04 -2.925E-01
   1   18   30     3     9    2.5966E+05 -4.8620E+03   2.6452E+05  0.000E+00  0.000E+00  0.000E+00  3.06584E+01  2.140E-01  2.000E+01  2.000E+04 -2.431E-01



1
              HEAD IN LAYER   1 AT END OF TIME STEP   1 IN STRESS PERIOD    8
  ---------------------------------------------------------------------------

          1      2      3      4      5      6      7      8      9     10
         11     12     13     14     15     16     17     18     19     20
         21     22     23     24     25     26     27     28     29     30
 .........................................................................
   1  ****** ****** ****** ****** ****** ****** ****** ****** ****** ******
      ****** ****** ****** ****** ****** ****** ****** ****** ****** ******
      ****** ****** ****** ****** ****** ****** ****** ****** ****** ******
   2  ****** ****** ****** ****** ****** ****** ****** ****** ****** ******
      ****** ****** ****** ****** ****** ****** ****** ****** ****** ******
      ****** ****** ****** ****** ****** ****** ****** ****** ****** ******
   3  ****** ****** ****** ****** ****** ****** ****** ****** ****** ******
      ****** ****** ****** ****** ****** ****** ****** ****** ****** ******
      ****** ****** ****** ****** ****** ****** ****** ****** ****** ******
   4  ****** ****** ****** ****** ****** ****** ****** ****** ****** ******
      ****** ****** ****** ****** ****** ****** ****** ****** ****** ******
      ****** ****** ****** ****** ****** ****** ****** ****** ****** ******
   5  ****** ****** ****** ****** ****** ****** ****** ****** ****** ******
      ****** ****** ****** ****** ****** ****** ****** ****** ****** ******
      ****** ****** ****** ****** ****** ****** ****** ****** ****** ******
   6  ****** ****** ****** ****** ****** ****** ****** ****** ****** ******
      ****** ****** ****** ****** ****** ****** ****** ****** ****** ******
      ****** ****** ****** ****** ****** ****** ****** ****** ****** ******
   7  ****** ****** ****** ****** ****** ****** ****** ****** ****** ******
      ****** ****** ****** ****** ****** ****** ****** ****** ****** ******
      ****** ****** ****** ****** ****** ****** ****** ****** ****** ******
   8  ****** ****** ****** ****** ****** ****** ****** ****** ****** ******
      ****** ****** ****** ****** ****** ****** ****** ****** ****** ******
      ****** ****** ****** ****** ****** ****** ****** ****** ****** ******
   9  ****** ****** ****** ****** ****** ****** ****** ****** ****** ******
      ****** ****** ****** ****** ****** ****** ****** ****** ****** ******
      ****** ****** ****** ****** ****** ****** ****** ****** ****** ******
  10  ****** ****** ****** ****** ****** ****** ****** ****** ****** ******
      ****** ****** ****** ****** ****** ****** ****** ****** ****** ******
      ****** ****** ****** ****** ****** ****** ****** ****** ****** ******
  11  ****** ****** ****** ****** ****** ****** ****** ****** ****** ******
      ****** ****** ****** ****** ****** ****** ****** ****** ****** ******
      ****** ****** ****** ****** ****** ****** ****** ****** ****** ******
  12  ****** ****** ****** ****** ****** ****** ****** ****** ****** ******
      ****** ****** ****** ****** ****** ****** ****** ****** ****** ******
      ****** ****** ****** ****** ****** ****** ****** ****** ****** ******
  13  ****** ****** ****** ****** ****** ****** ****** ****** ****** ******
      ****** ****** ****** ****** ****** ****** ****** ****** ****** ******
      ****** ****** ****** ****** ****** ****** ****** ****** ****** ******
  14  ****** ****** ****** ****** ****** ****** ****** ****** ****** ******
      ****** ****** ****** ****** ****** ****** ****** ****** ****** ******
      ****** ****** ****** ****** ****** ****** ****** ****** ****** ******
  15  ****** ****** ****** ****** ****** ****** ****** ****** ****** ******
      ****** ****** ****** ****** ****** ****** ****** ****** ****** ******
      ****** ****** ****** ****** ****** ****** ****** ****** ****** ******
  16  ****** ****** ****** ****** ****** ****** ****** ****** ****** ******
      ****** ****** ****** ****** ****** ****** ****** ****** ****** ******
      ****** ****** ****** ****** ****** ****** ****** ****** ****** ******
  17  ****** ****** ****** ****** ****** ****** ****** ****** ****** ******
      ****** ****** ****** ****** ****** ****** ****** ****** ****** ******
      ****** ****** ****** ****** ****** ****** ****** ****** ****** ******
  18  ****** ****** ****** ****** ****** ****** ****** ****** ****** ******
      ****** ****** ****** ****** ****** ****** ****** ****** ****** ******
      ****** ****** ****** ****** ****** ****** ****** ****** ****** ******
  19  ****** ****** ****** ****** ****** ****** ****** ****** ****** ******
      ****** ****** ****** ****** ****** ****** ****** ****** ****** ******
      ****** ****** ****** ****** ****** ****** ****** ****** ****** ******
  20  ****** ****** ****** ****** ****** ****** ****** ****** ****** ******
      ****** ****** ****** ****** ****** ****** ****** ****** ****** ******
      ****** ****** ****** ****** ****** ****** ****** ****** ****** ******
  21  ****** ****** ****** ****** ****** ****** ****** ****** ****** ******
      ****** ****** ****** ****** ****** ****** ****** ****** ****** ******
      ****** ****** ****** ****** ****** ****** ****** ****** ****** ******
  22  ****** ****** ****** ****** ****** ****** ****** ****** ****** ******
      ****** ****** ****** ****** ****** ****** ****** ****** ****** ******
      ****** ****** ****** ****** ****** ****** ****** ****** ****** ******
  23  ****** ****** ****** ****** ****** ****** ****** ****** ****** ******
      ****** ****** ****** ****** ****** ****** ****** ****** ****** ******
      ****** ****** ****** ****** ****** ****** ****** ****** ****** ******
  24  ****** ****** ****** ****** ****** ****** ****** ****** ****** ******
      ****** ****** ****** ****** ****** ****** ****** ****** ****** ******
      ****** ****** ****** ****** ****** ****** ****** ****** ****** ******
  25  ****** ****** ****** ****** ****** ****** ****** ****** ****** ******
      ****** ****** ****** ****** ****** ****** ****** ****** ****** ******
      ****** ****** ****** ****** ****** ****** ****** ****** ****** ******

 HEAD WILL BE SAVED ON UNIT   51 AT END OF TIME STEP    1, STRESS PERIOD    8
1
  VOLUMETRIC BUDGET FOR ENTIRE MODEL AT END OF TIME STEP    1, STRESS PERIOD   8
  ------------------------------------------------------------------------------

     CUMULATIVE VOLUMES      L**3       RATES FOR THIS TIME STEP      L**3/T
     ------------------                 ------------------------

           IN:                                      IN:
           ---                                      ---
             STORAGE =    25246734.6637               STORAGE =           0.0000
       CONSTANT HEAD =   118430194.2772         CONSTANT HEAD =      166542.0172
               WELLS =           0.0000                 WELLS =           0.0000
            RECHARGE =    17608800.0000              RECHARGE =       27600.0000
      STREAM LEAKAGE =     4751943.7895        STREAM LEAKAGE =        6775.5892

            TOTAL IN =   166037672.7303              TOTAL IN =      200917.6064

          OUT:                                     OUT:
          ----                                     ----
             STORAGE =     1524954.0410               STORAGE =        5273.9932
       CONSTANT HEAD =           0.0000         CONSTANT HEAD =           0.0000
               WELLS =    61101165.2388                 WELLS =       74349.0996
            RECHARGE =           0.0000              RECHARGE =           0.0000
      STREAM LEAKAGE =   103411554.2311        STREAM LEAKAGE =      121294.5127

           TOTAL OUT =   166037673.5109             TOTAL OUT =      200917.6055

            IN - OUT =          -0.7805              IN - OUT =       8.9911E-04

 PERCENT DISCREPANCY =          -0.00     PERCENT DISCREPANCY =           0.00






         TIME SUMMARY AT END OF TIME STEP    1 IN STRESS PERIOD    8
                    SECONDS     MINUTES      HOURS       DAYS        YEARS
                    -----------------------------------------------------------
   TIME STEP LENGTH 7.86240E+06 1.31040E+05  2184.0      91.000     0.24914    
 STRESS PERIOD TIME 7.86240E+06 1.31040E+05  2184.0      91.000     0.24914    
         TOTAL TIME 6.30720E+07 1.05120E+06  17520.      730.00      1.9986    
1
1
                            STRESS PERIOD NO.    9, LENGTH =   92.00000    
                            -----------------------------------------------

                              NUMBER OF TIME STEPS =     1

                               MULTIPLIER FOR DELT =     1.500

                            INITIAL TIME STEP SIZE =   92.00000    

 WELL NO.  LAYER   ROW   COL   STRESS RATE         
 --------------------------------------------------
      1      1      5     14     -0.2088E+05
      2      1      4     17     -0.2248E+05
      3      1      3     26     -0.3099E+05

      3 WELLS

                 RECHARGE =  5.000000E-04

 REUSING STREAM SEGMENT DATA FROM LAST STRESS PERIOD
 
 SOLVING FOR HEAD 


     6 CALLS TO PCG ROUTINE FOR TIME STEP   1 IN STRESS PERIOD    9
    22 TOTAL ITERATIONS

 OUTPUT CONTROL FOR STRESS PERIOD    9   TIME STEP    1
    SAVE BUDGET
    SAVE HEAD FOR ALL LAYERS
    PRINT HEAD FOR ALL LAYERS
 UBDSV2 SAVING "STREAMFLOW OUT  " ON UNIT  50 AT TIME STEP  1, STRESS PERIOD   9



 STREAM LISTING     PERIOD      9   STEP        1

 LAYER ROW COL. STREAM  RCH.  FLOW INTO     FLOW TO   FLOW OUT OF   OVRLND.     DIRECT     STREAM       STREAM     STREAM     STREAM   STREAMBED  STREAMBED
                SEG.NO.  NO.  STRM. RCH.    AQUIFER    STRM. RCH.    RUNOFF     PRECIP       ET          HEAD       DEPTH      WIDTH   CONDCTNC.   GRADIENT

   1   13    1     1     1    1.0000E+05 -2.5450E+03   1.0255E+05  0.000E+00  0.000E+00  0.000E+00  4.84071E+01  1.458E-01  2.000E+01  2.000E+04 -1.273E-01
   1   13    2     1     2    1.0255E+05 -4.2694E+03   1.0681E+05  0.000E+00  0.000E+00  0.000E+00  4.79328E+01  1.487E-01  2.000E+01  2.000E+04 -2.135E-01
   1   14    3     1     3    1.0681E+05 -3.4329E+03   1.1025E+05  0.000E+00  0.000E+00  0.000E+00  4.74588E+01  1.519E-01  2.000E+01  2.000E+04 -1.716E-01
   1   15    4     1     4    1.1025E+05 -3.3996E+03   1.1365E+05  0.000E+00  0.000E+00  0.000E+00  4.69843E+01  1.548E-01  2.000E+01  2.000E+04 -1.700E-01
   1   16    5     1     5    1.1365E+05 -3.8764E+03   1.1752E+05  0.000E+00  0.000E+00  0.000E+00  4.65101E+01  1.578E-01  2.000E+01  2.000E+04 -1.938E-01
   1   16    6     1     6    1.1752E+05 -2.9937E+03   1.2052E+05  0.000E+00  0.000E+00  0.000E+00  4.60356E+01  1.606E-01  2.000E+01  2.000E+04 -1.497E-01
   1   16    7     1     7    1.2052E+05 -3.0249E+03   1.2354E+05  0.000E+00  0.000E+00  0.000E+00  4.55607E+01  1.630E-01  2.000E+01  2.000E+04 -1.512E-01
   1   16    8     1     8    1.2354E+05 -3.0390E+03   1.2658E+05  0.000E+00  0.000E+00  0.000E+00  4.50859E+01  1.654E-01  2.000E+01  2.000E+04 -1.519E-01
   1   16    9     1     9    1.2658E+05 -3.0240E+03   1.2960E+05  0.000E+00  0.000E+00  0.000E+00  4.46110E+01  1.678E-01  2.000E+01  2.000E+04 -1.512E-01
   1   16   10     1    10    1.2960E+05 -2.9894E+03   1.3259E+05  0.000E+00  0.000E+00  0.000E+00  4.41361E+01  1.702E-01  2.000E+01  2.000E+04 -1.495E-01
   1   16   11     1    11    1.3259E+05 -2.9741E+03   1.3557E+05  0.000E+00  0.000E+00  0.000E+00  4.36611E+01  1.725E-01  2.000E+01  2.000E+04 -1.487E-01
   1   16   12     1    12    1.3557E+05 -4.1001E+03   1.3967E+05  0.000E+00  0.000E+00  0.000E+00  4.31866E+01  1.752E-01  2.000E+01  2.000E+04 -2.050E-01
   1   15   13     1    13    1.3967E+05 -3.4728E+03   1.4314E+05  0.000E+00  0.000E+00  0.000E+00  4.27122E+01  1.781E-01  2.000E+01  2.000E+04 -1.736E-01
   1   14   14     1    14    1.4314E+05 -3.2550E+03   1.4640E+05  0.000E+00  0.000E+00  0.000E+00  4.22374E+01  1.806E-01  2.000E+01  2.000E+04 -1.628E-01
   1   13   15     1    15    1.4640E+05 -3.1423E+03   1.4954E+05  0.000E+00  0.000E+00  0.000E+00  4.17625E+01  1.830E-01  2.000E+01  2.000E+04 -1.571E-01
   1   12   16     1    16    1.4954E+05 -3.4208E+03   1.5296E+05  0.000E+00  0.000E+00  0.000E+00  4.12877E+01  1.854E-01  2.000E+01  2.000E+04 -1.710E-01
   1   12   17     1    17    1.5296E+05 -2.3608E+03   1.5532E+05  0.000E+00  0.000E+00  0.000E+00  4.08125E+01  1.875E-01  2.000E+01  2.000E+04 -1.180E-01
   1   12   18     1    18    1.5532E+05 -2.3370E+03   1.5766E+05  0.000E+00  0.000E+00  0.000E+00  4.03370E+01  1.892E-01  2.000E+01  2.000E+04 -1.168E-01
   1   12   19     1    19    1.5766E+05 -3.0676E+03   1.6072E+05  0.000E+00  0.000E+00  0.000E+00  3.98616E+01  1.912E-01  2.000E+01  2.000E+04 -1.534E-01
   1   13   20     1    20    1.6072E+05 -2.4494E+03   1.6317E+05  0.000E+00  0.000E+00  0.000E+00  3.93864E+01  1.932E-01  2.000E+01  2.000E+04 -1.225E-01
   1   14   21     1    21    1.6317E+05 -2.1720E+03   1.6535E+05  0.000E+00  0.000E+00  0.000E+00  3.89107E+01  1.948E-01  2.000E+01  2.000E+04 -1.086E-01
   1   14   22     1    22    1.6535E+05  5.1290E+03   1.6022E+05  0.000E+00  0.000E+00  0.000E+00  3.84324E+01  1.938E-01  2.000E+01  2.000E+04  2.564E-01
   1    9   30     2     1    5.0000E+04 -1.8249E+03   5.1825E+04  0.000E+00  0.000E+00  0.000E+00  4.02421E+01  1.171E-01  2.000E+01  2.000E+04 -9.125E-02
   1    9   29     2     2    5.1825E+04 -2.0899E+03   5.3915E+04  0.000E+00  0.000E+00  0.000E+00  3.99948E+01  1.198E-01  2.000E+01  2.000E+04 -1.045E-01
   1    9   28     2     3    5.3915E+04 -2.3213E+03   5.6236E+04  0.000E+00  0.000E+00  0.000E+00  3.97478E+01  1.228E-01  2.000E+01  2.000E+04 -1.161E-01
   1    9   27     2     4    5.6236E+04 -4.1711E+03   6.0407E+04  0.000E+00  0.000E+00  0.000E+00  3.95021E+01  1.271E-01  2.000E+01  2.000E+04 -2.086E-01
   1   10   26     2     5    6.0407E+04 -2.4791E+03   6.2886E+04  0.000E+00  0.000E+00  0.000E+00  3.92564E+01  1.314E-01  2.000E+01  2.000E+04 -1.240E-01
   1   11   25     2     6    6.2886E+04 -1.7401E+03   6.4626E+04  0.000E+00  0.000E+00  0.000E+00  3.90091E+01  1.341E-01  2.000E+01  2.000E+04 -8.701E-02
   1   12   24     2     7    6.4626E+04 -1.1430E+03   6.5769E+04  0.000E+00  0.000E+00  0.000E+00  3.87609E+01  1.359E-01  2.000E+01  2.000E+04 -5.715E-02
   1   13   23     2     8    6.5769E+04 -6.0879E+02   6.6378E+04  0.000E+00  0.000E+00  0.000E+00  3.85120E+01  1.370E-01  2.000E+01  2.000E+04 -3.044E-02
   1   14   22     2     9    6.6378E+04  1.7064E+03   6.4672E+04  0.000E+00  0.000E+00  0.000E+00  3.82613E+01  1.363E-01  2.000E+01  2.000E+04  8.532E-02
   1   14   22     3     1    2.2489E+05 -8.4601E+03   2.3335E+05  0.000E+00  0.000E+00  0.000E+00  3.77530E+01  1.974E-01  2.000E+01  2.000E+04 -4.230E-01
   1   15   23     3     2    2.3335E+05 -3.0343E+03   2.3638E+05  0.000E+00  0.000E+00  0.000E+00  3.68670E+01  2.004E-01  2.000E+01  2.000E+04 -1.517E-01
   1   15   24     3     3    2.3638E+05 -2.0687E+03   2.3845E+05  0.000E+00  0.000E+00  0.000E+00  3.59794E+01  2.017E-01  2.000E+01  2.000E+04 -1.034E-01
   1   15   25     3     4    2.3845E+05 -1.9329E+03   2.4038E+05  0.000E+00  0.000E+00  0.000E+00  3.50916E+01  2.027E-01  2.000E+01  2.000E+04 -9.664E-02
   1   15   26     3     5    2.4038E+05 -2.2580E+03   2.4264E+05  0.000E+00  0.000E+00  0.000E+00  3.42037E+01  2.037E-01  2.000E+01  2.000E+04 -1.129E-01
   1   16   27     3     6    2.4264E+05 -3.2152E+03   2.4586E+05  0.000E+00  0.000E+00  0.000E+00  3.33162E+01  2.051E-01  2.000E+01  2.000E+04 -1.608E-01
   1   17   28     3     7    2.4586E+05 -4.0410E+03   2.4990E+05  0.000E+00  0.000E+00  0.000E+00  3.24292E+01  2.069E-01  2.000E+01  2.000E+04 -2.020E-01
   1   18   29     3     8    2.4990E+05 -5.7278E+03   2.5563E+05  0.000E+00  0.000E+00  0.000E+00  3.15427E+01  2.094E-01  2.000E+01  2.000E+04 -2.864E-01
   1   18   30     3     9    2.5563E+05 -4.7679E+03   2.6039E+05  0.000E+00  0.000E+00  0.000E+00  3.06564E+01  2.120E-01  2.000E+01  2.000E+04 -2.384E-01



1
              HEAD IN LAYER   1 AT END OF TIME STEP   1 IN STRESS PERIOD    9
  ---------------------------------------------------------------------------

          1      2      3      4      5      6      7      8      9     10
         11     12     13     14     15     16     17     18     19     20
         21     22     23     24     25     26     27     28     29     30
 .........................................................................
   1  ****** ****** ****** ****** ****** ****** ****** ****** ****** ******
      ****** ****** ****** ****** ****** ****** ****** ****** ****** ******
      ****** ****** ****** ****** ****** ****** ****** ****** ****** ******
   2  ****** ****** ****** ****** ****** ****** ****** ****** ****** ******
      ****** ****** ****** ****** ****** ****** ****** ****** ****** ******
      ****** ****** ****** ****** ****** ****** ****** ****** ****** ******
   3  ****** ****** ****** ****** ****** ****** ****** ****** ****** ******
      ****** ****** ****** ****** ****** ****** ****** ****** ****** ******
      ****** ****** ****** ****** ****** ****** ****** ****** ****** ******
   4  ****** ****** ****** ****** ****** ****** ****** ****** ****** ******
      ****** ****** ****** ****** ****** ****** ****** ****** ****** ******
      ****** ****** ****** ****** ****** ****** ****** ****** ****** ******
   5  ****** ****** ****** ****** ****** ****** ****** ****** ****** ******
      ****** ****** ****** ****** ****** ****** ****** ****** ****** ******
      ****** ****** ****** ****** ****** ****** ****** ****** ****** ******
   6  ****** ****** ****** ****** ****** ****** ****** ****** ****** ******
      ****** ****** ****** ****** ****** ****** ****** ****** ****** ******
      ****** ****** ****** ****** ****** ****** ****** ****** ****** ******
   7  ****** ****** ****** ****** ****** ****** ****** ****** ****** ******
      ****** ****** ****** ****** ****** ****** ****** ****** ****** ******
      ****** ****** ****** ****** ****** ****** ****** ****** ****** ******
   8  ****** ****** ****** ****** ****** ****** ****** ****** ****** ******
      ****** ****** ****** ****** ****** ****** ****** ****** ****** ******
      ****** ****** ****** ****** ****** ****** ****** ****** ****** ******
   9  ****** ****** ****** ****** ****** ****** ****** ****** ****** ******
      ****** ****** ****** ****** ****** ****** ****** ****** ****** ******
      ****** ****** ****** ****** ****** ****** ****** ****** ****** ******
  10  ****** ****** ****** ****** ****** ****** ****** ****** ****** ******
      ****** ****** ****** ****** ****** ****** ****** ****** ****** ******
      ****** ****** ****** ****** ****** ****** ****** ****** ****** ******
  11  ****** ****** ****** ****** ****** ****** ****** ****** ****** ******
      ****** ****** ****** ****** ****** ****** ****** ****** ****** ******
      ****** ****** ****** ****** ****** ****** ****** ****** ****** ******
  12  ****** ****** ****** ****** ****** ****** ****** ****** ****** ******
      ****** ****** ****** ****** ****** ****** ****** ****** ****** ******
      ****** ****** ****** ****** ****** ****** ****** ****** ****** ******
  13  ****** ****** ****** ****** ****** ****** ****** ****** ****** ******
      ****** ****** ****** ****** ****** ****** ****** ****** ****** ******
      ****** ****** ****** ****** ****** ****** ****** ****** ****** ******
  14  ****** ****** ****** ****** ****** ****** ****** ****** ****** ******
      ****** ****** ****** ****** ****** ****** ****** ****** ****** ******
      ****** ****** ****** ****** ****** ****** ****** ****** ****** ******
  15  ****** ****** ****** ****** ****** ****** ****** ****** ****** ******
      ****** ****** ****** ****** ****** ****** ****** ****** ****** ******
      ****** ****** ****** ****** ****** ****** ****** ****** ****** ******
  16  ****** ****** ****** ****** ****** ****** ****** ****** ****** ******
      ****** ****** ****** ****** ****** ****** ****** ****** ****** ******
      ****** ****** ****** ****** ****** ****** ****** ****** ****** ******
  17  ****** ****** ****** ****** ****** ****** ****** ****** ****** ******
      ****** ****** ****** ****** ****** ****** ****** ****** ****** ******
      ****** ****** ****** ****** ****** ****** ****** ****** ****** ******
  18  ****** ****** ****** ****** ****** ****** ****** ****** ****** ******
      ****** ****** ****** ****** ****** ****** ****** ****** ****** ******
      ****** ****** ****** ****** ****** ****** ****** ****** ****** ******
  19  ****** ****** ****** ****** ****** ****** ****** ****** ****** ******
      ****** ****** ****** ****** ****** ****** ****** ****** ****** ******
      ****** ****** ****** ****** ****** ****** ****** ****** ****** ******
  20  ****** ****** ****** ****** ****** ****** ****** ****** ****** ******
      ****** ****** ****** ****** ****** ****** ****** ****** ****** ******
      ****** ****** ****** ****** ****** ****** ****** ****** ****** ******
  21  ****** ****** ****** ****** ****** ****** ****** ****** ****** ******
      ****** ****** ****** ****** ****** ****** ****** ****** ****** ******
      ****** ****** ****** ****** ****** ****** ****** ****** ****** ******
  22  ****** ****** ****** ****** ****** ****** ****** ****** ****** ******
      ****** ****** ****** ****** ****** ****** ****** ****** ****** ******
      ****** ****** ****** ****** ****** ****** ****** ****** ****** ******
  23  ****** ****** ****** ****** ****** ****** ****** ****** ****** ******
      ****** ****** ****** ****** ****** ****** ****** ****** ****** ******
      ****** ****** ****** ****** ****** ****** ****** ****** ****** ******
  24  ****** ****** ****** ****** ****** ****** ****** ****** ****** ******
      ****** ****** ****** ****** ****** ****** ****** ****** ****** ******
      ****** ****** ****** ****** ****** ****** ****** ****** ****** ******
  25  ****** ****** ****** ****** ****** ****** ****** ****** ****** ******
      ****** ****** ****** ****** ****** ****** ****** ****** ****** ******
      ****** ****** ****** ****** ****** ****** ****** ****** ****** ******

 HEAD WILL BE SAVED ON UNIT   51 AT END OF TIME STEP    1, STRESS PERIOD    9
1
  VOLUMETRIC BUDGET FOR ENTIRE MODEL AT END OF TIME STEP    1, STRESS PERIOD   9
  ------------------------------------------------------------------------------

     CUMULATIVE VOLUMES      L**3       RATES FOR THIS TIME STEP      L**3/T
     ------------------                 ------------------------

           IN:                                      IN:
           ---                                      ---
             STORAGE =    25435612.2696               STORAGE =        2053.0175
       CONSTANT HEAD =   133968141.3474         CONSTANT HEAD =      168890.7290
               WELLS =           0.0000                 WELLS =           0.0000
            RECHARGE =    18878400.0000              RECHARGE =       13800.0000
      STREAM LEAKAGE =     5380796.3522        STREAM LEAKAGE =        6835.3539

            TOTAL IN =   183662949.9692              TOTAL IN =      191579.1004

          OUT:                                     OUT:
          ----                                     ----
             STORAGE =     1524954.0410               STORAGE =           0.0000
       CONSTANT HEAD =           0.0000         CONSTANT HEAD =           0.0000
               WELLS =    67941282.3982                 WELLS =       74349.0996
            RECHARGE =           0.0000              RECHARGE =           0.0000
      STREAM LEAKAGE =   114196714.5698        STREAM LEAKAGE =      117230.0037

           TOTAL OUT =   183662951.0090             TOTAL OUT =      191579.1032

            IN - OUT =          -1.0398              IN - OUT =      -2.8182E-03

 PERCENT DISCREPANCY =          -0.00     PERCENT DISCREPANCY =          -0.00






         TIME SUMMARY AT END OF TIME STEP    1 IN STRESS PERIOD    9
                    SECONDS     MINUTES      HOURS       DAYS        YEARS
                    -----------------------------------------------------------
   TIME STEP LENGTH 7.94880E+06 1.32480E+05  2208.0      92.000     0.25188    
 STRESS PERIOD TIME 7.94880E+06 1.32480E+05  2208.0      92.000     0.25188    
         TOTAL TIME 7.10208E+07 1.18368E+06  19728.      822.00      2.2505    
1
1
                            STRESS PERIOD NO.   10, LENGTH =   91.00000    
                            -----------------------------------------------

                              NUMBER OF TIME STEPS =     1

                               MULTIPLIER FOR DELT =     1.500

                            INITIAL TIME STEP SIZE =   91.00000    

 WELL NO.  LAYER   ROW   COL   STRESS RATE         
 --------------------------------------------------
      1      1      5     14     -0.2088E+05
      2      1      4     17     -0.2248E+05
      3      1      3     26     -0.3099E+05

      3 WELLS

                 RECHARGE =  2.000000E-03

 REUSING STREAM SEGMENT DATA FROM LAST STRESS PERIOD
 
 SOLVING FOR HEAD 


     7 CALLS TO PCG ROUTINE FOR TIME STEP   1 IN STRESS PERIOD   10
    26 TOTAL ITERATIONS

 OUTPUT CONTROL FOR STRESS PERIOD   10   TIME STEP    1
    SAVE BUDGET
    SAVE HEAD FOR ALL LAYERS
    PRINT HEAD FOR ALL LAYERS
 UBDSV2 SAVING "STREAMFLOW OUT  " ON UNIT  50 AT TIME STEP  1, STRESS PERIOD  10



 STREAM LISTING     PERIOD     10   STEP        1

 LAYER ROW COL. STREAM  RCH.  FLOW INTO     FLOW TO   FLOW OUT OF   OVRLND.     DIRECT     STREAM       STREAM     STREAM     STREAM   STREAMBED  STREAMBED
                SEG.NO.  NO.  STRM. RCH.    AQUIFER    STRM. RCH.    RUNOFF     PRECIP       ET          HEAD       DEPTH      WIDTH   CONDCTNC.   GRADIENT

   1   13    1     1     1    1.0000E+05 -2.9736E+03   1.0297E+05  0.000E+00  0.000E+00  0.000E+00  4.84073E+01  1.459E-01  2.000E+01  2.000E+04 -1.487E-01
   1   13    2     1     2    1.0297E+05 -4.8408E+03   1.0781E+05  0.000E+00  0.000E+00  0.000E+00  4.79334E+01  1.493E-01  2.000E+01  2.000E+04 -2.420E-01
   1   14    3     1     3    1.0781E+05 -4.0063E+03   1.1182E+05  0.000E+00  0.000E+00  0.000E+00  4.74598E+01  1.530E-01  2.000E+01  2.000E+04 -2.003E-01
   1   15    4     1     4    1.1182E+05 -3.9645E+03   1.1579E+05  0.000E+00  0.000E+00  0.000E+00  4.69859E+01  1.563E-01  2.000E+01  2.000E+04 -1.982E-01
   1   16    5     1     5    1.1579E+05 -4.3938E+03   1.2018E+05  0.000E+00  0.000E+00  0.000E+00  4.65120E+01  1.597E-01  2.000E+01  2.000E+04 -2.197E-01
   1   16    6     1     6    1.2018E+05 -3.4045E+03   1.2358E+05  0.000E+00  0.000E+00  0.000E+00  4.60379E+01  1.629E-01  2.000E+01  2.000E+04 -1.702E-01
   1   16    7     1     7    1.2358E+05 -3.4431E+03   1.2703E+05  0.000E+00  0.000E+00  0.000E+00  4.55633E+01  1.656E-01  2.000E+01  2.000E+04 -1.722E-01
   1   16    8     1     8    1.2703E+05 -3.4615E+03   1.3049E+05  0.000E+00  0.000E+00  0.000E+00  4.50888E+01  1.683E-01  2.000E+01  2.000E+04 -1.731E-01
   1   16    9     1     9    1.3049E+05 -3.4466E+03   1.3393E+05  0.000E+00  0.000E+00  0.000E+00  4.46142E+01  1.710E-01  2.000E+01  2.000E+04 -1.723E-01
   1   16   10     1    10    1.3393E+05 -3.4080E+03   1.3734E+05  0.000E+00  0.000E+00  0.000E+00  4.41396E+01  1.737E-01  2.000E+01  2.000E+04 -1.704E-01
   1   16   11     1    11    1.3734E+05 -3.3864E+03   1.4073E+05  0.000E+00  0.000E+00  0.000E+00  4.36649E+01  1.763E-01  2.000E+01  2.000E+04 -1.693E-01
   1   16   12     1    12    1.4073E+05 -4.6279E+03   1.4536E+05  0.000E+00  0.000E+00  0.000E+00  4.31907E+01  1.793E-01  2.000E+01  2.000E+04 -2.314E-01
   1   15   13     1    13    1.4536E+05 -4.0519E+03   1.4941E+05  0.000E+00  0.000E+00  0.000E+00  4.27166E+01  1.826E-01  2.000E+01  2.000E+04 -2.026E-01
   1   14   14     1    14    1.4941E+05 -3.8482E+03   1.5326E+05  0.000E+00  0.000E+00  0.000E+00  4.22423E+01  1.855E-01  2.000E+01  2.000E+04 -1.924E-01
   1   13   15     1    15    1.5326E+05 -3.7294E+03   1.5699E+05  0.000E+00  0.000E+00  0.000E+00  4.17678E+01  1.882E-01  2.000E+01  2.000E+04 -1.865E-01
   1   12   16     1    16    1.5699E+05 -3.9915E+03   1.6098E+05  0.000E+00  0.000E+00  0.000E+00  4.12933E+01  1.910E-01  2.000E+01  2.000E+04 -1.996E-01
   1   12   17     1    17    1.6098E+05 -2.7797E+03   1.6376E+05  0.000E+00  0.000E+00  0.000E+00  4.08185E+01  1.935E-01  2.000E+01  2.000E+04 -1.390E-01
   1   12   18     1    18    1.6376E+05 -2.7470E+03   1.6650E+05  0.000E+00  0.000E+00  0.000E+00  4.03432E+01  1.954E-01  2.000E+01  2.000E+04 -1.374E-01
   1   12   19     1    19    1.6650E+05 -3.5677E+03   1.7007E+05  0.000E+00  0.000E+00  0.000E+00  3.98681E+01  1.977E-01  2.000E+01  2.000E+04 -1.784E-01
   1   13   20     1    20    1.7007E+05 -2.9276E+03   1.7300E+05  0.000E+00  0.000E+00  0.000E+00  3.93931E+01  2.000E-01  2.000E+01  2.000E+04 -1.464E-01
   1   14   21     1    21    1.7300E+05 -2.6093E+03   1.7561E+05  0.000E+00  0.000E+00  0.000E+00  3.89178E+01  2.019E-01  2.000E+01  2.000E+04 -1.305E-01
   1   14   22     1    22    1.7561E+05  5.0468E+03   1.7056E+05  0.000E+00  0.000E+00  0.000E+00  3.84397E+01  2.010E-01  2.000E+01  2.000E+04  2.523E-01
   1    9   30     2     1    5.0000E+04 -2.1891E+03   5.2189E+04  0.000E+00  0.000E+00  0.000E+00  4.02424E+01  1.174E-01  2.000E+01  2.000E+04 -1.095E-01
   1    9   29     2     2    5.2189E+04 -2.4517E+03   5.4641E+04  0.000E+00  0.000E+00  0.000E+00  3.99956E+01  1.206E-01  2.000E+01  2.000E+04 -1.226E-01
   1    9   28     2     3    5.4641E+04 -2.6821E+03   5.7323E+04  0.000E+00  0.000E+00  0.000E+00  3.97490E+01  1.240E-01  2.000E+01  2.000E+04 -1.341E-01
   1    9   27     2     4    5.7323E+04 -4.6588E+03   6.1982E+04  0.000E+00  0.000E+00  0.000E+00  3.95038E+01  1.288E-01  2.000E+01  2.000E+04 -2.329E-01
   1   10   26     2     5    6.1982E+04 -2.9816E+03   6.4963E+04  0.000E+00  0.000E+00  0.000E+00  3.92587E+01  1.337E-01  2.000E+01  2.000E+04 -1.491E-01
   1   11   25     2     6    6.4963E+04 -2.2209E+03   6.7184E+04  0.000E+00  0.000E+00  0.000E+00  3.90120E+01  1.370E-01  2.000E+01  2.000E+04 -1.110E-01
   1   12   24     2     7    6.7184E+04 -1.5678E+03   6.8752E+04  0.000E+00  0.000E+00  0.000E+00  3.87643E+01  1.393E-01  2.000E+01  2.000E+04 -7.839E-02
   1   13   23     2     8    6.8752E+04 -9.3920E+02   6.9691E+04  0.000E+00  0.000E+00  0.000E+00  3.85158E+01  1.408E-01  2.000E+01  2.000E+04 -4.696E-02
   1   14   22     2     9    6.9691E+04  1.5624E+03   6.8129E+04  0.000E+00  0.000E+00  0.000E+00  3.82655E+01  1.405E-01  2.000E+01  2.000E+04  7.812E-02
   1   14   22     3     1    2.3869E+05 -8.5463E+03   2.4724E+05  0.000E+00  0.000E+00  0.000E+00  3.77600E+01  2.045E-01  2.000E+01  2.000E+04 -4.273E-01
   1   15   23     3     2    2.4724E+05 -3.4406E+03   2.5068E+05  0.000E+00  0.000E+00  0.000E+00  3.68741E+01  2.075E-01  2.000E+01  2.000E+04 -1.720E-01
   1   15   24     3     3    2.5068E+05 -2.3609E+03   2.5304E+05  0.000E+00  0.000E+00  0.000E+00  3.59867E+01  2.089E-01  2.000E+01  2.000E+04 -1.180E-01
   1   15   25     3     4    2.5304E+05 -2.2248E+03   2.5526E+05  0.000E+00  0.000E+00  0.000E+00  3.50990E+01  2.101E-01  2.000E+01  2.000E+04 -1.112E-01
   1   15   26     3     5    2.5526E+05 -2.6328E+03   2.5790E+05  0.000E+00  0.000E+00  0.000E+00  3.42113E+01  2.113E-01  2.000E+01  2.000E+04 -1.316E-01
   1   16   27     3     6    2.5790E+05 -3.6869E+03   2.6158E+05  0.000E+00  0.000E+00  0.000E+00  3.33239E+01  2.128E-01  2.000E+01  2.000E+04 -1.843E-01
   1   17   28     3     7    2.6158E+05 -4.5229E+03   2.6611E+05  0.000E+00  0.000E+00  0.000E+00  3.24371E+01  2.148E-01  2.000E+01  2.000E+04 -2.261E-01
   1   18   29     3     8    2.6611E+05 -6.1808E+03   2.7229E+05  0.000E+00  0.000E+00  0.000E+00  3.15508E+01  2.174E-01  2.000E+01  2.000E+04 -3.090E-01
   1   18   30     3     9    2.7229E+05 -5.1083E+03   2.7740E+05  0.000E+00  0.000E+00  0.000E+00  3.06646E+01  2.202E-01  2.000E+01  2.000E+04 -2.554E-01



1
              HEAD IN LAYER   1 AT END OF TIME STEP   1 IN STRESS PERIOD   10
  ---------------------------------------------------------------------------

          1      2      3      4      5      6      7      8      9     10
         11     12     13     14     15     16     17     18     19     20
         21     22     23     24     25     26     27     28     29     30
 .........................................................................
   1  ****** ****** ****** ****** ****** ****** ****** ****** ****** ******
      ****** ****** ****** ****** ****** ****** ****** ****** ****** ******
      ****** ****** ****** ****** ****** ****** ****** ****** ****** ******
   2  ****** ****** ****** ****** ****** ****** ****** ****** ****** ******
      ****** ****** ****** ****** ****** ****** ****** ****** ****** ******
      ****** ****** ****** ****** ****** ****** ****** ****** ****** ******
   3  ****** ****** ****** ****** ****** ****** ****** ****** ****** ******
      ****** ****** ****** ****** ****** ****** ****** ****** ****** ******
      ****** ****** ****** ****** ****** ****** ****** ****** ****** ******
   4  ****** ****** ****** ****** ****** ****** ****** ****** ****** ******
      ****** ****** ****** ****** ****** ****** ****** ****** ****** ******
      ****** ****** ****** ****** ****** ****** ****** ****** ****** ******
   5  ****** ****** ****** ****** ****** ****** ****** ****** ****** ******
      ****** ****** ****** ****** ****** ****** ****** ****** ****** ******
      ****** ****** ****** ****** ****** ****** ****** ****** ****** ******
   6  ****** ****** ****** ****** ****** ****** ****** ****** ****** ******
      ****** ****** ****** ****** ****** ****** ****** ****** ****** ******
      ****** ****** ****** ****** ****** ****** ****** ****** ****** ******
   7  ****** ****** ****** ****** ****** ****** ****** ****** ****** ******
      ****** ****** ****** ****** ****** ****** ****** ****** ****** ******
      ****** ****** ****** ****** ****** ****** ****** ****** ****** ******
   8  ****** ****** ****** ****** ****** ****** ****** ****** ****** ******
      ****** ****** ****** ****** ****** ****** ****** ****** ****** ******
      ****** ****** ****** ****** ****** ****** ****** ****** ****** ******
   9  ****** ****** ****** ****** ****** ****** ****** ****** ****** ******
      ****** ****** ****** ****** ****** ****** ****** ****** ****** ******
      ****** ****** ****** ****** ****** ****** ****** ****** ****** ******
  10  ****** ****** ****** ****** ****** ****** ****** ****** ****** ******
      ****** ****** ****** ****** ****** ****** ****** ****** ****** ******
      ****** ****** ****** ****** ****** ****** ****** ****** ****** ******
  11  ****** ****** ****** ****** ****** ****** ****** ****** ****** ******
      ****** ****** ****** ****** ****** ****** ****** ****** ****** ******
      ****** ****** ****** ****** ****** ****** ****** ****** ****** ******
  12  ****** ****** ****** ****** ****** ****** ****** ****** ****** ******
      ****** ****** ****** ****** ****** ****** ****** ****** ****** ******
      ****** ****** ****** ****** ****** ****** ****** ****** ****** ******
  13  ****** ****** ****** ****** ****** ****** ****** ****** ****** ******
      ****** ****** ****** ****** ****** ****** ****** ****** ****** ******
      ****** ****** ****** ****** ****** ****** ****** ****** ****** ******
  14  ****** ****** ****** ****** ****** ****** ****** ****** ****** ******
      ****** ****** ****** ****** ****** ****** ****** ****** ****** ******
      ****** ****** ****** ****** ****** ****** ****** ****** ****** ******
  15  ****** ****** ****** ****** ****** ****** ****** ****** ****** ******
      ****** ****** ****** ****** ****** ****** ****** ****** ****** ******
      ****** ****** ****** ****** ****** ****** ****** ****** ****** ******
  16  ****** ****** ****** ****** ****** ****** ****** ****** ****** ******
      ****** ****** ****** ****** ****** ****** ****** ****** ****** ******
      ****** ****** ****** ****** ****** ****** ****** ****** ****** ******
  17  ****** ****** ****** ****** ****** ****** ****** ****** ****** ******
      ****** ****** ****** ****** ****** ****** ****** ****** ****** ******
      ****** ****** ****** ****** ****** ****** ****** ****** ****** ******
  18  ****** ****** ****** ****** ****** ****** ****** ****** ****** ******
      ****** ****** ****** ****** ****** ****** ****** ****** ****** ******
      ****** ****** ****** ****** ****** ****** ****** ****** ****** ******
  19  ****** ****** ****** ****** ****** ****** ****** ****** ****** ******
      ****** ****** ****** ****** ****** ****** ****** ****** ****** ******
      ****** ****** ****** ****** ****** ****** ****** ****** ****** ******
  20  ****** ****** ****** ****** ****** ****** ****** ****** ****** ******
      ****** ****** ****** ****** ****** ****** ****** ****** ****** ******
      ****** ****** ****** ****** ****** ****** ****** ****** ****** ******
  21  ****** ****** ****** ****** ****** ****** ****** ****** ****** ******
      ****** ****** ****** ****** ****** ****** ****** ****** ****** ******
      ****** ****** ****** ****** ****** ****** ****** ****** ****** ******
  22  ****** ****** ****** ****** ****** ****** ****** ****** ****** ******
      ****** ****** ****** ****** ****** ****** ****** ****** ****** ******
      ****** ****** ****** ****** ****** ****** ****** ****** ****** ******
  23  ****** ****** ****** ****** ****** ****** ****** ****** ****** ******
      ****** ****** ****** ****** ****** ****** ****** ****** ****** ******
      ****** ****** ****** ****** ****** ****** ****** ****** ****** ******
  24  ****** ****** ****** ****** ****** ****** ****** ****** ****** ******
      ****** ****** ****** ****** ****** ****** ****** ****** ****** ******
      ****** ****** ****** ****** ****** ****** ****** ****** ****** ******
  25  ****** ****** ****** ****** ****** ****** ****** ****** ****** ******
      ****** ****** ****** ****** ****** ****** ****** ****** ****** ******
      ****** ****** ****** ****** ****** ****** ****** ****** ****** ******

 HEAD WILL BE SAVED ON UNIT   51 AT END OF TIME STEP    1, STRESS PERIOD   10
1
  VOLUMETRIC BUDGET FOR ENTIRE MODEL AT END OF TIME STEP    1, STRESS PERIOD  10
  ------------------------------------------------------------------------------

     CUMULATIVE VOLUMES      L**3       RATES FOR THIS TIME STEP      L**3/T
     ------------------                 ------------------------

           IN:                                      IN:
           ---                                      ---
             STORAGE =    25435612.2696               STORAGE =           0.0000
       CONSTANT HEAD =   148305159.2129         CONSTANT HEAD =      157549.6469
               WELLS =           0.0000                 WELLS =           0.0000
            RECHARGE =    23901600.0000              RECHARGE =       55200.0000
      STREAM LEAKAGE =     5982229.2847        STREAM LEAKAGE =        6609.1531

            TOTAL IN =   203624600.7673              TOTAL IN =      219358.8000

          OUT:                                     OUT:
          ----                                     ----
             STORAGE =     2526427.7850               STORAGE =       11005.2060
       CONSTANT HEAD =           0.0000         CONSTANT HEAD =           0.0000
               WELLS =    74707050.4581                 WELLS =       74349.0996
            RECHARGE =           0.0000              RECHARGE =           0.0000
      STREAM LEAKAGE =   126391123.4055        STREAM LEAKAGE =      134004.4927

           TOTAL OUT =   203624601.6485             TOTAL OUT =      219358.7982

            IN - OUT =          -0.8813              IN - OUT =       1.7422E-03

 PERCENT DISCREPANCY =          -0.00     PERCENT DISCREPANCY =           0.00






         TIME SUMMARY AT END OF TIME STEP    1 IN STRESS PERIOD   10
                    SECONDS     MINUTES      HOURS       DAYS        YEARS
                    -----------------------------------------------------------
   TIME STEP LENGTH 7.86240E+06 1.31040E+05  2184.0      91.000     0.24914    
 STRESS PERIOD TIME 7.86240E+06 1.31040E+05  2184.0      91.000     0.24914    
         TOTAL TIME 7.88832E+07 1.31472E+06  21912.      913.00      2.4997    
1
1
                            STRESS PERIOD NO.   11, LENGTH =   91.00000    
                            -----------------------------------------------

                              NUMBER OF TIME STEPS =     1

                               MULTIPLIER FOR DELT =     1.500

                            INITIAL TIME STEP SIZE =   91.00000    

 WELL NO.  LAYER   ROW   COL   STRESS RATE         
 --------------------------------------------------
      1      1      5     14     -0.2088E+05
      2      1      4     17     -0.2248E+05
      3      1      3     26     -0.3099E+05

      3 WELLS

                 RECHARGE =   0.00000    

 REUSING STREAM SEGMENT DATA FROM LAST STRESS PERIOD
 
 SOLVING FOR HEAD 


     7 CALLS TO PCG ROUTINE FOR TIME STEP   1 IN STRESS PERIOD   11
    26 TOTAL ITERATIONS

 OUTPUT CONTROL FOR STRESS PERIOD   11   TIME STEP    1
    SAVE BUDGET
    SAVE HEAD FOR ALL LAYERS
    PRINT HEAD FOR ALL LAYERS
 UBDSV2 SAVING "STREAMFLOW OUT  " ON UNIT  50 AT TIME STEP  1, STRESS PERIOD  11



 STREAM LISTING     PERIOD     11   STEP        1

 LAYER ROW COL. STREAM  RCH.  FLOW INTO     FLOW TO   FLOW OUT OF   OVRLND.     DIRECT     STREAM       STREAM     STREAM     STREAM   STREAMBED  STREAMBED
                SEG.NO.  NO.  STRM. RCH.    AQUIFER    STRM. RCH.    RUNOFF     PRECIP       ET          HEAD       DEPTH      WIDTH   CONDCTNC.   GRADIENT

   1   13    1     1     1    1.0000E+05 -2.4922E+03   1.0249E+05  0.000E+00  0.000E+00  0.000E+00  4.84071E+01  1.457E-01  2.000E+01  2.000E+04 -1.246E-01
   1   13    2     1     2    1.0249E+05 -4.2126E+03   1.0670E+05  0.000E+00  0.000E+00  0.000E+00  4.79327E+01  1.486E-01  2.000E+01  2.000E+04 -2.106E-01
   1   14    3     1     3    1.0670E+05 -3.3547E+03   1.1006E+05  0.000E+00  0.000E+00  0.000E+00  4.74586E+01  1.518E-01  2.000E+01  2.000E+04 -1.677E-01
   1   15    4     1     4    1.1006E+05 -3.3153E+03   1.1337E+05  0.000E+00  0.000E+00  0.000E+00  4.69841E+01  1.546E-01  2.000E+01  2.000E+04 -1.658E-01
   1   16    5     1     5    1.1337E+05 -3.7933E+03   1.1717E+05  0.000E+00  0.000E+00  0.000E+00  4.65098E+01  1.575E-01  2.000E+01  2.000E+04 -1.897E-01
   1   16    6     1     6    1.1717E+05 -2.9302E+03   1.2010E+05  0.000E+00  0.000E+00  0.000E+00  4.60353E+01  1.603E-01  2.000E+01  2.000E+04 -1.465E-01
   1   16    7     1     7    1.2010E+05 -2.9623E+03   1.2306E+05  0.000E+00  0.000E+00  0.000E+00  4.55604E+01  1.626E-01  2.000E+01  2.000E+04 -1.481E-01
   1   16    8     1     8    1.2306E+05 -2.9768E+03   1.2604E+05  0.000E+00  0.000E+00  0.000E+00  4.50855E+01  1.650E-01  2.000E+01  2.000E+04 -1.488E-01
   1   16    9     1     9    1.2604E+05 -2.9620E+03   1.2900E+05  0.000E+00  0.000E+00  0.000E+00  4.46105E+01  1.674E-01  2.000E+01  2.000E+04 -1.481E-01
   1   16   10     1    10    1.2900E+05 -2.9275E+03   1.3193E+05  0.000E+00  0.000E+00  0.000E+00  4.41356E+01  1.697E-01  2.000E+01  2.000E+04 -1.464E-01
   1   16   11     1    11    1.3193E+05 -2.9119E+03   1.3484E+05  0.000E+00  0.000E+00  0.000E+00  4.36606E+01  1.719E-01  2.000E+01  2.000E+04 -1.456E-01
   1   16   12     1    12    1.3484E+05 -4.0195E+03   1.3886E+05  0.000E+00  0.000E+00  0.000E+00  4.31860E+01  1.746E-01  2.000E+01  2.000E+04 -2.010E-01
   1   15   13     1    13    1.3886E+05 -3.3911E+03   1.4225E+05  0.000E+00  0.000E+00  0.000E+00  4.27115E+01  1.774E-01  2.000E+01  2.000E+04 -1.696E-01
   1   14   14     1    14    1.4225E+05 -3.1772E+03   1.4543E+05  0.000E+00  0.000E+00  0.000E+00  4.22367E+01  1.799E-01  2.000E+01  2.000E+04 -1.589E-01
   1   13   15     1    15    1.4543E+05 -3.0713E+03   1.4850E+05  0.000E+00  0.000E+00  0.000E+00  4.17618E+01  1.822E-01  2.000E+01  2.000E+04 -1.536E-01
   1   12   16     1    16    1.4850E+05 -3.3709E+03   1.5187E+05  0.000E+00  0.000E+00  0.000E+00  4.12869E+01  1.846E-01  2.000E+01  2.000E+04 -1.685E-01
   1   12   17     1    17    1.5187E+05 -2.3101E+03   1.5418E+05  0.000E+00  0.000E+00  0.000E+00  4.08117E+01  1.867E-01  2.000E+01  2.000E+04 -1.155E-01
   1   12   18     1    18    1.5418E+05 -2.2836E+03   1.5646E+05  0.000E+00  0.000E+00  0.000E+00  4.03361E+01  1.884E-01  2.000E+01  2.000E+04 -1.142E-01
   1   12   19     1    19    1.5646E+05 -3.0030E+03   1.5947E+05  0.000E+00  0.000E+00  0.000E+00  3.98608E+01  1.903E-01  2.000E+01  2.000E+04 -1.501E-01
   1   13   20     1    20    1.5947E+05 -2.3666E+03   1.6183E+05  0.000E+00  0.000E+00  0.000E+00  3.93854E+01  1.922E-01  2.000E+01  2.000E+04 -1.183E-01
   1   14   21     1    21    1.6183E+05 -2.0946E+03   1.6393E+05  0.000E+00  0.000E+00  0.000E+00  3.89097E+01  1.938E-01  2.000E+01  2.000E+04 -1.047E-01
   1   14   22     1    22    1.6393E+05  5.1496E+03   1.5878E+05  0.000E+00  0.000E+00  0.000E+00  3.84314E+01  1.927E-01  2.000E+01  2.000E+04  2.575E-01
   1    9   30     2     1    5.0000E+04 -1.7486E+03   5.1749E+04  0.000E+00  0.000E+00  0.000E+00  4.02421E+01  1.171E-01  2.000E+01  2.000E+04 -8.743E-02
   1    9   29     2     2    5.1749E+04 -2.0150E+03   5.3764E+04  0.000E+00  0.000E+00  0.000E+00  3.99947E+01  1.197E-01  2.000E+01  2.000E+04 -1.008E-01
   1    9   28     2     3    5.3764E+04 -2.2492E+03   5.6013E+04  0.000E+00  0.000E+00  0.000E+00  3.97475E+01  1.225E-01  2.000E+01  2.000E+04 -1.125E-01
   1    9   27     2     4    5.6013E+04 -4.0899E+03   6.0103E+04  0.000E+00  0.000E+00  0.000E+00  3.95017E+01  1.267E-01  2.000E+01  2.000E+04 -2.045E-01
   1   10   26     2     5    6.0103E+04 -2.3865E+03   6.2489E+04  0.000E+00  0.000E+00  0.000E+00  3.92559E+01  1.309E-01  2.000E+01  2.000E+04 -1.193E-01
   1   11   25     2     6    6.2489E+04 -1.6490E+03   6.4138E+04  0.000E+00  0.000E+00  0.000E+00  3.90085E+01  1.335E-01  2.000E+01  2.000E+04 -8.245E-02
   1   12   24     2     7    6.4138E+04 -1.0588E+03   6.5197E+04  0.000E+00  0.000E+00  0.000E+00  3.87602E+01  1.352E-01  2.000E+01  2.000E+04 -5.294E-02
   1   13   23     2     8    6.5197E+04 -5.3797E+02   6.5735E+04  0.000E+00  0.000E+00  0.000E+00  3.85112E+01  1.362E-01  2.000E+01  2.000E+04 -2.690E-02
   1   14   22     2     9    6.5735E+04  1.7311E+03   6.4004E+04  0.000E+00  0.000E+00  0.000E+00  3.82605E+01  1.355E-01  2.000E+01  2.000E+04  8.655E-02
   1   14   22     3     1    2.2278E+05 -8.4410E+03   2.3122E+05  0.000E+00  0.000E+00  0.000E+00  3.77519E+01  1.963E-01  2.000E+01  2.000E+04 -4.220E-01
   1   15   23     3     2    2.3122E+05 -2.9590E+03   2.3418E+05  0.000E+00  0.000E+00  0.000E+00  3.68659E+01  1.992E-01  2.000E+01  2.000E+04 -1.480E-01
   1   15   24     3     3    2.3418E+05 -2.0058E+03   2.3619E+05  0.000E+00  0.000E+00  0.000E+00  3.59783E+01  2.005E-01  2.000E+01  2.000E+04 -1.003E-01
   1   15   25     3     4    2.3619E+05 -1.8661E+03   2.3805E+05  0.000E+00  0.000E+00  0.000E+00  3.50904E+01  2.015E-01  2.000E+01  2.000E+04 -9.330E-02
   1   15   26     3     5    2.3805E+05 -2.1685E+03   2.4022E+05  0.000E+00  0.000E+00  0.000E+00  3.42025E+01  2.025E-01  2.000E+01  2.000E+04 -1.084E-01
   1   16   27     3     6    2.4022E+05 -3.1107E+03   2.4333E+05  0.000E+00  0.000E+00  0.000E+00  3.33150E+01  2.039E-01  2.000E+01  2.000E+04 -1.555E-01
   1   17   28     3     7    2.4333E+05 -3.9361E+03   2.4727E+05  0.000E+00  0.000E+00  0.000E+00  3.24279E+01  2.056E-01  2.000E+01  2.000E+04 -1.968E-01
   1   18   29     3     8    2.4727E+05 -5.6338E+03   2.5290E+05  0.000E+00  0.000E+00  0.000E+00  3.15414E+01  2.080E-01  2.000E+01  2.000E+04 -2.817E-01
   1   18   30     3     9    2.5290E+05 -4.6912E+03   2.5759E+05  0.000E+00  0.000E+00  0.000E+00  3.06551E+01  2.106E-01  2.000E+01  2.000E+04 -2.346E-01



1
              HEAD IN LAYER   1 AT END OF TIME STEP   1 IN STRESS PERIOD   11
  ---------------------------------------------------------------------------

          1      2      3      4      5      6      7      8      9     10
         11     12     13     14     15     16     17     18     19     20
         21     22     23     24     25     26     27     28     29     30
 .........................................................................
   1  ****** ****** ****** ****** ****** ****** ****** ****** ****** ******
      ****** ****** ****** ****** ****** ****** ****** ****** ****** ******
      ****** ****** ****** ****** ****** ****** ****** ****** ****** ******
   2  ****** ****** ****** ****** ****** ****** ****** ****** ****** ******
      ****** ****** ****** ****** ****** ****** ****** ****** ****** ******
      ****** ****** ****** ****** ****** ****** ****** ****** ****** ******
   3  ****** ****** ****** ****** ****** ****** ****** ****** ****** ******
      ****** ****** ****** ****** ****** ****** ****** ****** ****** ******
      ****** ****** ****** ****** ****** ****** ****** ****** ****** ******
   4  ****** ****** ****** ****** ****** ****** ****** ****** ****** ******
      ****** ****** ****** ****** ****** ****** ****** ****** ****** ******
      ****** ****** ****** ****** ****** ****** ****** ****** ****** ******
   5  ****** ****** ****** ****** ****** ****** ****** ****** ****** ******
      ****** ****** ****** ****** ****** ****** ****** ****** ****** ******
      ****** ****** ****** ****** ****** ****** ****** ****** ****** ******
   6  ****** ****** ****** ****** ****** ****** ****** ****** ****** ******
      ****** ****** ****** ****** ****** ****** ****** ****** ****** ******
      ****** ****** ****** ****** ****** ****** ****** ****** ****** ******
   7  ****** ****** ****** ****** ****** ****** ****** ****** ****** ******
      ****** ****** ****** ****** ****** ****** ****** ****** ****** ******
      ****** ****** ****** ****** ****** ****** ****** ****** ****** ******
   8  ****** ****** ****** ****** ****** ****** ****** ****** ****** ******
      ****** ****** ****** ****** ****** ****** ****** ****** ****** ******
      ****** ****** ****** ****** ****** ****** ****** ****** ****** ******
   9  ****** ****** ****** ****** ****** ****** ****** ****** ****** ******
      ****** ****** ****** ****** ****** ****** ****** ****** ****** ******
      ****** ****** ****** ****** ****** ****** ****** ****** ****** ******
  10  ****** ****** ****** ****** ****** ****** ****** ****** ****** ******
      ****** ****** ****** ****** ****** ****** ****** ****** ****** ******
      ****** ****** ****** ****** ****** ****** ****** ****** ****** ******
  11  ****** ****** ****** ****** ****** ****** ****** ****** ****** ******
      ****** ****** ****** ****** ****** ****** ****** ****** ****** ******
      ****** ****** ****** ****** ****** ****** ****** ****** ****** ******
  12  ****** ****** ****** ****** ****** ****** ****** ****** ****** ******
      ****** ****** ****** ****** ****** ****** ****** ****** ****** ******
      ****** ****** ****** ****** ****** ****** ****** ****** ****** ******
  13  ****** ****** ****** ****** ****** ****** ****** ****** ****** ******
      ****** ****** ****** ****** ****** ****** ****** ****** ****** ******
      ****** ****** ****** ****** ****** ****** ****** ****** ****** ******
  14  ****** ****** ****** ****** ****** ****** ****** ****** ****** ******
      ****** ****** ****** ****** ****** ****** ****** ****** ****** ******
      ****** ****** ****** ****** ****** ****** ****** ****** ****** ******
  15  ****** ****** ****** ****** ****** ****** ****** ****** ****** ******
      ****** ****** ****** ****** ****** ****** ****** ****** ****** ******
      ****** ****** ****** ****** ****** ****** ****** ****** ****** ******
  16  ****** ****** ****** ****** ****** ****** ****** ****** ****** ******
      ****** ****** ****** ****** ****** ****** ****** ****** ****** ******
      ****** ****** ****** ****** ****** ****** ****** ****** ****** ******
  17  ****** ****** ****** ****** ****** ****** ****** ****** ****** ******
      ****** ****** ****** ****** ****** ****** ****** ****** ****** ******
      ****** ****** ****** ****** ****** ****** ****** ****** ****** ******
  18  ****** ****** ****** ****** ****** ****** ****** ****** ****** ******
      ****** ****** ****** ****** ****** ****** ****** ****** ****** ******
      ****** ****** ****** ****** ****** ****** ****** ****** ****** ******
  19  ****** ****** ****** ****** ****** ****** ****** ****** ****** ******
      ****** ****** ****** ****** ****** ****** ****** ****** ****** ******
      ****** ****** ****** ****** ****** ****** ****** ****** ****** ******
  20  ****** ****** ****** ****** ****** ****** ****** ****** ****** ******
      ****** ****** ****** ****** ****** ****** ****** ****** ****** ******
      ****** ****** ****** ****** ****** ****** ****** ****** ****** ******
  21  ****** ****** ****** ****** ****** ****** ****** ****** ****** ******
      ****** ****** ****** ****** ****** ****** ****** ****** ****** ******
      ****** ****** ****** ****** ****** ****** ****** ****** ****** ******
  22  ****** ****** ****** ****** ****** ****** ****** ****** ****** ******
      ****** ****** ****** ****** ****** ****** ****** ****** ****** ******
      ****** ****** ****** ****** ****** ****** ****** ****** ****** ******
  23  ****** ****** ****** ****** ****** ****** ****** ****** ****** ******
      ****** ****** ****** ****** ****** ****** ****** ****** ****** ******
      ****** ****** ****** ****** ****** ****** ****** ****** ****** ******
  24  ****** ****** ****** ****** ****** ****** ****** ****** ****** ******
      ****** ****** ****** ****** ****** ****** ****** ****** ****** ******
      ****** ****** ****** ****** ****** ****** ****** ****** ****** ******
  25  ****** ****** ****** ****** ****** ****** ****** ****** ****** ******
      ****** ****** ****** ****** ****** ****** ****** ****** ****** ******
      ****** ****** ****** ****** ****** ****** ****** ****** ****** ******

 HEAD WILL BE SAVED ON UNIT   51 AT END OF TIME STEP    1, STRESS PERIOD   11
1
  VOLUMETRIC BUDGET FOR ENTIRE MODEL AT END OF TIME STEP    1, STRESS PERIOD  11
  ------------------------------------------------------------------------------

     CUMULATIVE VOLUMES      L**3       RATES FOR THIS TIME STEP      L**3/T
     ------------------                 ------------------------

           IN:                                      IN:
           ---                                      ---
             STORAGE =    26504965.3615               STORAGE =       11751.1329
       CONSTANT HEAD =   163792582.1048         CONSTANT HEAD =      170191.4604
               WELLS =           0.0000                 WELLS =           0.0000
            RECHARGE =    23901600.0000              RECHARGE =           0.0000
      STREAM LEAKAGE =     6608369.9457        STREAM LEAKAGE =        6880.6666

            TOTAL IN =   220807517.4119              TOTAL IN =      188823.2598

          OUT:                                     OUT:
          ----                                     ----
             STORAGE =     2526427.7850               STORAGE =           0.0000
       CONSTANT HEAD =           0.0000         CONSTANT HEAD =           0.0000
               WELLS =    81472818.5179                 WELLS =       74349.0996
            RECHARGE =           0.0000              RECHARGE =           0.0000
      STREAM LEAKAGE =   136808272.1826        STREAM LEAKAGE =      114474.1624

           TOTAL OUT =   220807518.4855             TOTAL OUT =      188823.2619

            IN - OUT =          -1.0736              IN - OUT =      -2.1129E-03

 PERCENT DISCREPANCY =          -0.00     PERCENT DISCREPANCY =          -0.00






         TIME SUMMARY AT END OF TIME STEP    1 IN STRESS PERIOD   11
                    SECONDS     MINUTES      HOURS       DAYS        YEARS
                    -----------------------------------------------------------
   TIME STEP LENGTH 7.86240E+06 1.31040E+05  2184.0      91.000     0.24914    
 STRESS PERIOD TIME 7.86240E+06 1.31040E+05  2184.0      91.000     0.24914    
         TOTAL TIME 8.67456E+07 1.44576E+06  24096.      1004.0      2.7488    
1
1
                            STRESS PERIOD NO.   12, LENGTH =   91.00000    
                            -----------------------------------------------

                              NUMBER OF TIME STEPS =     1

                               MULTIPLIER FOR DELT =     1.500

                            INITIAL TIME STEP SIZE =   91.00000    

 WELL NO.  LAYER   ROW   COL   STRESS RATE         
 --------------------------------------------------
      1      1      5     14     -0.2088E+05
      2      1      4     17     -0.2248E+05
      3      1      3     26     -0.3099E+05

      3 WELLS

                 RECHARGE =  1.000000E-03

 REUSING STREAM SEGMENT DATA FROM LAST STRESS PERIOD
 
 SOLVING FOR HEAD 


     6 CALLS TO PCG ROUTINE FOR TIME STEP   1 IN STRESS PERIOD   12
    23 TOTAL ITERATIONS

 OUTPUT CONTROL FOR STRESS PERIOD   12   TIME STEP    1
    SAVE BUDGET
    SAVE HEAD FOR ALL LAYERS
    PRINT HEAD FOR ALL LAYERS
 UBDSV2 SAVING "STREAMFLOW OUT  " ON UNIT  50 AT TIME STEP  1, STRESS PERIOD  12



 STREAM LISTING     PERIOD     12   STEP        1

 LAYER ROW COL. STREAM  RCH.  FLOW INTO     FLOW TO   FLOW OUT OF   OVRLND.     DIRECT     STREAM       STREAM     STREAM     STREAM   STREAMBED  STREAMBED
                SEG.NO.  NO.  STRM. RCH.    AQUIFER    STRM. RCH.    RUNOFF     PRECIP       ET          HEAD       DEPTH      WIDTH   CONDCTNC.   GRADIENT

   1   13    1     1     1    1.0000E+05 -2.6670E+03   1.0267E+05  0.000E+00  0.000E+00  0.000E+00  4.84072E+01  1.458E-01  2.000E+01  2.000E+04 -1.334E-01
   1   13    2     1     2    1.0267E+05 -4.4329E+03   1.0710E+05  0.000E+00  0.000E+00  0.000E+00  4.79329E+01  1.488E-01  2.000E+01  2.000E+04 -2.216E-01
   1   14    3     1     3    1.0710E+05 -3.5953E+03   1.1070E+05  0.000E+00  0.000E+00  0.000E+00  4.74591E+01  1.522E-01  2.000E+01  2.000E+04 -1.798E-01
   1   15    4     1     4    1.1070E+05 -3.5576E+03   1.1425E+05  0.000E+00  0.000E+00  0.000E+00  4.69848E+01  1.552E-01  2.000E+01  2.000E+04 -1.779E-01
   1   16    5     1     5    1.1425E+05 -4.0164E+03   1.1827E+05  0.000E+00  0.000E+00  0.000E+00  4.65106E+01  1.583E-01  2.000E+01  2.000E+04 -2.008E-01
   1   16    6     1     6    1.1827E+05 -3.1081E+03   1.2138E+05  0.000E+00  0.000E+00  0.000E+00  4.60362E+01  1.612E-01  2.000E+01  2.000E+04 -1.554E-01
   1   16    7     1     7    1.2138E+05 -3.1421E+03   1.2452E+05  0.000E+00  0.000E+00  0.000E+00  4.55615E+01  1.637E-01  2.000E+01  2.000E+04 -1.571E-01
   1   16    8     1     8    1.2452E+05 -3.1578E+03   1.2768E+05  0.000E+00  0.000E+00  0.000E+00  4.50867E+01  1.662E-01  2.000E+01  2.000E+04 -1.579E-01
   1   16    9     1     9    1.2768E+05 -3.1430E+03   1.3082E+05  0.000E+00  0.000E+00  0.000E+00  4.46119E+01  1.687E-01  2.000E+01  2.000E+04 -1.572E-01
   1   16   10     1    10    1.3082E+05 -3.1072E+03   1.3393E+05  0.000E+00  0.000E+00  0.000E+00  4.41371E+01  1.712E-01  2.000E+01  2.000E+04 -1.554E-01
   1   16   11     1    11    1.3393E+05 -3.0896E+03   1.3702E+05  0.000E+00  0.000E+00  0.000E+00  4.36622E+01  1.736E-01  2.000E+01  2.000E+04 -1.545E-01
   1   16   12     1    12    1.3702E+05 -4.2429E+03   1.4126E+05  0.000E+00  0.000E+00  0.000E+00  4.31877E+01  1.764E-01  2.000E+01  2.000E+04 -2.121E-01
   1   15   13     1    13    1.4126E+05 -3.6357E+03   1.4490E+05  0.000E+00  0.000E+00  0.000E+00  4.27134E+01  1.793E-01  2.000E+01  2.000E+04 -1.818E-01
   1   14   14     1    14    1.4490E+05 -3.4248E+03   1.4832E+05  0.000E+00  0.000E+00  0.000E+00  4.22388E+01  1.820E-01  2.000E+01  2.000E+04 -1.712E-01
   1   13   15     1    15    1.4832E+05 -3.3138E+03   1.5163E+05  0.000E+00  0.000E+00  0.000E+00  4.17640E+01  1.845E-01  2.000E+01  2.000E+04 -1.657E-01
   1   12   16     1    16    1.5163E+05 -3.5931E+03   1.5523E+05  0.000E+00  0.000E+00  0.000E+00  4.12893E+01  1.870E-01  2.000E+01  2.000E+04 -1.797E-01
   1   12   17     1    17    1.5523E+05 -2.4853E+03   1.5771E+05  0.000E+00  0.000E+00  0.000E+00  4.08142E+01  1.892E-01  2.000E+01  2.000E+04 -1.243E-01
   1   12   18     1    18    1.5771E+05 -2.4582E+03   1.6017E+05  0.000E+00  0.000E+00  0.000E+00  4.03387E+01  1.910E-01  2.000E+01  2.000E+04 -1.229E-01
   1   12   19     1    19    1.6017E+05 -3.2159E+03   1.6339E+05  0.000E+00  0.000E+00  0.000E+00  3.98635E+01  1.931E-01  2.000E+01  2.000E+04 -1.608E-01
   1   13   20     1    20    1.6339E+05 -2.5862E+03   1.6597E+05  0.000E+00  0.000E+00  0.000E+00  3.93883E+01  1.951E-01  2.000E+01  2.000E+04 -1.293E-01
   1   14   21     1    21    1.6597E+05 -2.2917E+03   1.6826E+05  0.000E+00  0.000E+00  0.000E+00  3.89128E+01  1.969E-01  2.000E+01  2.000E+04 -1.146E-01
   1   14   22     1    22    1.6826E+05  5.1051E+03   1.6316E+05  0.000E+00  0.000E+00  0.000E+00  3.84345E+01  1.959E-01  2.000E+01  2.000E+04  2.553E-01
   1    9   30     2     1    5.0000E+04 -1.9284E+03   5.1928E+04  0.000E+00  0.000E+00  0.000E+00  4.02422E+01  1.172E-01  2.000E+01  2.000E+04 -9.642E-02
   1    9   29     2     2    5.1928E+04 -2.1930E+03   5.4121E+04  0.000E+00  0.000E+00  0.000E+00  3.99950E+01  1.200E-01  2.000E+01  2.000E+04 -1.097E-01
   1    9   28     2     3    5.4121E+04 -2.4248E+03   5.6546E+04  0.000E+00  0.000E+00  0.000E+00  3.97481E+01  1.231E-01  2.000E+01  2.000E+04 -1.212E-01
   1    9   27     2     4    5.6546E+04 -4.3115E+03   6.0858E+04  0.000E+00  0.000E+00  0.000E+00  3.95026E+01  1.276E-01  2.000E+01  2.000E+04 -2.156E-01
   1   10   26     2     5    6.0858E+04 -2.6249E+03   6.3483E+04  0.000E+00  0.000E+00  0.000E+00  3.92570E+01  1.320E-01  2.000E+01  2.000E+04 -1.312E-01
   1   11   25     2     6    6.3483E+04 -1.8809E+03   6.5364E+04  0.000E+00  0.000E+00  0.000E+00  3.90099E+01  1.349E-01  2.000E+01  2.000E+04 -9.405E-02
   1   12   24     2     7    6.5364E+04 -1.2693E+03   6.6633E+04  0.000E+00  0.000E+00  0.000E+00  3.87619E+01  1.369E-01  2.000E+01  2.000E+04 -6.347E-02
   1   13   23     2     8    6.6633E+04 -7.0887E+02   6.7342E+04  0.000E+00  0.000E+00  0.000E+00  3.85131E+01  1.381E-01  2.000E+01  2.000E+04 -3.544E-02
   1   14   22     2     9    6.7342E+04  1.6652E+03   6.5677E+04  0.000E+00  0.000E+00  0.000E+00  3.82625E+01  1.375E-01  2.000E+01  2.000E+04  8.326E-02
   1   14   22     3     1    2.2884E+05 -8.4850E+03   2.3732E+05  0.000E+00  0.000E+00  0.000E+00  3.77550E+01  1.994E-01  2.000E+01  2.000E+04 -4.242E-01
   1   15   23     3     2    2.3732E+05 -3.1437E+03   2.4046E+05  0.000E+00  0.000E+00  0.000E+00  3.68691E+01  2.024E-01  2.000E+01  2.000E+04 -1.572E-01
   1   15   24     3     3    2.4046E+05 -2.1503E+03   2.4262E+05  0.000E+00  0.000E+00  0.000E+00  3.59815E+01  2.037E-01  2.000E+01  2.000E+04 -1.075E-01
   1   15   25     3     4    2.4262E+05 -2.0153E+03   2.4463E+05  0.000E+00  0.000E+00  0.000E+00  3.50937E+01  2.048E-01  2.000E+01  2.000E+04 -1.008E-01
   1   15   26     3     5    2.4463E+05 -2.3635E+03   2.4699E+05  0.000E+00  0.000E+00  0.000E+00  3.42059E+01  2.059E-01  2.000E+01  2.000E+04 -1.182E-01
   1   16   27     3     6    2.4699E+05 -3.3452E+03   2.5034E+05  0.000E+00  0.000E+00  0.000E+00  3.33184E+01  2.073E-01  2.000E+01  2.000E+04 -1.673E-01
   1   17   28     3     7    2.5034E+05 -4.1731E+03   2.5451E+05  0.000E+00  0.000E+00  0.000E+00  3.24314E+01  2.092E-01  2.000E+01  2.000E+04 -2.087E-01
   1   18   29     3     8    2.5451E+05 -5.8505E+03   2.6036E+05  0.000E+00  0.000E+00  0.000E+00  3.15450E+01  2.117E-01  2.000E+01  2.000E+04 -2.925E-01
   1   18   30     3     9    2.6036E+05 -4.8620E+03   2.6522E+05  0.000E+00  0.000E+00  0.000E+00  3.06588E+01  2.143E-01  2.000E+01  2.000E+04 -2.431E-01



1
              HEAD IN LAYER   1 AT END OF TIME STEP   1 IN STRESS PERIOD   12
  ---------------------------------------------------------------------------

          1      2      3      4      5      6      7      8      9     10
         11     12     13     14     15     16     17     18     19     20
         21     22     23     24     25     26     27     28     29     30
 .........................................................................
   1  ****** ****** ****** ****** ****** ****** ****** ****** ****** ******
      ****** ****** ****** ****** ****** ****** ****** ****** ****** ******
      ****** ****** ****** ****** ****** ****** ****** ****** ****** ******
   2  ****** ****** ****** ****** ****** ****** ****** ****** ****** ******
      ****** ****** ****** ****** ****** ****** ****** ****** ****** ******
      ****** ****** ****** ****** ****** ****** ****** ****** ****** ******
   3  ****** ****** ****** ****** ****** ****** ****** ****** ****** ******
      ****** ****** ****** ****** ****** ****** ****** ****** ****** ******
      ****** ****** ****** ****** ****** ****** ****** ****** ****** ******
   4  ****** ****** ****** ****** ****** ****** ****** ****** ****** ******
      ****** ****** ****** ****** ****** ****** ****** ****** ****** ******
      ****** ****** ****** ****** ****** ****** ****** ****** ****** ******
   5  ****** ****** ****** ****** ****** ****** ****** ****** ****** ******
      ****** ****** ****** ****** ****** ****** ****** ****** ****** ******
      ****** ****** ****** ****** ****** ****** ****** ****** ****** ******
   6  ****** ****** ****** ****** ****** ****** ****** ****** ****** ******
      ****** ****** ****** ****** ****** ****** ****** ****** ****** ******
      ****** ****** ****** ****** ****** ****** ****** ****** ****** ******
   7  ****** ****** ****** ****** ****** ****** ****** ****** ****** ******
      ****** ****** ****** ****** ****** ****** ****** ****** ****** ******
      ****** ****** ****** ****** ****** ****** ****** ****** ****** ******
   8  ****** ****** ****** ****** ****** ****** ****** ****** ****** ******
      ****** ****** ****** ****** ****** ****** ****** ****** ****** ******
      ****** ****** ****** ****** ****** ****** ****** ****** ****** ******
   9  ****** ****** ****** ****** ****** ****** ****** ****** ****** ******
      ****** ****** ****** ****** ****** ****** ****** ****** ****** ******
      ****** ****** ****** ****** ****** ****** ****** ****** ****** ******
  10  ****** ****** ****** ****** ****** ****** ****** ****** ****** ******
      ****** ****** ****** ****** ****** ****** ****** ****** ****** ******
      ****** ****** ****** ****** ****** ****** ****** ****** ****** ******
  11  ****** ****** ****** ****** ****** ****** ****** ****** ****** ******
      ****** ****** ****** ****** ****** ****** ****** ****** ****** ******
      ****** ****** ****** ****** ****** ****** ****** ****** ****** ******
  12  ****** ****** ****** ****** ****** ****** ****** ****** ****** ******
      ****** ****** ****** ****** ****** ****** ****** ****** ****** ******
      ****** ****** ****** ****** ****** ****** ****** ****** ****** ******
  13  ****** ****** ****** ****** ****** ****** ****** ****** ****** ******
      ****** ****** ****** ****** ****** ****** ****** ****** ****** ******
      ****** ****** ****** ****** ****** ****** ****** ****** ****** ******
  14  ****** ****** ****** ****** ****** ****** ****** ****** ****** ******
      ****** ****** ****** ****** ****** ****** ****** ****** ****** ******
      ****** ****** ****** ****** ****** ****** ****** ****** ****** ******
  15  ****** ****** ****** ****** ****** ****** ****** ****** ****** ******
      ****** ****** ****** ****** ****** ****** ****** ****** ****** ******
      ****** ****** ****** ****** ****** ****** ****** ****** ****** ******
  16  ****** ****** ****** ****** ****** ****** ****** ****** ****** ******
      ****** ****** ****** ****** ****** ****** ****** ****** ****** ******
      ****** ****** ****** ****** ****** ****** ****** ****** ****** ******
  17  ****** ****** ****** ****** ****** ****** ****** ****** ****** ******
      ****** ****** ****** ****** ****** ****** ****** ****** ****** ******
      ****** ****** ****** ****** ****** ****** ****** ****** ****** ******
  18  ****** ****** ****** ****** ****** ****** ****** ****** ****** ******
      ****** ****** ****** ****** ****** ****** ****** ****** ****** ******
      ****** ****** ****** ****** ****** ****** ****** ****** ****** ******
  19  ****** ****** ****** ****** ****** ****** ****** ****** ****** ******
      ****** ****** ****** ****** ****** ****** ****** ****** ****** ******
      ****** ****** ****** ****** ****** ****** ****** ****** ****** ******
  20  ****** ****** ****** ****** ****** ****** ****** ****** ****** ******
      ****** ****** ****** ****** ****** ****** ****** ****** ****** ******
      ****** ****** ****** ****** ****** ****** ****** ****** ****** ******
  21  ****** ****** ****** ****** ****** ****** ****** ****** ****** ******
      ****** ****** ****** ****** ****** ****** ****** ****** ****** ******
      ****** ****** ****** ****** ****** ****** ****** ****** ****** ******
  22  ****** ****** ****** ****** ****** ****** ****** ****** ****** ******
      ****** ****** ****** ****** ****** ****** ****** ****** ****** ******
      ****** ****** ****** ****** ****** ****** ****** ****** ****** ******
  23  ****** ****** ****** ****** ****** ****** ****** ****** ****** ******
      ****** ****** ****** ****** ****** ****** ****** ****** ****** ******
      ****** ****** ****** ****** ****** ****** ****** ****** ****** ******
  24  ****** ****** ****** ****** ****** ****** ****** ****** ****** ******
      ****** ****** ****** ****** ****** ****** ****** ****** ****** ******
      ****** ****** ****** ****** ****** ****** ****** ****** ****** ******
  25  ****** ****** ****** ****** ****** ****** ****** ****** ****** ******
      ****** ****** ****** ****** ****** ****** ****** ****** ****** ******
      ****** ****** ****** ****** ****** ****** ****** ****** ****** ******

 HEAD WILL BE SAVED ON UNIT   51 AT END OF TIME STEP    1, STRESS PERIOD   12
1
  VOLUMETRIC BUDGET FOR ENTIRE MODEL AT END OF TIME STEP    1, STRESS PERIOD  12
  ------------------------------------------------------------------------------

     CUMULATIVE VOLUMES      L**3       RATES FOR THIS TIME STEP      L**3/T
     ------------------                 ------------------------

           IN:                                      IN:
           ---                                      ---
             STORAGE =    26504965.3615               STORAGE =           0.0000
       CONSTANT HEAD =   178875567.3815         CONSTANT HEAD =      165747.0910
               WELLS =           0.0000                 WELLS =           0.0000
            RECHARGE =    26413200.0000              RECHARGE =       27600.0000
      STREAM LEAKAGE =     7224462.6703        STREAM LEAKAGE =        6770.2497

            TOTAL IN =   239018195.4132              TOTAL IN =      200117.3407

          OUT:                                     OUT:
          ----                                     ----
             STORAGE =     2869806.7016               STORAGE =        3773.3947
       CONSTANT HEAD =           0.0000         CONSTANT HEAD =           0.0000
               WELLS =    88238586.5778                 WELLS =       74349.0996
            RECHARGE =           0.0000              RECHARGE =           0.0000
      STREAM LEAKAGE =   147909803.1312        STREAM LEAKAGE =      121994.8456

           TOTAL OUT =   239018196.4106             TOTAL OUT =      200117.3398

            IN - OUT =          -0.9974              IN - OUT =       8.3636E-04

 PERCENT DISCREPANCY =          -0.00     PERCENT DISCREPANCY =           0.00






         TIME SUMMARY AT END OF TIME STEP    1 IN STRESS PERIOD   12
                    SECONDS     MINUTES      HOURS       DAYS        YEARS
                    -----------------------------------------------------------
   TIME STEP LENGTH 7.86240E+06 1.31040E+05  2184.0      91.000     0.24914    
 STRESS PERIOD TIME 7.86240E+06 1.31040E+05  2184.0      91.000     0.24914    
         TOTAL TIME 9.46080E+07 1.57680E+06  26280.      1095.0      2.9979    
1

 Run end date and time (yyyy/mm/dd hh:mm:ss): 2018/10/08 23:36:22
 Elapsed run time:  0.056 Seconds

