                                  MODFLOW-2005     
      U.S. GEOLOGICAL SURVEY MODULAR FINITE-DIFFERENCE GROUND-WATER FLOW MODEL
                            VERSION 1.11.00 8/8/2013

 LIST FILE: supply2.lst
                         UNIT   10

 OPENING ..\data\supply.dis
 FILE TYPE:DIS   UNIT   11   STATUS:OLD    
 FORMAT:FORMATTED              ACCESS:SEQUENTIAL          

 OPENING ..\data\supply.ba6
 FILE TYPE:BAS6   UNIT   12   STATUS:OLD    
 FORMAT:FORMATTED              ACCESS:SEQUENTIAL          

 OPENING ..\data\supply_het.bc6
 FILE TYPE:BCF6   UNIT   13   STATUS:OLD    
 FORMAT:FORMATTED              ACCESS:SEQUENTIAL          

 OPENING ..\data\supply.rch
 FILE TYPE:RCH   UNIT   15   STATUS:OLD    
 FORMAT:FORMATTED              ACCESS:SEQUENTIAL          

 OPENING ..\data\supply2.sfr
 FILE TYPE:SFR   UNIT   16   STATUS:OLD    
 FORMAT:FORMATTED              ACCESS:SEQUENTIAL          

 OPENING ..\data\supply.oc
 FILE TYPE:OC   UNIT   17   STATUS:OLD    
 FORMAT:FORMATTED              ACCESS:SEQUENTIAL          

 OPENING ..\data\supply.pcg
 FILE TYPE:PCG   UNIT   18   STATUS:OLD    
 FORMAT:FORMATTED              ACCESS:SEQUENTIAL          

 OPENING supply2.wel
 FILE TYPE:WEL   UNIT   19   STATUS:OLD    
 FORMAT:FORMATTED              ACCESS:SEQUENTIAL          

 OPENING supply2sf.cbc
 FILE TYPE:DATA(BINARY)   UNIT   50   STATUS:UNKNOWN
 FORMAT:BINARY                 ACCESS:SEQUENTIAL          

 OPENING supply2hd.bhd
 FILE TYPE:DATA(BINARY)   UNIT   51   STATUS:UNKNOWN
 FORMAT:BINARY                 ACCESS:SEQUENTIAL          

 BAS -- BASIC PACKAGE, VERSION 7, 5/2/2005 INPUT READ FROM UNIT   12
 
 MODFLOW was compiled using uniform precision
 Precision of REAL and DOUBLE PRECISION variables:          15

 DISCRETIZATION INPUT DATA READ FROM UNIT   11
    1 LAYERS        25 ROWS        30 COLUMNS
   12 STRESS PERIOD(S) IN SIMULATION
 MODEL TIME UNIT IS DAYS
 MODEL LENGTH UNIT IS UNDEFINED
  Confining bed flag for each layer:
   0

                     DELR =   200.000    

                     DELC =   200.000    

 TOP ELEVATION OF LAYER 1 =  100.0000    

   MODEL LAYER BOTTOM EL. =   0.00000     FOR LAYER   1


 STRESS PERIOD     LENGTH       TIME STEPS     MULTIPLIER FOR DELT    SS FLAG
 ----------------------------------------------------------------------------
        1         92.00000          1                    1.500         TR
        2         91.00000          1                    1.500         TR
        3         91.00000          1                    1.500         TR
        4         91.00000          1                    1.500         TR
        5         92.00000          1                    1.500         TR
        6         91.00000          1                    1.500         TR
        7         91.00000          1                    1.500         TR
        8         91.00000          1                    1.500         TR
        9         92.00000          1                    1.500         TR
       10         91.00000          1                    1.500         TR
       11         91.00000          1                    1.500         TR
       12         91.00000          1                    1.500         TR

 TRANSIENT SIMULATION



 
 #MODOFC transient water supply sample problem                                   
 #                                                                               
 THE FREE FORMAT OPTION HAS BEEN SELECTED



                     BOUNDARY ARRAY FOR LAYER   1
 READING ON UNIT   12 WITH FORMAT: (20I4)              

 AQUIFER HEAD WILL BE SET TO   0.0000     AT ALL NO-FLOW NODES (IBOUND=0).



                       INITIAL HEAD FOR LAYER   1
 READING ON UNIT   12 WITH FORMAT: (10F13.0)           

 OUTPUT CONTROL IS SPECIFIED ONLY AT TIME STEPS FOR WHICH OUTPUT IS DESIRED
 COMPACT CELL-BY-CELL BUDGET FILES WILL BE WRITTEN
 HEAD PRINT FORMAT CODE IS  18    DRAWDOWN PRINT FORMAT CODE IS   0
 HEADS WILL BE SAVED ON UNIT   51    DRAWDOWNS WILL BE SAVED ON UNIT    0

 BCF -- BLOCK-CENTERED FLOW PACKAGE, VERSION 7, 5/2/2005
         INPUT READ FROM UNIT 13
 TRANSIENT SIMULATION
 HEAD AT CELLS THAT CONVERT TO DRY=   0.0000    
 WETTING CAPABILITY IS NOT ACTIVE
      LAYER  LAYER-TYPE CODE     INTERBLOCK T
      --------------------------------------------
         1            0          0 -- HARMONIC    

 COLUMN TO ROW ANISOTROPY =  1.000000    

     PRIMARY STORAGE COEF =  5.000000E-02 FOR LAYER   1



               TRANSMIS. ALONG ROWS FOR LAYER   1
 READING ON UNIT   13 WITH FORMAT: (FREE)              

 WEL -- WELL PACKAGE, VERSION 7, 5/2/2005 INPUT READ FROM UNIT   19
 # Well package input file written by MMProc
 No named parameters
 MAXIMUM OF      4 ACTIVE WELLS AT ONE TIME


     0 Well parameters

 RCH -- RECHARGE PACKAGE, VERSION 7, 5/2/2005 INPUT READ FROM UNIT   15
 No named parameters
 OPTION 1 -- RECHARGE TO TOP LAYER


     0 Recharge parameters

 SFR7 -- STREAMFLOW ROUTING PACKAGE, VERSION 1.0.7, 2013-01-15
         INPUT READ FROM UNIT  16
 #  Supply2 test problem for GWM-VI
 #  The eighth entry in the first data line is ISTCB2 -
 #    Setting this to a negative number indicates that
 #    streamflows out of the reach will be saved to a
 #    binary file.  The absolute value of ISTCB2 is the
 #    unit to which unformatted flows will be written.
 #
 No named parameters
 Segment information will not be 
 read by reach
 No named parameters
 No specifed inflow files


 NUMBER OF STREAM REACHES IS   40

 NUMBER OF STREAM SEGMENTS IS    3

 NUMBER OF STREAM PARAMETERS IS    0

 NUMBER OF STREAM SEGMENTS DEFINED USING PARAMETERS IS              0

 MAXIMUM ERROR FOR STREAM LEAKAGE RATES IS  1.00E-04

 CONSTANT FOR MANNINGS EQUATION IS  1.2839E+05





   STREAM NETWORK DESCRIPTION: 

   LAYER    ROW    COL   SEGMENT   REACH     LENGTH
                          NUMBER   NUMBER    IN CELL        
   --------------------------------------------------
      1     13      1       1        1    2.0000E+02
      1     13      2       1        2    2.0000E+02
      1     14      3       1        3    2.0000E+02
      1     15      4       1        4    2.0000E+02
      1     16      5       1        5    2.0000E+02
      1     16      6       1        6    2.0000E+02
      1     16      7       1        7    2.0000E+02
      1     16      8       1        8    2.0000E+02
      1     16      9       1        9    2.0000E+02
      1     16     10       1       10    2.0000E+02
      1     16     11       1       11    2.0000E+02
      1     16     12       1       12    2.0000E+02
      1     15     13       1       13    2.0000E+02
      1     14     14       1       14    2.0000E+02
      1     13     15       1       15    2.0000E+02
      1     12     16       1       16    2.0000E+02
      1     12     17       1       17    2.0000E+02
      1     12     18       1       18    2.0000E+02
      1     12     19       1       19    2.0000E+02
      1     13     20       1       20    2.0000E+02
      1     14     21       1       21    2.0000E+02
      1     14     22       1       22    2.0000E+02
      1      9     30       2        1    2.0000E+02
      1      9     29       2        2    2.0000E+02
      1      9     28       2        3    2.0000E+02
      1      9     27       2        4    2.0000E+02
      1     10     26       2        5    2.0000E+02
      1     11     25       2        6    2.0000E+02
      1     12     24       2        7    2.0000E+02
      1     13     23       2        8    2.0000E+02
      1     14     22       2        9    2.0000E+02
      1     14     22       3        1    2.0000E+02
      1     15     23       3        2    2.0000E+02
      1     15     24       3        3    2.0000E+02
      1     15     25       3        4    2.0000E+02
      1     15     26       3        5    2.0000E+02
      1     16     27       3        6    2.0000E+02
      1     17     28       3        7    2.0000E+02
      1     18     29       3        8    2.0000E+02
      1     18     30       3        9    2.0000E+02




 PCG -- CONJUGATE-GRADIENT SOLUTION PACKAGE, VERSION 7, 5/2/2005
 MAXIMUM OF    500 CALLS OF SOLUTION ROUTINE
 MAXIMUM OF      5 INTERNAL ITERATIONS PER CALL TO SOLUTION ROUTINE
 MATRIX PRECONDITIONING TYPE :    1



                                    SOLUTION BY THE CONJUGATE-GRADIENT METHOD
                                   -------------------------------------------
                    MAXIMUM NUMBER OF CALLS TO PCG ROUTINE =      500
                        MAXIMUM ITERATIONS PER CALL TO PCG =        5
                               MATRIX PRECONDITIONING TYPE =        1
        RELAXATION FACTOR (ONLY USED WITH PRECOND. TYPE 1) =    0.10000E+01
 PARAMETER OF POLYNOMIAL PRECOND. = 2 (2) OR IS CALCULATED :        0
                         HEAD CHANGE CRITERION FOR CLOSURE =    0.10000E-05
                     RESIDUAL CHANGE CRITERION FOR CLOSURE =    0.10000E+01
            PCG HEAD AND RESIDUAL CHANGE PRINTOUT INTERVAL =        1
     PRINTING FROM SOLVER IS LIMITED(1) OR SUPPRESSED (>1) =        1
                            STEADY-STATE DAMPING PARAMETER =    0.10000E+01
                               TRANSIENT DAMPING PARAMETER =    0.10000E+01
1
                            STRESS PERIOD NO.    1, LENGTH =   92.00000    
                            -----------------------------------------------

                              NUMBER OF TIME STEPS =     1

                               MULTIPLIER FOR DELT =     1.500

                            INITIAL TIME STEP SIZE =   92.00000    

 WELL NO.  LAYER   ROW   COL   STRESS RATE         
 --------------------------------------------------
      1      1     11     18      -9961.    
      2      1      5     20      -7658.    
      3      1     11     16      -434.0    
      4      1     11     19      -9596.    

      4 WELLS

                 RECHARGE =  5.000000E-04



 CLASSIFICATION & COUNT OF STREAM SEGMENTS BASED ON SOURCE OF INFLOW:

                HEADWATER     DIVERSION     RECEIVES TRIBUTARY FLOW
                ---------     ---------     -----------------------
                     2              0               1



                    INPUT DATA FOR EACH STREAM SEGMENT
 ---------------------------------------------------------------------------------------------

 SEGMENT    SEG.     INFLOW   OVERLAND   STREAM    STREAM   ICALC  OUTFLOW  DIVERSION PRIORITY
    NO.    LENGTH     RATE     RUNOFF      ET       PPT.    METH.  TO SEG.  FROM SEG.    NO.

      1  4.400E+03 1.000E+05 0.000E+00 0.000E+00 0.000E+00    1        3        0        0
      2  1.800E+03 5.000E+04 0.000E+00 0.000E+00 0.000E+00    1        3        0        0
      3  1.800E+03 0.000E+00 0.000E+00 0.000E+00 0.000E+00    1        0        0        0


         STREAMBED PROPERTIES AND STREAM DIMENSIONS

 SEGMENT     BED HYD. COND.      BED THICKNESS     ELEV.-TOP OF BED     WIDTH OF STREAM     DEPTH OF STREAM    STREAM ROUGHNESS
    No.     UPPER     LOWER     UPPER     LOWER     UPPER     LOWER     UPPER     LOWER     UPPER     LOWER   CHANNEL      BANK

     1  5.000E+00 5.000E+00 1.000E+00 1.000E+00 4.850E+01 3.800E+01 2.000E+01 2.000E+01                     5.000E-02
     2  5.000E+00 5.000E+00 1.000E+00 1.000E+00 4.025E+01 3.800E+01 2.000E+01 2.000E+01                     5.000E-02
     3  5.000E+00 5.000E+00 1.000E+00 1.000E+00 3.800E+01 3.000E+01 2.000E+01 2.000E+01                     5.000E-02



 
 SOLVING FOR HEAD 


     9 CALLS TO PCG ROUTINE FOR TIME STEP   1 IN STRESS PERIOD    1
    36 TOTAL ITERATIONS

 OUTPUT CONTROL FOR STRESS PERIOD    1   TIME STEP    1
    SAVE BUDGET
    SAVE HEAD FOR ALL LAYERS
    PRINT HEAD FOR ALL LAYERS
 UBDSV2 SAVING "STREAMFLOW OUT  " ON UNIT  50 AT TIME STEP  1, STRESS PERIOD   1



 STREAM LISTING     PERIOD      1   STEP        1

 LAYER ROW COL. STREAM  RCH.  FLOW INTO     FLOW TO   FLOW OUT OF   OVRLND.     DIRECT     STREAM       STREAM     STREAM     STREAM   STREAMBED  STREAMBED
                SEG.NO.  NO.  STRM. RCH.    AQUIFER    STRM. RCH.    RUNOFF     PRECIP       ET          HEAD       DEPTH      WIDTH   CONDCTNC.   GRADIENT

   1   13    1     1     1    1.0000E+05 -6.1183E+03   1.0612E+05  0.000E+00  0.000E+00  0.000E+00  4.84087E+01  1.473E-01  2.000E+01  2.000E+04 -3.059E-01
   1   13    2     1     2    1.0612E+05 -7.5876E+03   1.1371E+05  0.000E+00  0.000E+00  0.000E+00  4.79372E+01  1.531E-01  2.000E+01  2.000E+04 -3.794E-01
   1   14    3     1     3    1.1371E+05 -2.1989E+03   1.1590E+05  0.000E+00  0.000E+00  0.000E+00  4.74640E+01  1.571E-01  2.000E+01  2.000E+04 -1.099E-01
   1   15    4     1     4    1.1590E+05 -2.2704E+03   1.1818E+05  0.000E+00  0.000E+00  0.000E+00  4.69885E+01  1.590E-01  2.000E+01  2.000E+04 -1.135E-01
   1   16    5     1     5    1.1818E+05 -7.1870E+03   1.2536E+05  0.000E+00  0.000E+00  0.000E+00  4.65151E+01  1.628E-01  2.000E+01  2.000E+04 -3.593E-01
   1   16    6     1     6    1.2536E+05 -4.3051E+03   1.2967E+05  0.000E+00  0.000E+00  0.000E+00  4.60424E+01  1.674E-01  2.000E+01  2.000E+04 -2.153E-01
   1   16    7     1     7    1.2967E+05 -4.1404E+03   1.3381E+05  0.000E+00  0.000E+00  0.000E+00  4.55684E+01  1.707E-01  2.000E+01  2.000E+04 -2.070E-01
   1   16    8     1     8    1.3381E+05 -4.1001E+03   1.3791E+05  0.000E+00  0.000E+00  0.000E+00  4.50943E+01  1.739E-01  2.000E+01  2.000E+04 -2.050E-01
   1   16    9     1     9    1.3791E+05 -4.0901E+03   1.4200E+05  0.000E+00  0.000E+00  0.000E+00  4.46202E+01  1.770E-01  2.000E+01  2.000E+04 -2.045E-01
   1   16   10     1    10    1.4200E+05 -4.0883E+03   1.4609E+05  0.000E+00  0.000E+00  0.000E+00  4.41460E+01  1.801E-01  2.000E+01  2.000E+04 -2.044E-01
   1   16   11     1    11    1.4609E+05 -4.1247E+03   1.5021E+05  0.000E+00  0.000E+00  0.000E+00  4.36718E+01  1.831E-01  2.000E+01  2.000E+04 -2.062E-01
   1   16   12     1    12    1.5021E+05 -7.0005E+03   1.5721E+05  0.000E+00  0.000E+00  0.000E+00  4.31986E+01  1.872E-01  2.000E+01  2.000E+04 -3.500E-01
   1   15   13     1    13    1.5721E+05 -7.2746E+03   1.6449E+05  0.000E+00  0.000E+00  0.000E+00  4.27265E+01  1.924E-01  2.000E+01  2.000E+04 -3.637E-01
   1   14   14     1    14    1.6449E+05 -7.6994E+03   1.7219E+05  0.000E+00  0.000E+00  0.000E+00  4.22545E+01  1.977E-01  2.000E+01  2.000E+04 -3.850E-01
   1   13   15     1    15    1.7219E+05 -7.8597E+03   1.8004E+05  0.000E+00  0.000E+00  0.000E+00  4.17827E+01  2.031E-01  2.000E+01  2.000E+04 -3.930E-01
   1   12   16     1    16    1.8004E+05 -7.5778E+03   1.8762E+05  0.000E+00  0.000E+00  0.000E+00  4.13107E+01  2.084E-01  2.000E+01  2.000E+04 -3.789E-01
   1   12   17     1    17    1.8762E+05 -4.3094E+03   1.9193E+05  0.000E+00  0.000E+00  0.000E+00  4.08375E+01  2.125E-01  2.000E+01  2.000E+04 -2.155E-01
   1   12   18     1    18    1.9193E+05 -1.4158E+03   1.9335E+05  0.000E+00  0.000E+00  0.000E+00  4.03621E+01  2.144E-01  2.000E+01  2.000E+04 -7.079E-02
   1   12   19     1    19    1.9335E+05 -2.3615E+03   1.9571E+05  0.000E+00  0.000E+00  0.000E+00  3.98861E+01  2.156E-01  2.000E+01  2.000E+04 -1.181E-01
   1   13   20     1    20    1.9571E+05 -5.8623E+03   2.0157E+05  0.000E+00  0.000E+00  0.000E+00  3.94115E+01  2.184E-01  2.000E+01  2.000E+04 -2.931E-01
   1   14   21     1    21    2.0157E+05 -6.2090E+03   2.0778E+05  0.000E+00  0.000E+00  0.000E+00  3.89382E+01  2.223E-01  2.000E+01  2.000E+04 -3.105E-01
   1   14   22     1    22    2.0778E+05  3.6573E+03   2.0412E+05  0.000E+00  0.000E+00  0.000E+00  3.84618E+01  2.231E-01  2.000E+01  2.000E+04  1.829E-01
   1    9   30     2     1    5.0000E+04 -4.7843E+03   5.4784E+04  0.000E+00  0.000E+00  0.000E+00  4.02442E+01  1.192E-01  2.000E+01  2.000E+04 -2.392E-01
   1    9   29     2     2    5.4784E+04 -5.0668E+03   5.9851E+04  0.000E+00  0.000E+00  0.000E+00  4.00008E+01  1.258E-01  2.000E+01  2.000E+04 -2.533E-01
   1    9   28     2     3    5.9851E+04 -5.3176E+03   6.5169E+04  0.000E+00  0.000E+00  0.000E+00  3.97575E+01  1.325E-01  2.000E+01  2.000E+04 -2.659E-01
   1    9   27     2     4    6.5169E+04 -7.9647E+03   7.3133E+04  0.000E+00  0.000E+00  0.000E+00  3.95158E+01  1.408E-01  2.000E+01  2.000E+04 -3.982E-01
   1   10   26     2     5    7.3133E+04 -6.9800E+03   8.0113E+04  0.000E+00  0.000E+00  0.000E+00  3.92747E+01  1.497E-01  2.000E+01  2.000E+04 -3.490E-01
   1   11   25     2     6    8.0113E+04 -6.3684E+03   8.6482E+04  0.000E+00  0.000E+00  0.000E+00  3.90324E+01  1.574E-01  2.000E+01  2.000E+04 -3.184E-01
   1   12   24     2     7    8.6482E+04 -5.7611E+03   9.2243E+04  0.000E+00  0.000E+00  0.000E+00  3.87892E+01  1.642E-01  2.000E+01  2.000E+04 -2.881E-01
   1   13   23     2     8    9.2243E+04 -1.5504E+03   9.3793E+04  0.000E+00  0.000E+00  0.000E+00  3.85432E+01  1.682E-01  2.000E+01  2.000E+04 -7.752E-02
   1   14   22     2     9    9.3793E+04  2.9835E+02   9.3495E+04  0.000E+00  0.000E+00  0.000E+00  3.82938E+01  1.688E-01  2.000E+01  2.000E+04  1.492E-02
   1   14   22     3     1    2.9762E+05 -9.8030E+03   3.0742E+05  0.000E+00  0.000E+00  0.000E+00  3.77888E+01  2.332E-01  2.000E+01  2.000E+04 -4.901E-01
   1   15   23     3     2    3.0742E+05 -1.9886E+03   3.0941E+05  0.000E+00  0.000E+00  0.000E+00  3.69026E+01  2.359E-01  2.000E+01  2.000E+04 -9.943E-02
   1   15   24     3     3    3.0941E+05 -1.5301E+03   3.1094E+05  0.000E+00  0.000E+00  0.000E+00  3.60145E+01  2.367E-01  2.000E+01  2.000E+04 -7.651E-02
   1   15   25     3     4    3.1094E+05 -1.5797E+03   3.1252E+05  0.000E+00  0.000E+00  0.000E+00  3.51263E+01  2.374E-01  2.000E+01  2.000E+04 -7.898E-02
   1   15   26     3     5    3.1252E+05 -1.8831E+03   3.1440E+05  0.000E+00  0.000E+00  0.000E+00  3.42382E+01  2.382E-01  2.000E+01  2.000E+04 -9.415E-02
   1   16   27     3     6    3.1440E+05 -2.1649E+03   3.1657E+05  0.000E+00  0.000E+00  0.000E+00  3.33503E+01  2.392E-01  2.000E+01  2.000E+04 -1.082E-01
   1   17   28     3     7    3.1657E+05 -6.5810E+03   3.2315E+05  0.000E+00  0.000E+00  0.000E+00  3.24634E+01  2.411E-01  2.000E+01  2.000E+04 -3.291E-01
   1   18   29     3     8    3.2315E+05 -7.9956E+03   3.3114E+05  0.000E+00  0.000E+00  0.000E+00  3.15778E+01  2.444E-01  2.000E+01  2.000E+04 -3.998E-01
   1   18   30     3     9    3.3114E+05 -7.1755E+03   3.3832E+05  0.000E+00  0.000E+00  0.000E+00  3.06923E+01  2.478E-01  2.000E+01  2.000E+04 -3.588E-01



1
              HEAD IN LAYER   1 AT END OF TIME STEP   1 IN STRESS PERIOD    1
  ---------------------------------------------------------------------------

          1      2      3      4      5      6      7      8      9     10
         11     12     13     14     15     16     17     18     19     20
         21     22     23     24     25     26     27     28     29     30
 .........................................................................
   1  ****** ****** ****** ****** ****** ****** ****** ****** ****** ******
      ****** ****** ****** ****** ****** ****** ****** ****** ****** ******
      ****** ****** ****** ****** ****** ****** ****** ****** ****** ******
   2  ****** ****** ****** ****** ****** ****** ****** ****** ****** ******
      ****** ****** ****** ****** ****** ****** ****** ****** ****** ******
      ****** ****** ****** ****** ****** ****** ****** ****** ****** ******
   3  ****** ****** ****** ****** ****** ****** ****** ****** ****** ******
      ****** ****** ****** ****** ****** ****** ****** ****** ****** ******
      ****** ****** ****** ****** ****** ****** ****** ****** ****** ******
   4  ****** ****** ****** ****** ****** ****** ****** ****** ****** ******
      ****** ****** ****** ****** ****** ****** ****** ****** ****** ******
      ****** ****** ****** ****** ****** ****** ****** ****** ****** ******
   5  ****** ****** ****** ****** ****** ****** ****** ****** ****** ******
      ****** ****** ****** ****** ****** ****** ****** ****** ****** ******
      ****** ****** ****** ****** ****** ****** ****** ****** ****** ******
   6  ****** ****** ****** ****** ****** ****** ****** ****** ****** ******
      ****** ****** ****** ****** ****** ****** ****** ****** ****** ******
      ****** ****** ****** ****** ****** ****** ****** ****** ****** ******
   7  ****** ****** ****** ****** ****** ****** ****** ****** ****** ******
      ****** ****** ****** ****** ****** ****** ****** ****** ****** ******
      ****** ****** ****** ****** ****** ****** ****** ****** ****** ******
   8  ****** ****** ****** ****** ****** ****** ****** ****** ****** ******
      ****** ****** ****** ****** ****** ****** ****** ****** ****** ******
      ****** ****** ****** ****** ****** ****** ****** ****** ****** ******
   9  ****** ****** ****** ****** ****** ****** ****** ****** ****** ******
      ****** ****** ****** ****** ****** ****** ****** ****** ****** ******
      ****** ****** ****** ****** ****** ****** ****** ****** ****** ******
  10  ****** ****** ****** ****** ****** ****** ****** ****** ****** ******
      ****** ****** ****** ****** ****** ****** ****** ****** ****** ******
      ****** ****** ****** ****** ****** ****** ****** ****** ****** ******
  11  ****** ****** ****** ****** ****** ****** ****** ****** ****** ******
      ****** ****** ****** ****** ****** ****** ****** ****** ****** ******
      ****** ****** ****** ****** ****** ****** ****** ****** ****** ******
  12  ****** ****** ****** ****** ****** ****** ****** ****** ****** ******
      ****** ****** ****** ****** ****** ****** ****** ****** ****** ******
      ****** ****** ****** ****** ****** ****** ****** ****** ****** ******
  13  ****** ****** ****** ****** ****** ****** ****** ****** ****** ******
      ****** ****** ****** ****** ****** ****** ****** ****** ****** ******
      ****** ****** ****** ****** ****** ****** ****** ****** ****** ******
  14  ****** ****** ****** ****** ****** ****** ****** ****** ****** ******
      ****** ****** ****** ****** ****** ****** ****** ****** ****** ******
      ****** ****** ****** ****** ****** ****** ****** ****** ****** ******
  15  ****** ****** ****** ****** ****** ****** ****** ****** ****** ******
      ****** ****** ****** ****** ****** ****** ****** ****** ****** ******
      ****** ****** ****** ****** ****** ****** ****** ****** ****** ******
  16  ****** ****** ****** ****** ****** ****** ****** ****** ****** ******
      ****** ****** ****** ****** ****** ****** ****** ****** ****** ******
      ****** ****** ****** ****** ****** ****** ****** ****** ****** ******
  17  ****** ****** ****** ****** ****** ****** ****** ****** ****** ******
      ****** ****** ****** ****** ****** ****** ****** ****** ****** ******
      ****** ****** ****** ****** ****** ****** ****** ****** ****** ******
  18  ****** ****** ****** ****** ****** ****** ****** ****** ****** ******
      ****** ****** ****** ****** ****** ****** ****** ****** ****** ******
      ****** ****** ****** ****** ****** ****** ****** ****** ****** ******
  19  ****** ****** ****** ****** ****** ****** ****** ****** ****** ******
      ****** ****** ****** ****** ****** ****** ****** ****** ****** ******
      ****** ****** ****** ****** ****** ****** ****** ****** ****** ******
  20  ****** ****** ****** ****** ****** ****** ****** ****** ****** ******
      ****** ****** ****** ****** ****** ****** ****** ****** ****** ******
      ****** ****** ****** ****** ****** ****** ****** ****** ****** ******
  21  ****** ****** ****** ****** ****** ****** ****** ****** ****** ******
      ****** ****** ****** ****** ****** ****** ****** ****** ****** ******
      ****** ****** ****** ****** ****** ****** ****** ****** ****** ******
  22  ****** ****** ****** ****** ****** ****** ****** ****** ****** ******
      ****** ****** ****** ****** ****** ****** ****** ****** ****** ******
      ****** ****** ****** ****** ****** ****** ****** ****** ****** ******
  23  ****** ****** ****** ****** ****** ****** ****** ****** ****** ******
      ****** ****** ****** ****** ****** ****** ****** ****** ****** ******
      ****** ****** ****** ****** ****** ****** ****** ****** ****** ******
  24  ****** ****** ****** ****** ****** ****** ****** ****** ****** ******
      ****** ****** ****** ****** ****** ****** ****** ****** ****** ******
      ****** ****** ****** ****** ****** ****** ****** ****** ****** ******
  25  ****** ****** ****** ****** ****** ****** ****** ****** ****** ******
      ****** ****** ****** ****** ****** ****** ****** ****** ****** ******
      ****** ****** ****** ****** ****** ****** ****** ****** ****** ******

 HEAD WILL BE SAVED ON UNIT   51 AT END OF TIME STEP    1, STRESS PERIOD    1
1
  VOLUMETRIC BUDGET FOR ENTIRE MODEL AT END OF TIME STEP    1, STRESS PERIOD   1
  ------------------------------------------------------------------------------

     CUMULATIVE VOLUMES      L**3       RATES FOR THIS TIME STEP      L**3/T
     ------------------                 ------------------------

           IN:                                      IN:
           ---                                      ---
             STORAGE =    17451784.2204               STORAGE =      189693.3067
       CONSTANT HEAD =     1147760.7706         CONSTANT HEAD =       12475.6606
               WELLS =           0.0000                 WELLS =           0.0000
            RECHARGE =     1269600.0000              RECHARGE =       13800.0000
      STREAM LEAKAGE =      363916.5686        STREAM LEAKAGE =        3955.6149

            TOTAL IN =    20233061.5596              TOTAL IN =      219924.5822

          OUT:                                     OUT:
          ----                                     ----
             STORAGE =           0.0000               STORAGE =           0.0000
       CONSTANT HEAD =           0.0000         CONSTANT HEAD =           0.0000
               WELLS =     2543703.6459                 WELLS =       27648.9527
            RECHARGE =           0.0000              RECHARGE =           0.0000
      STREAM LEAKAGE =    17689358.2032        STREAM LEAKAGE =      192275.6326

           TOTAL OUT =    20233061.8491             TOTAL OUT =      219924.5853

            IN - OUT =          -0.2895              IN - OUT =      -3.1465E-03

 PERCENT DISCREPANCY =          -0.00     PERCENT DISCREPANCY =          -0.00






         TIME SUMMARY AT END OF TIME STEP    1 IN STRESS PERIOD    1
                    SECONDS     MINUTES      HOURS       DAYS        YEARS
                    -----------------------------------------------------------
   TIME STEP LENGTH 7.94880E+06 1.32480E+05  2208.0      92.000     0.25188    
 STRESS PERIOD TIME 7.94880E+06 1.32480E+05  2208.0      92.000     0.25188    
         TOTAL TIME 7.94880E+06 1.32480E+05  2208.0      92.000     0.25188    
1
1
                            STRESS PERIOD NO.    2, LENGTH =   91.00000    
                            -----------------------------------------------

                              NUMBER OF TIME STEPS =     1

                               MULTIPLIER FOR DELT =     1.500

                            INITIAL TIME STEP SIZE =   91.00000    

 WELL NO.  LAYER   ROW   COL   STRESS RATE         
 --------------------------------------------------
      1      1     11     18      -9961.    
      2      1      5     20      -7658.    
      3      1     11     16      -434.0    
      4      1     11     19      -9596.    

      4 WELLS

                 RECHARGE =  2.000000E-03

 REUSING STREAM SEGMENT DATA FROM LAST STRESS PERIOD
 
 SOLVING FOR HEAD 


     7 CALLS TO PCG ROUTINE FOR TIME STEP   1 IN STRESS PERIOD    2
    27 TOTAL ITERATIONS

 OUTPUT CONTROL FOR STRESS PERIOD    2   TIME STEP    1
    SAVE BUDGET
    SAVE HEAD FOR ALL LAYERS
    PRINT HEAD FOR ALL LAYERS
 UBDSV2 SAVING "STREAMFLOW OUT  " ON UNIT  50 AT TIME STEP  1, STRESS PERIOD   2



 STREAM LISTING     PERIOD      2   STEP        1

 LAYER ROW COL. STREAM  RCH.  FLOW INTO     FLOW TO   FLOW OUT OF   OVRLND.     DIRECT     STREAM       STREAM     STREAM     STREAM   STREAMBED  STREAMBED
                SEG.NO.  NO.  STRM. RCH.    AQUIFER    STRM. RCH.    RUNOFF     PRECIP       ET          HEAD       DEPTH      WIDTH   CONDCTNC.   GRADIENT

   1   13    1     1     1    1.0000E+05 -3.9962E+03   1.0400E+05  0.000E+00  0.000E+00  0.000E+00  4.84077E+01  1.464E-01  2.000E+01  2.000E+04 -1.998E-01
   1   13    2     1     2    1.0400E+05 -5.2575E+03   1.0925E+05  0.000E+00  0.000E+00  0.000E+00  4.79344E+01  1.503E-01  2.000E+01  2.000E+04 -2.629E-01
   1   14    3     1     3    1.0925E+05 -1.1159E+03   1.1037E+05  0.000E+00  0.000E+00  0.000E+00  4.74598E+01  1.530E-01  2.000E+01  2.000E+04 -5.579E-02
   1   15    4     1     4    1.1037E+05 -1.1442E+03   1.1151E+05  0.000E+00  0.000E+00  0.000E+00  4.69835E+01  1.540E-01  2.000E+01  2.000E+04 -5.721E-02
   1   16    5     1     5    1.1151E+05 -4.2600E+03   1.1577E+05  0.000E+00  0.000E+00  0.000E+00  4.65085E+01  1.562E-01  2.000E+01  2.000E+04 -2.130E-01
   1   16    6     1     6    1.1577E+05 -2.5121E+03   1.1829E+05  0.000E+00  0.000E+00  0.000E+00  4.60340E+01  1.590E-01  2.000E+01  2.000E+04 -1.256E-01
   1   16    7     1     7    1.1829E+05 -2.4187E+03   1.2070E+05  0.000E+00  0.000E+00  0.000E+00  4.55587E+01  1.610E-01  2.000E+01  2.000E+04 -1.209E-01
   1   16    8     1     8    1.2070E+05 -2.3907E+03   1.2310E+05  0.000E+00  0.000E+00  0.000E+00  4.50834E+01  1.629E-01  2.000E+01  2.000E+04 -1.195E-01
   1   16    9     1     9    1.2310E+05 -2.3714E+03   1.2547E+05  0.000E+00  0.000E+00  0.000E+00  4.46080E+01  1.648E-01  2.000E+01  2.000E+04 -1.186E-01
   1   16   10     1    10    1.2547E+05 -2.3490E+03   1.2782E+05  0.000E+00  0.000E+00  0.000E+00  4.41326E+01  1.667E-01  2.000E+01  2.000E+04 -1.174E-01
   1   16   11     1    11    1.2782E+05 -2.3575E+03   1.3017E+05  0.000E+00  0.000E+00  0.000E+00  4.36572E+01  1.685E-01  2.000E+01  2.000E+04 -1.179E-01
   1   16   12     1    12    1.3017E+05 -4.1328E+03   1.3431E+05  0.000E+00  0.000E+00  0.000E+00  4.31824E+01  1.711E-01  2.000E+01  2.000E+04 -2.066E-01
   1   15   13     1    13    1.3431E+05 -4.0359E+03   1.3834E+05  0.000E+00  0.000E+00  0.000E+00  4.27083E+01  1.742E-01  2.000E+01  2.000E+04 -2.018E-01
   1   14   14     1    14    1.3834E+05 -4.3123E+03   1.4265E+05  0.000E+00  0.000E+00  0.000E+00  4.22342E+01  1.774E-01  2.000E+01  2.000E+04 -2.156E-01
   1   13   15     1    15    1.4265E+05 -4.4233E+03   1.4708E+05  0.000E+00  0.000E+00  0.000E+00  4.17602E+01  1.807E-01  2.000E+01  2.000E+04 -2.212E-01
   1   12   16     1    16    1.4708E+05 -4.1698E+03   1.5125E+05  0.000E+00  0.000E+00  0.000E+00  4.12861E+01  1.839E-01  2.000E+01  2.000E+04 -2.085E-01
   1   12   17     1    17    1.5125E+05 -1.5785E+03   1.5283E+05  0.000E+00  0.000E+00  0.000E+00  4.08110E+01  1.860E-01  2.000E+01  2.000E+04 -7.893E-02
   1   12   18     1    18    1.5283E+05  1.3821E+03   1.5144E+05  0.000E+00  0.000E+00  0.000E+00  4.03338E+01  1.861E-01  2.000E+01  2.000E+04  6.911E-02
   1   12   19     1    19    1.5144E+05  1.1873E+03   1.5026E+05  0.000E+00  0.000E+00  0.000E+00  3.98556E+01  1.851E-01  2.000E+01  2.000E+04  5.936E-02
   1   13   20     1    20    1.5026E+05 -2.5982E+03   1.5285E+05  0.000E+00  0.000E+00  0.000E+00  3.93788E+01  1.856E-01  2.000E+01  2.000E+04 -1.299E-01
   1   14   21     1    21    1.5285E+05 -3.4701E+03   1.5632E+05  0.000E+00  0.000E+00  0.000E+00  3.89038E+01  1.879E-01  2.000E+01  2.000E+04 -1.735E-01
   1   14   22     1    22    1.5632E+05  4.4214E+03   1.5190E+05  0.000E+00  0.000E+00  0.000E+00  3.84261E+01  1.875E-01  2.000E+01  2.000E+04  2.211E-01
   1    9   30     2     1    5.0000E+04 -2.0114E+03   5.2011E+04  0.000E+00  0.000E+00  0.000E+00  4.02423E+01  1.173E-01  2.000E+01  2.000E+04 -1.006E-01
   1    9   29     2     2    5.2011E+04 -2.3003E+03   5.4312E+04  0.000E+00  0.000E+00  0.000E+00  3.99952E+01  1.202E-01  2.000E+01  2.000E+04 -1.150E-01
   1    9   28     2     3    5.4312E+04 -2.5501E+03   5.6862E+04  0.000E+00  0.000E+00  0.000E+00  3.97485E+01  1.235E-01  2.000E+01  2.000E+04 -1.275E-01
   1    9   27     2     4    5.6862E+04 -4.3132E+03   6.1175E+04  0.000E+00  0.000E+00  0.000E+00  3.95030E+01  1.280E-01  2.000E+01  2.000E+04 -2.157E-01
   1   10   26     2     5    6.1175E+04 -3.2070E+03   6.4382E+04  0.000E+00  0.000E+00  0.000E+00  3.92578E+01  1.328E-01  2.000E+01  2.000E+04 -1.603E-01
   1   11   25     2     6    6.4382E+04 -2.7489E+03   6.7131E+04  0.000E+00  0.000E+00  0.000E+00  3.90116E+01  1.366E-01  2.000E+01  2.000E+04 -1.374E-01
   1   12   24     2     7    6.7131E+04 -2.4821E+03   6.9613E+04  0.000E+00  0.000E+00  0.000E+00  3.87648E+01  1.398E-01  2.000E+01  2.000E+04 -1.241E-01
   1   13   23     2     8    6.9613E+04 -4.7646E+02   7.0089E+04  0.000E+00  0.000E+00  0.000E+00  3.85166E+01  1.416E-01  2.000E+01  2.000E+04 -2.382E-02
   1   14   22     2     9    7.0089E+04  1.2214E+03   6.8868E+04  0.000E+00  0.000E+00  0.000E+00  3.82662E+01  1.412E-01  2.000E+01  2.000E+04  6.107E-02
   1   14   22     3     1    2.2077E+05 -9.0821E+03   2.2985E+05  0.000E+00  0.000E+00  0.000E+00  3.77510E+01  1.954E-01  2.000E+01  2.000E+04 -4.541E-01
   1   15   23     3     2    2.2985E+05 -1.0546E+03   2.3091E+05  0.000E+00  0.000E+00  0.000E+00  3.68647E+01  1.980E-01  2.000E+01  2.000E+04 -5.273E-02
   1   15   24     3     3    2.3091E+05 -6.6549E+02   2.3157E+05  0.000E+00  0.000E+00  0.000E+00  3.59763E+01  1.985E-01  2.000E+01  2.000E+04 -3.327E-02
   1   15   25     3     4    2.3157E+05 -6.7153E+02   2.3225E+05  0.000E+00  0.000E+00  0.000E+00  3.50877E+01  1.988E-01  2.000E+01  2.000E+04 -3.358E-02
   1   15   26     3     5    2.3225E+05 -7.7314E+02   2.3302E+05  0.000E+00  0.000E+00  0.000E+00  3.41992E+01  1.992E-01  2.000E+01  2.000E+04 -3.866E-02
   1   16   27     3     6    2.3302E+05 -8.9900E+02   2.3392E+05  0.000E+00  0.000E+00  0.000E+00  3.33107E+01  1.996E-01  2.000E+01  2.000E+04 -4.495E-02
   1   17   28     3     7    2.3392E+05 -3.2599E+03   2.3718E+05  0.000E+00  0.000E+00  0.000E+00  3.24229E+01  2.007E-01  2.000E+01  2.000E+04 -1.630E-01
   1   18   29     3     8    2.3718E+05 -5.0587E+03   2.4224E+05  0.000E+00  0.000E+00  0.000E+00  3.15362E+01  2.028E-01  2.000E+01  2.000E+04 -2.529E-01
   1   18   30     3     9    2.4224E+05 -4.6865E+03   2.4692E+05  0.000E+00  0.000E+00  0.000E+00  3.06497E+01  2.053E-01  2.000E+01  2.000E+04 -2.343E-01



1
              HEAD IN LAYER   1 AT END OF TIME STEP   1 IN STRESS PERIOD    2
  ---------------------------------------------------------------------------

          1      2      3      4      5      6      7      8      9     10
         11     12     13     14     15     16     17     18     19     20
         21     22     23     24     25     26     27     28     29     30
 .........................................................................
   1  ****** ****** ****** ****** ****** ****** ****** ****** ****** ******
      ****** ****** ****** ****** ****** ****** ****** ****** ****** ******
      ****** ****** ****** ****** ****** ****** ****** ****** ****** ******
   2  ****** ****** ****** ****** ****** ****** ****** ****** ****** ******
      ****** ****** ****** ****** ****** ****** ****** ****** ****** ******
      ****** ****** ****** ****** ****** ****** ****** ****** ****** ******
   3  ****** ****** ****** ****** ****** ****** ****** ****** ****** ******
      ****** ****** ****** ****** ****** ****** ****** ****** ****** ******
      ****** ****** ****** ****** ****** ****** ****** ****** ****** ******
   4  ****** ****** ****** ****** ****** ****** ****** ****** ****** ******
      ****** ****** ****** ****** ****** ****** ****** ****** ****** ******
      ****** ****** ****** ****** ****** ****** ****** ****** ****** ******
   5  ****** ****** ****** ****** ****** ****** ****** ****** ****** ******
      ****** ****** ****** ****** ****** ****** ****** ****** ****** ******
      ****** ****** ****** ****** ****** ****** ****** ****** ****** ******
   6  ****** ****** ****** ****** ****** ****** ****** ****** ****** ******
      ****** ****** ****** ****** ****** ****** ****** ****** ****** ******
      ****** ****** ****** ****** ****** ****** ****** ****** ****** ******
   7  ****** ****** ****** ****** ****** ****** ****** ****** ****** ******
      ****** ****** ****** ****** ****** ****** ****** ****** ****** ******
      ****** ****** ****** ****** ****** ****** ****** ****** ****** ******
   8  ****** ****** ****** ****** ****** ****** ****** ****** ****** ******
      ****** ****** ****** ****** ****** ****** ****** ****** ****** ******
      ****** ****** ****** ****** ****** ****** ****** ****** ****** ******
   9  ****** ****** ****** ****** ****** ****** ****** ****** ****** ******
      ****** ****** ****** ****** ****** ****** ****** ****** ****** ******
      ****** ****** ****** ****** ****** ****** ****** ****** ****** ******
  10  ****** ****** ****** ****** ****** ****** ****** ****** ****** ******
      ****** ****** ****** ****** ****** ****** ****** ****** ****** ******
      ****** ****** ****** ****** ****** ****** ****** ****** ****** ******
  11  ****** ****** ****** ****** ****** ****** ****** ****** ****** ******
      ****** ****** ****** ****** ****** ****** ****** ****** ****** ******
      ****** ****** ****** ****** ****** ****** ****** ****** ****** ******
  12  ****** ****** ****** ****** ****** ****** ****** ****** ****** ******
      ****** ****** ****** ****** ****** ****** ****** ****** ****** ******
      ****** ****** ****** ****** ****** ****** ****** ****** ****** ******
  13  ****** ****** ****** ****** ****** ****** ****** ****** ****** ******
      ****** ****** ****** ****** ****** ****** ****** ****** ****** ******
      ****** ****** ****** ****** ****** ****** ****** ****** ****** ******
  14  ****** ****** ****** ****** ****** ****** ****** ****** ****** ******
      ****** ****** ****** ****** ****** ****** ****** ****** ****** ******
      ****** ****** ****** ****** ****** ****** ****** ****** ****** ******
  15  ****** ****** ****** ****** ****** ****** ****** ****** ****** ******
      ****** ****** ****** ****** ****** ****** ****** ****** ****** ******
      ****** ****** ****** ****** ****** ****** ****** ****** ****** ******
  16  ****** ****** ****** ****** ****** ****** ****** ****** ****** ******
      ****** ****** ****** ****** ****** ****** ****** ****** ****** ******
      ****** ****** ****** ****** ****** ****** ****** ****** ****** ******
  17  ****** ****** ****** ****** ****** ****** ****** ****** ****** ******
      ****** ****** ****** ****** ****** ****** ****** ****** ****** ******
      ****** ****** ****** ****** ****** ****** ****** ****** ****** ******
  18  ****** ****** ****** ****** ****** ****** ****** ****** ****** ******
      ****** ****** ****** ****** ****** ****** ****** ****** ****** ******
      ****** ****** ****** ****** ****** ****** ****** ****** ****** ******
  19  ****** ****** ****** ****** ****** ****** ****** ****** ****** ******
      ****** ****** ****** ****** ****** ****** ****** ****** ****** ******
      ****** ****** ****** ****** ****** ****** ****** ****** ****** ******
  20  ****** ****** ****** ****** ****** ****** ****** ****** ****** ******
      ****** ****** ****** ****** ****** ****** ****** ****** ****** ******
      ****** ****** ****** ****** ****** ****** ****** ****** ****** ******
  21  ****** ****** ****** ****** ****** ****** ****** ****** ****** ******
      ****** ****** ****** ****** ****** ****** ****** ****** ****** ******
      ****** ****** ****** ****** ****** ****** ****** ****** ****** ******
  22  ****** ****** ****** ****** ****** ****** ****** ****** ****** ******
      ****** ****** ****** ****** ****** ****** ****** ****** ****** ******
      ****** ****** ****** ****** ****** ****** ****** ****** ****** ******
  23  ****** ****** ****** ****** ****** ****** ****** ****** ****** ******
      ****** ****** ****** ****** ****** ****** ****** ****** ****** ******
      ****** ****** ****** ****** ****** ****** ****** ****** ****** ******
  24  ****** ****** ****** ****** ****** ****** ****** ****** ****** ******
      ****** ****** ****** ****** ****** ****** ****** ****** ****** ******
      ****** ****** ****** ****** ****** ****** ****** ****** ****** ******
  25  ****** ****** ****** ****** ****** ****** ****** ****** ****** ******
      ****** ****** ****** ****** ****** ****** ****** ****** ****** ******
      ****** ****** ****** ****** ****** ****** ****** ****** ****** ******

 HEAD WILL BE SAVED ON UNIT   51 AT END OF TIME STEP    1, STRESS PERIOD    2
1
  VOLUMETRIC BUDGET FOR ENTIRE MODEL AT END OF TIME STEP    1, STRESS PERIOD   2
  ------------------------------------------------------------------------------

     CUMULATIVE VOLUMES      L**3       RATES FOR THIS TIME STEP      L**3/T
     ------------------                 ------------------------

           IN:                                      IN:
           ---                                      ---
             STORAGE =    22227027.2061               STORAGE =       52475.1976
       CONSTANT HEAD =     2685289.1381         CONSTANT HEAD =       16895.9161
               WELLS =           0.0000                 WELLS =           0.0000
            RECHARGE =     6292800.0000              RECHARGE =       55200.0000
      STREAM LEAKAGE =     1111228.5749        STREAM LEAKAGE =        8212.2198

            TOTAL IN =    32316344.9192              TOTAL IN =      132783.3336

          OUT:                                     OUT:
          ----                                     ----
             STORAGE =           0.0000               STORAGE =           0.0000
       CONSTANT HEAD =           0.0000         CONSTANT HEAD =           0.0000
               WELLS =     5059758.3392                 WELLS =       27648.9527
            RECHARGE =           0.0000              RECHARGE =           0.0000
      STREAM LEAKAGE =    27256587.7955        STREAM LEAKAGE =      105134.3911

           TOTAL OUT =    32316346.1347             TOTAL OUT =      132783.3438

            IN - OUT =          -1.2156              IN - OUT =      -1.0177E-02

 PERCENT DISCREPANCY =          -0.00     PERCENT DISCREPANCY =          -0.00






         TIME SUMMARY AT END OF TIME STEP    1 IN STRESS PERIOD    2
                    SECONDS     MINUTES      HOURS       DAYS        YEARS
                    -----------------------------------------------------------
   TIME STEP LENGTH 7.86240E+06 1.31040E+05  2184.0      91.000     0.24914    
 STRESS PERIOD TIME 7.86240E+06 1.31040E+05  2184.0      91.000     0.24914    
         TOTAL TIME 1.58112E+07 2.63520E+05  4392.0      183.00     0.50103    
1
1
                            STRESS PERIOD NO.    3, LENGTH =   91.00000    
                            -----------------------------------------------

                              NUMBER OF TIME STEPS =     1

                               MULTIPLIER FOR DELT =     1.500

                            INITIAL TIME STEP SIZE =   91.00000    

 WELL NO.  LAYER   ROW   COL   STRESS RATE         
 --------------------------------------------------
      1      1     11     18      -9961.    
      2      1      5     20      -7658.    
      3      1     11     16      -434.0    
      4      1     11     19      -9596.    

      4 WELLS

                 RECHARGE =   0.00000    

 REUSING STREAM SEGMENT DATA FROM LAST STRESS PERIOD
 
 SOLVING FOR HEAD 


     7 CALLS TO PCG ROUTINE FOR TIME STEP   1 IN STRESS PERIOD    3
    27 TOTAL ITERATIONS

 OUTPUT CONTROL FOR STRESS PERIOD    3   TIME STEP    1
    SAVE BUDGET
    SAVE HEAD FOR ALL LAYERS
    PRINT HEAD FOR ALL LAYERS
 UBDSV2 SAVING "STREAMFLOW OUT  " ON UNIT  50 AT TIME STEP  1, STRESS PERIOD   3



 STREAM LISTING     PERIOD      3   STEP        1

 LAYER ROW COL. STREAM  RCH.  FLOW INTO     FLOW TO   FLOW OUT OF   OVRLND.     DIRECT     STREAM       STREAM     STREAM     STREAM   STREAMBED  STREAMBED
                SEG.NO.  NO.  STRM. RCH.    AQUIFER    STRM. RCH.    RUNOFF     PRECIP       ET          HEAD       DEPTH      WIDTH   CONDCTNC.   GRADIENT

   1   13    1     1     1    1.0000E+05 -2.7410E+03   1.0274E+05  0.000E+00  0.000E+00  0.000E+00  4.84072E+01  1.458E-01  2.000E+01  2.000E+04 -1.371E-01
   1   13    2     1     2    1.0274E+05 -3.8483E+03   1.0659E+05  0.000E+00  0.000E+00  0.000E+00  4.79328E+01  1.487E-01  2.000E+01  2.000E+04 -1.924E-01
   1   14    3     1     3    1.0659E+05 -6.5502E+02   1.0724E+05  0.000E+00  0.000E+00  0.000E+00  4.74574E+01  1.506E-01  2.000E+01  2.000E+04 -3.275E-02
   1   15    4     1     4    1.0724E+05 -6.3964E+02   1.0788E+05  0.000E+00  0.000E+00  0.000E+00  4.69807E+01  1.511E-01  2.000E+01  2.000E+04 -3.198E-02
   1   16    5     1     5    1.0788E+05 -2.4714E+03   1.1036E+05  0.000E+00  0.000E+00  0.000E+00  4.65047E+01  1.524E-01  2.000E+01  2.000E+04 -1.236E-01
   1   16    6     1     6    1.1036E+05 -1.5129E+03   1.1187E+05  0.000E+00  0.000E+00  0.000E+00  4.60291E+01  1.541E-01  2.000E+01  2.000E+04 -7.565E-02
   1   16    7     1     7    1.1187E+05 -1.4778E+03   1.1335E+05  0.000E+00  0.000E+00  0.000E+00  4.55531E+01  1.553E-01  2.000E+01  2.000E+04 -7.389E-02
   1   16    8     1     8    1.1335E+05 -1.4682E+03   1.1481E+05  0.000E+00  0.000E+00  0.000E+00  4.50770E+01  1.565E-01  2.000E+01  2.000E+04 -7.341E-02
   1   16    9     1     9    1.1481E+05 -1.4539E+03   1.1627E+05  0.000E+00  0.000E+00  0.000E+00  4.46009E+01  1.577E-01  2.000E+01  2.000E+04 -7.270E-02
   1   16   10     1    10    1.1627E+05 -1.4327E+03   1.1770E+05  0.000E+00  0.000E+00  0.000E+00  4.41248E+01  1.589E-01  2.000E+01  2.000E+04 -7.164E-02
   1   16   11     1    11    1.1770E+05 -1.4370E+03   1.1914E+05  0.000E+00  0.000E+00  0.000E+00  4.36487E+01  1.601E-01  2.000E+01  2.000E+04 -7.185E-02
   1   16   12     1    12    1.1914E+05 -2.5329E+03   1.2167E+05  0.000E+00  0.000E+00  0.000E+00  4.31731E+01  1.617E-01  2.000E+01  2.000E+04 -1.266E-01
   1   15   13     1    13    1.2167E+05 -2.3801E+03   1.2405E+05  0.000E+00  0.000E+00  0.000E+00  4.26978E+01  1.637E-01  2.000E+01  2.000E+04 -1.190E-01
   1   14   14     1    14    1.2405E+05 -2.5930E+03   1.2664E+05  0.000E+00  0.000E+00  0.000E+00  4.22225E+01  1.657E-01  2.000E+01  2.000E+04 -1.296E-01
   1   13   15     1    15    1.2664E+05 -2.6761E+03   1.2932E+05  0.000E+00  0.000E+00  0.000E+00  4.17473E+01  1.677E-01  2.000E+01  2.000E+04 -1.338E-01
   1   12   16     1    16    1.2932E+05 -2.3059E+03   1.3163E+05  0.000E+00  0.000E+00  0.000E+00  4.12720E+01  1.697E-01  2.000E+01  2.000E+04 -1.153E-01
   1   12   17     1    17    1.3163E+05 -2.3535E+02   1.3186E+05  0.000E+00  0.000E+00  0.000E+00  4.07957E+01  1.707E-01  2.000E+01  2.000E+04 -1.177E-02
   1   12   18     1    18    1.3186E+05  2.7096E+03   1.2915E+05  0.000E+00  0.000E+00  0.000E+00  4.03174E+01  1.697E-01  2.000E+01  2.000E+04  1.355E-01
   1   12   19     1    19    1.2915E+05  2.8765E+03   1.2628E+05  0.000E+00  0.000E+00  0.000E+00  3.98380E+01  1.675E-01  2.000E+01  2.000E+04  1.438E-01
   1   13   20     1    20    1.2628E+05 -1.1102E+03   1.2739E+05  0.000E+00  0.000E+00  0.000E+00  3.93600E+01  1.668E-01  2.000E+01  2.000E+04 -5.551E-02
   1   14   21     1    21    1.2739E+05 -2.0083E+03   1.2939E+05  0.000E+00  0.000E+00  0.000E+00  3.88840E+01  1.681E-01  2.000E+01  2.000E+04 -1.004E-01
   1   14   22     1    22    1.2939E+05  4.7748E+03   1.2462E+05  0.000E+00  0.000E+00  0.000E+00  3.84056E+01  1.670E-01  2.000E+01  2.000E+04  2.387E-01
   1    9   30     2     1    5.0000E+04 -7.7898E+02   5.0779E+04  0.000E+00  0.000E+00  0.000E+00  4.02414E+01  1.164E-01  2.000E+01  2.000E+04 -3.895E-02
   1    9   29     2     2    5.0779E+04 -1.0664E+03   5.1845E+04  0.000E+00  0.000E+00  0.000E+00  3.99927E+01  1.177E-01  2.000E+01  2.000E+04 -5.332E-02
   1    9   28     2     3    5.1845E+04 -1.2947E+03   5.3140E+04  0.000E+00  0.000E+00  0.000E+00  3.97443E+01  1.193E-01  2.000E+01  2.000E+04 -6.473E-02
   1    9   27     2     4    5.3140E+04 -2.4737E+03   5.5614E+04  0.000E+00  0.000E+00  0.000E+00  3.94968E+01  1.218E-01  2.000E+01  2.000E+04 -1.237E-01
   1   10   26     2     5    5.5614E+04 -1.5000E+03   5.7114E+04  0.000E+00  0.000E+00  0.000E+00  3.92495E+01  1.245E-01  2.000E+01  2.000E+04 -7.500E-02
   1   11   25     2     6    5.7114E+04 -1.1589E+03   5.8273E+04  0.000E+00  0.000E+00  0.000E+00  3.90013E+01  1.263E-01  2.000E+01  2.000E+04 -5.795E-02
   1   12   24     2     7    5.8273E+04 -1.0536E+03   5.9326E+04  0.000E+00  0.000E+00  0.000E+00  3.87527E+01  1.277E-01  2.000E+01  2.000E+04 -5.268E-02
   1   13   23     2     8    5.9326E+04 -1.2935E+02   5.9456E+04  0.000E+00  0.000E+00  0.000E+00  3.85035E+01  1.285E-01  2.000E+01  2.000E+04 -6.467E-03
   1   14   22     2     9    5.9456E+04  1.7116E+03   5.7744E+04  0.000E+00  0.000E+00  0.000E+00  3.82524E+01  1.274E-01  2.000E+01  2.000E+04  8.558E-02
   1   14   22     3     1    1.8236E+05 -8.7342E+03   1.9110E+05  0.000E+00  0.000E+00  0.000E+00  3.77301E+01  1.746E-01  2.000E+01  2.000E+04 -4.367E-01
   1   15   23     3     2    1.9110E+05 -6.6903E+02   1.9177E+05  0.000E+00  0.000E+00  0.000E+00  3.68439E+01  1.772E-01  2.000E+01  2.000E+04 -3.345E-02
   1   15   24     3     3    1.9177E+05 -3.4557E+02   1.9211E+05  0.000E+00  0.000E+00  0.000E+00  3.59553E+01  1.775E-01  2.000E+01  2.000E+04 -1.728E-02
   1   15   25     3     4    1.9211E+05 -3.3444E+02   1.9245E+05  0.000E+00  0.000E+00  0.000E+00  3.50666E+01  1.777E-01  2.000E+01  2.000E+04 -1.672E-02
   1   15   26     3     5    1.9245E+05 -3.7054E+02   1.9282E+05  0.000E+00  0.000E+00  0.000E+00  3.41779E+01  1.779E-01  2.000E+01  2.000E+04 -1.853E-02
   1   16   27     3     6    1.9282E+05 -4.3550E+02   1.9325E+05  0.000E+00  0.000E+00  0.000E+00  3.32892E+01  1.781E-01  2.000E+01  2.000E+04 -2.177E-02
   1   17   28     3     7    1.9325E+05 -1.8551E+03   1.9511E+05  0.000E+00  0.000E+00  0.000E+00  3.24010E+01  1.787E-01  2.000E+01  2.000E+04 -9.275E-02
   1   18   29     3     8    1.9511E+05 -3.5563E+03   1.9866E+05  0.000E+00  0.000E+00  0.000E+00  3.15136E+01  1.802E-01  2.000E+01  2.000E+04 -1.778E-01
   1   18   30     3     9    1.9866E+05 -3.5587E+03   2.0222E+05  0.000E+00  0.000E+00  0.000E+00  3.06266E+01  1.822E-01  2.000E+01  2.000E+04 -1.779E-01



1
              HEAD IN LAYER   1 AT END OF TIME STEP   1 IN STRESS PERIOD    3
  ---------------------------------------------------------------------------

          1      2      3      4      5      6      7      8      9     10
         11     12     13     14     15     16     17     18     19     20
         21     22     23     24     25     26     27     28     29     30
 .........................................................................
   1  ****** ****** ****** ****** ****** ****** ****** ****** ****** ******
      ****** ****** ****** ****** ****** ****** ****** ****** ****** ******
      ****** ****** ****** ****** ****** ****** ****** ****** ****** ******
   2  ****** ****** ****** ****** ****** ****** ****** ****** ****** ******
      ****** ****** ****** ****** ****** ****** ****** ****** ****** ******
      ****** ****** ****** ****** ****** ****** ****** ****** ****** ******
   3  ****** ****** ****** ****** ****** ****** ****** ****** ****** ******
      ****** ****** ****** ****** ****** ****** ****** ****** ****** ******
      ****** ****** ****** ****** ****** ****** ****** ****** ****** ******
   4  ****** ****** ****** ****** ****** ****** ****** ****** ****** ******
      ****** ****** ****** ****** ****** ****** ****** ****** ****** ******
      ****** ****** ****** ****** ****** ****** ****** ****** ****** ******
   5  ****** ****** ****** ****** ****** ****** ****** ****** ****** ******
      ****** ****** ****** ****** ****** ****** ****** ****** ****** ******
      ****** ****** ****** ****** ****** ****** ****** ****** ****** ******
   6  ****** ****** ****** ****** ****** ****** ****** ****** ****** ******
      ****** ****** ****** ****** ****** ****** ****** ****** ****** ******
      ****** ****** ****** ****** ****** ****** ****** ****** ****** ******
   7  ****** ****** ****** ****** ****** ****** ****** ****** ****** ******
      ****** ****** ****** ****** ****** ****** ****** ****** ****** ******
      ****** ****** ****** ****** ****** ****** ****** ****** ****** ******
   8  ****** ****** ****** ****** ****** ****** ****** ****** ****** ******
      ****** ****** ****** ****** ****** ****** ****** ****** ****** ******
      ****** ****** ****** ****** ****** ****** ****** ****** ****** ******
   9  ****** ****** ****** ****** ****** ****** ****** ****** ****** ******
      ****** ****** ****** ****** ****** ****** ****** ****** ****** ******
      ****** ****** ****** ****** ****** ****** ****** ****** ****** ******
  10  ****** ****** ****** ****** ****** ****** ****** ****** ****** ******
      ****** ****** ****** ****** ****** ****** ****** ****** ****** ******
      ****** ****** ****** ****** ****** ****** ****** ****** ****** ******
  11  ****** ****** ****** ****** ****** ****** ****** ****** ****** ******
      ****** ****** ****** ****** ****** ****** ****** ****** ****** ******
      ****** ****** ****** ****** ****** ****** ****** ****** ****** ******
  12  ****** ****** ****** ****** ****** ****** ****** ****** ****** ******
      ****** ****** ****** ****** ****** ****** ****** ****** ****** ******
      ****** ****** ****** ****** ****** ****** ****** ****** ****** ******
  13  ****** ****** ****** ****** ****** ****** ****** ****** ****** ******
      ****** ****** ****** ****** ****** ****** ****** ****** ****** ******
      ****** ****** ****** ****** ****** ****** ****** ****** ****** ******
  14  ****** ****** ****** ****** ****** ****** ****** ****** ****** ******
      ****** ****** ****** ****** ****** ****** ****** ****** ****** ******
      ****** ****** ****** ****** ****** ****** ****** ****** ****** ******
  15  ****** ****** ****** ****** ****** ****** ****** ****** ****** ******
      ****** ****** ****** ****** ****** ****** ****** ****** ****** ******
      ****** ****** ****** ****** ****** ****** ****** ****** ****** ******
  16  ****** ****** ****** ****** ****** ****** ****** ****** ****** ******
      ****** ****** ****** ****** ****** ****** ****** ****** ****** ******
      ****** ****** ****** ****** ****** ****** ****** ****** ****** ******
  17  ****** ****** ****** ****** ****** ****** ****** ****** ****** ******
      ****** ****** ****** ****** ****** ****** ****** ****** ****** ******
      ****** ****** ****** ****** ****** ****** ****** ****** ****** ******
  18  ****** ****** ****** ****** ****** ****** ****** ****** ****** ******
      ****** ****** ****** ****** ****** ****** ****** ****** ****** ******
      ****** ****** ****** ****** ****** ****** ****** ****** ****** ******
  19  ****** ****** ****** ****** ****** ****** ****** ****** ****** ******
      ****** ****** ****** ****** ****** ****** ****** ****** ****** ******
      ****** ****** ****** ****** ****** ****** ****** ****** ****** ******
  20  ****** ****** ****** ****** ****** ****** ****** ****** ****** ******
      ****** ****** ****** ****** ****** ****** ****** ****** ****** ******
      ****** ****** ****** ****** ****** ****** ****** ****** ****** ******
  21  ****** ****** ****** ****** ****** ****** ****** ****** ****** ******
      ****** ****** ****** ****** ****** ****** ****** ****** ****** ******
      ****** ****** ****** ****** ****** ****** ****** ****** ****** ******
  22  ****** ****** ****** ****** ****** ****** ****** ****** ****** ******
      ****** ****** ****** ****** ****** ****** ****** ****** ****** ******
      ****** ****** ****** ****** ****** ****** ****** ****** ****** ******
  23  ****** ****** ****** ****** ****** ****** ****** ****** ****** ******
      ****** ****** ****** ****** ****** ****** ****** ****** ****** ******
      ****** ****** ****** ****** ****** ****** ****** ****** ****** ******
  24  ****** ****** ****** ****** ****** ****** ****** ****** ****** ******
      ****** ****** ****** ****** ****** ****** ****** ****** ****** ******
      ****** ****** ****** ****** ****** ****** ****** ****** ****** ******
  25  ****** ****** ****** ****** ****** ****** ****** ****** ****** ******
      ****** ****** ****** ****** ****** ****** ****** ****** ****** ******
      ****** ****** ****** ****** ****** ****** ****** ****** ****** ******

 HEAD WILL BE SAVED ON UNIT   51 AT END OF TIME STEP    1, STRESS PERIOD    3
1
  VOLUMETRIC BUDGET FOR ENTIRE MODEL AT END OF TIME STEP    1, STRESS PERIOD   3
  ------------------------------------------------------------------------------

     CUMULATIVE VOLUMES      L**3       RATES FOR THIS TIME STEP      L**3/T
     ------------------                 ------------------------

           IN:                                      IN:
           ---                                      ---
             STORAGE =    27185504.3753               STORAGE =       54488.7601
       CONSTANT HEAD =     4995096.4955         CONSTANT HEAD =       25382.4984
               WELLS =           0.0000                 WELLS =           0.0000
            RECHARGE =     6292800.0000              RECHARGE =           0.0000
      STREAM LEAKAGE =     2209824.0637        STREAM LEAKAGE =       12072.4779

            TOTAL IN =    40683224.9345              TOTAL IN =       91943.7364

          OUT:                                     OUT:
          ----                                     ----
             STORAGE =           0.0000               STORAGE =           0.0000
       CONSTANT HEAD =           0.0000         CONSTANT HEAD =           0.0000
               WELLS =     7575813.0325                 WELLS =       27648.9527
            RECHARGE =           0.0000              RECHARGE =           0.0000
      STREAM LEAKAGE =    33107413.7835        STREAM LEAKAGE =       64294.7911

           TOTAL OUT =    40683226.8160             TOTAL OUT =       91943.7437

            IN - OUT =          -1.8815              IN - OUT =      -7.3176E-03

 PERCENT DISCREPANCY =          -0.00     PERCENT DISCREPANCY =          -0.00






         TIME SUMMARY AT END OF TIME STEP    1 IN STRESS PERIOD    3
                    SECONDS     MINUTES      HOURS       DAYS        YEARS
                    -----------------------------------------------------------
   TIME STEP LENGTH 7.86240E+06 1.31040E+05  2184.0      91.000     0.24914    
 STRESS PERIOD TIME 7.86240E+06 1.31040E+05  2184.0      91.000     0.24914    
         TOTAL TIME 2.36736E+07 3.94560E+05  6576.0      274.00     0.75017    
1
1
                            STRESS PERIOD NO.    4, LENGTH =   91.00000    
                            -----------------------------------------------

                              NUMBER OF TIME STEPS =     1

                               MULTIPLIER FOR DELT =     1.500

                            INITIAL TIME STEP SIZE =   91.00000    

 WELL NO.  LAYER   ROW   COL   STRESS RATE         
 --------------------------------------------------
      1      1     11     18      -9961.    
      2      1      5     20      -7658.    
      3      1     11     16      -434.0    
      4      1     11     19      -9596.    

      4 WELLS

                 RECHARGE =  1.000000E-03

 REUSING STREAM SEGMENT DATA FROM LAST STRESS PERIOD
 
 SOLVING FOR HEAD 


     6 CALLS TO PCG ROUTINE FOR TIME STEP   1 IN STRESS PERIOD    4
    23 TOTAL ITERATIONS

 OUTPUT CONTROL FOR STRESS PERIOD    4   TIME STEP    1
    SAVE BUDGET
    SAVE HEAD FOR ALL LAYERS
    PRINT HEAD FOR ALL LAYERS
 UBDSV2 SAVING "STREAMFLOW OUT  " ON UNIT  50 AT TIME STEP  1, STRESS PERIOD   4



 STREAM LISTING     PERIOD      4   STEP        1

 LAYER ROW COL. STREAM  RCH.  FLOW INTO     FLOW TO   FLOW OUT OF   OVRLND.     DIRECT     STREAM       STREAM     STREAM     STREAM   STREAMBED  STREAMBED
                SEG.NO.  NO.  STRM. RCH.    AQUIFER    STRM. RCH.    RUNOFF     PRECIP       ET          HEAD       DEPTH      WIDTH   CONDCTNC.   GRADIENT

   1   13    1     1     1    1.0000E+05 -2.5014E+03   1.0250E+05  0.000E+00  0.000E+00  0.000E+00  4.84071E+01  1.457E-01  2.000E+01  2.000E+04 -1.251E-01
   1   13    2     1     2    1.0250E+05 -3.5700E+03   1.0607E+05  0.000E+00  0.000E+00  0.000E+00  4.79324E+01  1.483E-01  2.000E+01  2.000E+04 -1.785E-01
   1   14    3     1     3    1.0607E+05 -6.2659E+02   1.0670E+05  0.000E+00  0.000E+00  0.000E+00  4.74569E+01  1.501E-01  2.000E+01  2.000E+04 -3.133E-02
   1   15    4     1     4    1.0670E+05 -6.0183E+02   1.0730E+05  0.000E+00  0.000E+00  0.000E+00  4.69802E+01  1.506E-01  2.000E+01  2.000E+04 -3.009E-02
   1   16    5     1     5    1.0730E+05 -2.1763E+03   1.0948E+05  0.000E+00  0.000E+00  0.000E+00  4.65041E+01  1.518E-01  2.000E+01  2.000E+04 -1.088E-01
   1   16    6     1     6    1.0948E+05 -1.3685E+03   1.1084E+05  0.000E+00  0.000E+00  0.000E+00  4.60283E+01  1.533E-01  2.000E+01  2.000E+04 -6.842E-02
   1   16    7     1     7    1.1084E+05 -1.3448E+03   1.1219E+05  0.000E+00  0.000E+00  0.000E+00  4.55522E+01  1.544E-01  2.000E+01  2.000E+04 -6.724E-02
   1   16    8     1     8    1.1219E+05 -1.3399E+03   1.1353E+05  0.000E+00  0.000E+00  0.000E+00  4.50760E+01  1.555E-01  2.000E+01  2.000E+04 -6.699E-02
   1   16    9     1     9    1.1353E+05 -1.3292E+03   1.1486E+05  0.000E+00  0.000E+00  0.000E+00  4.45998E+01  1.566E-01  2.000E+01  2.000E+04 -6.646E-02
   1   16   10     1    10    1.1486E+05 -1.3125E+03   1.1617E+05  0.000E+00  0.000E+00  0.000E+00  4.41236E+01  1.577E-01  2.000E+01  2.000E+04 -6.562E-02
   1   16   11     1    11    1.1617E+05 -1.3186E+03   1.1749E+05  0.000E+00  0.000E+00  0.000E+00  4.36474E+01  1.588E-01  2.000E+01  2.000E+04 -6.593E-02
   1   16   12     1    12    1.1749E+05 -2.2822E+03   1.1977E+05  0.000E+00  0.000E+00  0.000E+00  4.31716E+01  1.603E-01  2.000E+01  2.000E+04 -1.141E-01
   1   15   13     1    13    1.1977E+05 -2.1380E+03   1.2191E+05  0.000E+00  0.000E+00  0.000E+00  4.26961E+01  1.621E-01  2.000E+01  2.000E+04 -1.069E-01
   1   14   14     1    14    1.2191E+05 -2.3202E+03   1.2423E+05  0.000E+00  0.000E+00  0.000E+00  4.22207E+01  1.638E-01  2.000E+01  2.000E+04 -1.160E-01
   1   13   15     1    15    1.2423E+05 -2.3673E+03   1.2660E+05  0.000E+00  0.000E+00  0.000E+00  4.17452E+01  1.657E-01  2.000E+01  2.000E+04 -1.184E-01
   1   12   16     1    16    1.2660E+05 -1.8767E+03   1.2847E+05  0.000E+00  0.000E+00  0.000E+00  4.12697E+01  1.674E-01  2.000E+01  2.000E+04 -9.383E-02
   1   12   17     1    17    1.2847E+05  2.0275E+01   1.2845E+05  0.000E+00  0.000E+00  0.000E+00  4.07931E+01  1.681E-01  2.000E+01  2.000E+04  1.014E-03
   1   12   18     1    18    1.2845E+05  2.9483E+03   1.2551E+05  0.000E+00  0.000E+00  0.000E+00  4.03147E+01  1.669E-01  2.000E+01  2.000E+04  1.474E-01
   1   12   19     1    19    1.2551E+05  3.1822E+03   1.2232E+05  0.000E+00  0.000E+00  0.000E+00  3.98350E+01  1.645E-01  2.000E+01  2.000E+04  1.591E-01
   1   13   20     1    20    1.2232E+05 -9.3151E+02   1.2325E+05  0.000E+00  0.000E+00  0.000E+00  3.93568E+01  1.636E-01  2.000E+01  2.000E+04 -4.658E-02
   1   14   21     1    21    1.2325E+05 -1.7940E+03   1.2505E+05  0.000E+00  0.000E+00  0.000E+00  3.88806E+01  1.647E-01  2.000E+01  2.000E+04 -8.970E-02
   1   14   22     1    22    1.2505E+05  4.8083E+03   1.2024E+05  0.000E+00  0.000E+00  0.000E+00  3.84021E+01  1.635E-01  2.000E+01  2.000E+04  2.404E-01
   1    9   30     2     1    5.0000E+04 -6.7366E+02   5.0674E+04  0.000E+00  0.000E+00  0.000E+00  4.02413E+01  1.163E-01  2.000E+01  2.000E+04 -3.368E-02
   1    9   29     2     2    5.0674E+04 -9.5265E+02   5.1626E+04  0.000E+00  0.000E+00  0.000E+00  3.99925E+01  1.175E-01  2.000E+01  2.000E+04 -4.763E-02
   1    9   28     2     3    5.1626E+04 -1.1571E+03   5.2783E+04  0.000E+00  0.000E+00  0.000E+00  3.97439E+01  1.189E-01  2.000E+01  2.000E+04 -5.785E-02
   1    9   27     2     4    5.2783E+04 -2.1620E+03   5.4945E+04  0.000E+00  0.000E+00  0.000E+00  3.94962E+01  1.212E-01  2.000E+01  2.000E+04 -1.081E-01
   1   10   26     2     5    5.4945E+04 -1.3087E+03   5.6254E+04  0.000E+00  0.000E+00  0.000E+00  3.92485E+01  1.235E-01  2.000E+01  2.000E+04 -6.544E-02
   1   11   25     2     6    5.6254E+04 -1.0115E+03   5.7266E+04  0.000E+00  0.000E+00  0.000E+00  3.90000E+01  1.250E-01  2.000E+01  2.000E+04 -5.058E-02
   1   12   24     2     7    5.7266E+04 -9.2484E+02   5.8190E+04  0.000E+00  0.000E+00  0.000E+00  3.87513E+01  1.263E-01  2.000E+01  2.000E+04 -4.624E-02
   1   13   23     2     8    5.8190E+04 -1.5036E+02   5.8341E+04  0.000E+00  0.000E+00  0.000E+00  3.85020E+01  1.270E-01  2.000E+01  2.000E+04 -7.518E-03
   1   14   22     2     9    5.8341E+04  1.7842E+03   5.6556E+04  0.000E+00  0.000E+00  0.000E+00  3.82509E+01  1.259E-01  2.000E+01  2.000E+04  8.921E-02
   1   14   22     3     1    1.7680E+05 -8.6945E+03   1.8549E+05  0.000E+00  0.000E+00  0.000E+00  3.77270E+01  1.714E-01  2.000E+01  2.000E+04 -4.347E-01
   1   15   23     3     2    1.8549E+05 -6.5061E+02   1.8614E+05  0.000E+00  0.000E+00  0.000E+00  3.68407E+01  1.741E-01  2.000E+01  2.000E+04 -3.253E-02
   1   15   24     3     3    1.8614E+05 -3.4727E+02   1.8649E+05  0.000E+00  0.000E+00  0.000E+00  3.59521E+01  1.744E-01  2.000E+01  2.000E+04 -1.736E-02
   1   15   25     3     4    1.8649E+05 -3.3555E+02   1.8682E+05  0.000E+00  0.000E+00  0.000E+00  3.50634E+01  1.746E-01  2.000E+01  2.000E+04 -1.678E-02
   1   15   26     3     5    1.8682E+05 -3.8081E+02   1.8721E+05  0.000E+00  0.000E+00  0.000E+00  3.41748E+01  1.748E-01  2.000E+01  2.000E+04 -1.904E-02
   1   16   27     3     6    1.8721E+05 -4.3793E+02   1.8764E+05  0.000E+00  0.000E+00  0.000E+00  3.32861E+01  1.750E-01  2.000E+01  2.000E+04 -2.190E-02
   1   17   28     3     7    1.8764E+05 -1.7993E+03   1.8944E+05  0.000E+00  0.000E+00  0.000E+00  3.23978E+01  1.756E-01  2.000E+01  2.000E+04 -8.996E-02
   1   18   29     3     8    1.8944E+05 -3.3553E+03   1.9280E+05  0.000E+00  0.000E+00  0.000E+00  3.15104E+01  1.770E-01  2.000E+01  2.000E+04 -1.678E-01
   1   18   30     3     9    1.9280E+05 -3.4608E+03   1.9626E+05  0.000E+00  0.000E+00  0.000E+00  3.06234E+01  1.789E-01  2.000E+01  2.000E+04 -1.730E-01



1
              HEAD IN LAYER   1 AT END OF TIME STEP   1 IN STRESS PERIOD    4
  ---------------------------------------------------------------------------

          1      2      3      4      5      6      7      8      9     10
         11     12     13     14     15     16     17     18     19     20
         21     22     23     24     25     26     27     28     29     30
 .........................................................................
   1  ****** ****** ****** ****** ****** ****** ****** ****** ****** ******
      ****** ****** ****** ****** ****** ****** ****** ****** ****** ******
      ****** ****** ****** ****** ****** ****** ****** ****** ****** ******
   2  ****** ****** ****** ****** ****** ****** ****** ****** ****** ******
      ****** ****** ****** ****** ****** ****** ****** ****** ****** ******
      ****** ****** ****** ****** ****** ****** ****** ****** ****** ******
   3  ****** ****** ****** ****** ****** ****** ****** ****** ****** ******
      ****** ****** ****** ****** ****** ****** ****** ****** ****** ******
      ****** ****** ****** ****** ****** ****** ****** ****** ****** ******
   4  ****** ****** ****** ****** ****** ****** ****** ****** ****** ******
      ****** ****** ****** ****** ****** ****** ****** ****** ****** ******
      ****** ****** ****** ****** ****** ****** ****** ****** ****** ******
   5  ****** ****** ****** ****** ****** ****** ****** ****** ****** ******
      ****** ****** ****** ****** ****** ****** ****** ****** ****** ******
      ****** ****** ****** ****** ****** ****** ****** ****** ****** ******
   6  ****** ****** ****** ****** ****** ****** ****** ****** ****** ******
      ****** ****** ****** ****** ****** ****** ****** ****** ****** ******
      ****** ****** ****** ****** ****** ****** ****** ****** ****** ******
   7  ****** ****** ****** ****** ****** ****** ****** ****** ****** ******
      ****** ****** ****** ****** ****** ****** ****** ****** ****** ******
      ****** ****** ****** ****** ****** ****** ****** ****** ****** ******
   8  ****** ****** ****** ****** ****** ****** ****** ****** ****** ******
      ****** ****** ****** ****** ****** ****** ****** ****** ****** ******
      ****** ****** ****** ****** ****** ****** ****** ****** ****** ******
   9  ****** ****** ****** ****** ****** ****** ****** ****** ****** ******
      ****** ****** ****** ****** ****** ****** ****** ****** ****** ******
      ****** ****** ****** ****** ****** ****** ****** ****** ****** ******
  10  ****** ****** ****** ****** ****** ****** ****** ****** ****** ******
      ****** ****** ****** ****** ****** ****** ****** ****** ****** ******
      ****** ****** ****** ****** ****** ****** ****** ****** ****** ******
  11  ****** ****** ****** ****** ****** ****** ****** ****** ****** ******
      ****** ****** ****** ****** ****** ****** ****** ****** ****** ******
      ****** ****** ****** ****** ****** ****** ****** ****** ****** ******
  12  ****** ****** ****** ****** ****** ****** ****** ****** ****** ******
      ****** ****** ****** ****** ****** ****** ****** ****** ****** ******
      ****** ****** ****** ****** ****** ****** ****** ****** ****** ******
  13  ****** ****** ****** ****** ****** ****** ****** ****** ****** ******
      ****** ****** ****** ****** ****** ****** ****** ****** ****** ******
      ****** ****** ****** ****** ****** ****** ****** ****** ****** ******
  14  ****** ****** ****** ****** ****** ****** ****** ****** ****** ******
      ****** ****** ****** ****** ****** ****** ****** ****** ****** ******
      ****** ****** ****** ****** ****** ****** ****** ****** ****** ******
  15  ****** ****** ****** ****** ****** ****** ****** ****** ****** ******
      ****** ****** ****** ****** ****** ****** ****** ****** ****** ******
      ****** ****** ****** ****** ****** ****** ****** ****** ****** ******
  16  ****** ****** ****** ****** ****** ****** ****** ****** ****** ******
      ****** ****** ****** ****** ****** ****** ****** ****** ****** ******
      ****** ****** ****** ****** ****** ****** ****** ****** ****** ******
  17  ****** ****** ****** ****** ****** ****** ****** ****** ****** ******
      ****** ****** ****** ****** ****** ****** ****** ****** ****** ******
      ****** ****** ****** ****** ****** ****** ****** ****** ****** ******
  18  ****** ****** ****** ****** ****** ****** ****** ****** ****** ******
      ****** ****** ****** ****** ****** ****** ****** ****** ****** ******
      ****** ****** ****** ****** ****** ****** ****** ****** ****** ******
  19  ****** ****** ****** ****** ****** ****** ****** ****** ****** ******
      ****** ****** ****** ****** ****** ****** ****** ****** ****** ******
      ****** ****** ****** ****** ****** ****** ****** ****** ****** ******
  20  ****** ****** ****** ****** ****** ****** ****** ****** ****** ******
      ****** ****** ****** ****** ****** ****** ****** ****** ****** ******
      ****** ****** ****** ****** ****** ****** ****** ****** ****** ******
  21  ****** ****** ****** ****** ****** ****** ****** ****** ****** ******
      ****** ****** ****** ****** ****** ****** ****** ****** ****** ******
      ****** ****** ****** ****** ****** ****** ****** ****** ****** ******
  22  ****** ****** ****** ****** ****** ****** ****** ****** ****** ******
      ****** ****** ****** ****** ****** ****** ****** ****** ****** ******
      ****** ****** ****** ****** ****** ****** ****** ****** ****** ******
  23  ****** ****** ****** ****** ****** ****** ****** ****** ****** ******
      ****** ****** ****** ****** ****** ****** ****** ****** ****** ******
      ****** ****** ****** ****** ****** ****** ****** ****** ****** ******
  24  ****** ****** ****** ****** ****** ****** ****** ****** ****** ******
      ****** ****** ****** ****** ****** ****** ****** ****** ****** ******
      ****** ****** ****** ****** ****** ****** ****** ****** ****** ******
  25  ****** ****** ****** ****** ****** ****** ****** ****** ****** ******
      ****** ****** ****** ****** ****** ****** ****** ****** ****** ******
      ****** ****** ****** ****** ****** ****** ****** ****** ****** ******

 HEAD WILL BE SAVED ON UNIT   51 AT END OF TIME STEP    1, STRESS PERIOD    4
1
  VOLUMETRIC BUDGET FOR ENTIRE MODEL AT END OF TIME STEP    1, STRESS PERIOD   4
  ------------------------------------------------------------------------------

     CUMULATIVE VOLUMES      L**3       RATES FOR THIS TIME STEP      L**3/T
     ------------------                 ------------------------

           IN:                                      IN:
           ---                                      ---
             STORAGE =    28856813.2829               STORAGE =       18366.0320
       CONSTANT HEAD =     7538976.5257         CONSTANT HEAD =       27954.7256
               WELLS =           0.0000                 WELLS =           0.0000
            RECHARGE =     8804400.0000              RECHARGE =       27600.0000
      STREAM LEAKAGE =     3369463.0064        STREAM LEAKAGE =       12743.2851

            TOTAL IN =    48569652.8151              TOTAL IN =       86664.0426

          OUT:                                     OUT:
          ----                                     ----
             STORAGE =        1187.8350               STORAGE =          13.0531
       CONSTANT HEAD =           0.0000         CONSTANT HEAD =           0.0000
               WELLS =    10091867.7258                 WELLS =       27648.9527
            RECHARGE =           0.0000              RECHARGE =           0.0000
      STREAM LEAKAGE =    38476599.2072        STREAM LEAKAGE =       59002.0376

           TOTAL OUT =    48569654.7679             TOTAL OUT =       86664.0434

            IN - OUT =          -1.9528              IN - OUT =      -7.8405E-04

 PERCENT DISCREPANCY =          -0.00     PERCENT DISCREPANCY =          -0.00






         TIME SUMMARY AT END OF TIME STEP    1 IN STRESS PERIOD    4
                    SECONDS     MINUTES      HOURS       DAYS        YEARS
                    -----------------------------------------------------------
   TIME STEP LENGTH 7.86240E+06 1.31040E+05  2184.0      91.000     0.24914    
 STRESS PERIOD TIME 7.86240E+06 1.31040E+05  2184.0      91.000     0.24914    
         TOTAL TIME 3.15360E+07 5.25600E+05  8760.0      365.00     0.99932    
1
1
                            STRESS PERIOD NO.    5, LENGTH =   92.00000    
                            -----------------------------------------------

                              NUMBER OF TIME STEPS =     1

                               MULTIPLIER FOR DELT =     1.500

                            INITIAL TIME STEP SIZE =   92.00000    

 WELL NO.  LAYER   ROW   COL   STRESS RATE         
 --------------------------------------------------
      1      1     11     18      -9961.    
      2      1      5     20      -7658.    
      3      1     11     16      -434.0    
      4      1     11     19      -9596.    

      4 WELLS

                 RECHARGE =  5.000000E-04

 REUSING STREAM SEGMENT DATA FROM LAST STRESS PERIOD
 
 SOLVING FOR HEAD 


     7 CALLS TO PCG ROUTINE FOR TIME STEP   1 IN STRESS PERIOD    5
    26 TOTAL ITERATIONS

 OUTPUT CONTROL FOR STRESS PERIOD    5   TIME STEP    1
    SAVE BUDGET
    SAVE HEAD FOR ALL LAYERS
    PRINT HEAD FOR ALL LAYERS
 UBDSV2 SAVING "STREAMFLOW OUT  " ON UNIT  50 AT TIME STEP  1, STRESS PERIOD   5



 STREAM LISTING     PERIOD      5   STEP        1

 LAYER ROW COL. STREAM  RCH.  FLOW INTO     FLOW TO   FLOW OUT OF   OVRLND.     DIRECT     STREAM       STREAM     STREAM     STREAM   STREAMBED  STREAMBED
                SEG.NO.  NO.  STRM. RCH.    AQUIFER    STRM. RCH.    RUNOFF     PRECIP       ET          HEAD       DEPTH      WIDTH   CONDCTNC.   GRADIENT

   1   13    1     1     1    1.0000E+05 -2.0822E+03   1.0208E+05  0.000E+00  0.000E+00  0.000E+00  4.84069E+01  1.456E-01  2.000E+01  2.000E+04 -1.041E-01
   1   13    2     1     2    1.0208E+05 -3.0962E+03   1.0518E+05  0.000E+00  0.000E+00  0.000E+00  4.79319E+01  1.478E-01  2.000E+01  2.000E+04 -1.548E-01
   1   14    3     1     3    1.0518E+05 -5.0427E+02   1.0568E+05  0.000E+00  0.000E+00  0.000E+00  4.74561E+01  1.493E-01  2.000E+01  2.000E+04 -2.521E-02
   1   15    4     1     4    1.0568E+05 -4.7336E+02   1.0616E+05  0.000E+00  0.000E+00  0.000E+00  4.69793E+01  1.497E-01  2.000E+01  2.000E+04 -2.367E-02
   1   16    5     1     5    1.0616E+05 -1.7506E+03   1.0791E+05  0.000E+00  0.000E+00  0.000E+00  4.65029E+01  1.507E-01  2.000E+01  2.000E+04 -8.753E-02
   1   16    6     1     6    1.0791E+05 -1.1191E+03   1.0903E+05  0.000E+00  0.000E+00  0.000E+00  4.60269E+01  1.519E-01  2.000E+01  2.000E+04 -5.595E-02
   1   16    7     1     7    1.0903E+05 -1.1058E+03   1.1013E+05  0.000E+00  0.000E+00  0.000E+00  4.55505E+01  1.528E-01  2.000E+01  2.000E+04 -5.529E-02
   1   16    8     1     8    1.1013E+05 -1.1049E+03   1.1124E+05  0.000E+00  0.000E+00  0.000E+00  4.50742E+01  1.537E-01  2.000E+01  2.000E+04 -5.524E-02
   1   16    9     1     9    1.1124E+05 -1.0976E+03   1.1233E+05  0.000E+00  0.000E+00  0.000E+00  4.45978E+01  1.547E-01  2.000E+01  2.000E+04 -5.488E-02
   1   16   10     1    10    1.1233E+05 -1.0850E+03   1.1342E+05  0.000E+00  0.000E+00  0.000E+00  4.41215E+01  1.556E-01  2.000E+01  2.000E+04 -5.425E-02
   1   16   11     1    11    1.1342E+05 -1.0918E+03   1.1451E+05  0.000E+00  0.000E+00  0.000E+00  4.36451E+01  1.565E-01  2.000E+01  2.000E+04 -5.459E-02
   1   16   12     1    12    1.1451E+05 -1.8766E+03   1.1639E+05  0.000E+00  0.000E+00  0.000E+00  4.31690E+01  1.577E-01  2.000E+01  2.000E+04 -9.383E-02
   1   15   13     1    13    1.1639E+05 -1.7040E+03   1.1809E+05  0.000E+00  0.000E+00  0.000E+00  4.26932E+01  1.591E-01  2.000E+01  2.000E+04 -8.520E-02
   1   14   14     1    14    1.1809E+05 -1.8534E+03   1.1994E+05  0.000E+00  0.000E+00  0.000E+00  4.22174E+01  1.606E-01  2.000E+01  2.000E+04 -9.267E-02
   1   13   15     1    15    1.1994E+05 -1.8772E+03   1.2182E+05  0.000E+00  0.000E+00  0.000E+00  4.17416E+01  1.621E-01  2.000E+01  2.000E+04 -9.386E-02
   1   12   16     1    16    1.2182E+05 -1.3283E+03   1.2315E+05  0.000E+00  0.000E+00  0.000E+00  4.12656E+01  1.634E-01  2.000E+01  2.000E+04 -6.642E-02
   1   12   17     1    17    1.2315E+05  3.8538E+02   1.2276E+05  0.000E+00  0.000E+00  0.000E+00  4.07887E+01  1.637E-01  2.000E+01  2.000E+04  1.927E-02
   1   12   18     1    18    1.2276E+05  3.2957E+03   1.1947E+05  0.000E+00  0.000E+00  0.000E+00  4.03100E+01  1.623E-01  2.000E+01  2.000E+04  1.648E-01
   1   12   19     1    19    1.1947E+05  3.6074E+03   1.1586E+05  0.000E+00  0.000E+00  0.000E+00  3.98299E+01  1.595E-01  2.000E+01  2.000E+04  1.804E-01
   1   13   20     1    20    1.1586E+05 -5.7404E+02   1.1644E+05  0.000E+00  0.000E+00  0.000E+00  3.93514E+01  1.582E-01  2.000E+01  2.000E+04 -2.870E-02
   1   14   21     1    21    1.1644E+05 -1.4251E+03   1.1786E+05  0.000E+00  0.000E+00  0.000E+00  3.88750E+01  1.591E-01  2.000E+01  2.000E+04 -7.125E-02
   1   14   22     1    22    1.1786E+05  4.8852E+03   1.1298E+05  0.000E+00  0.000E+00  0.000E+00  3.83963E+01  1.576E-01  2.000E+01  2.000E+04  2.443E-01
   1    9   30     2     1    5.0000E+04 -4.3383E+02   5.0434E+04  0.000E+00  0.000E+00  0.000E+00  4.02412E+01  1.162E-01  2.000E+01  2.000E+04 -2.169E-02
   1    9   29     2     2    5.0434E+04 -7.0871E+02   5.1143E+04  0.000E+00  0.000E+00  0.000E+00  3.99920E+01  1.170E-01  2.000E+01  2.000E+04 -3.544E-02
   1    9   28     2     3    5.1143E+04 -8.9973E+02   5.2042E+04  0.000E+00  0.000E+00  0.000E+00  3.97431E+01  1.181E-01  2.000E+01  2.000E+04 -4.499E-02
   1    9   27     2     4    5.2042E+04 -1.7519E+03   5.3794E+04  0.000E+00  0.000E+00  0.000E+00  3.94949E+01  1.199E-01  2.000E+01  2.000E+04 -8.760E-02
   1   10   26     2     5    5.3794E+04 -9.5300E+02   5.4747E+04  0.000E+00  0.000E+00  0.000E+00  3.92467E+01  1.217E-01  2.000E+01  2.000E+04 -4.765E-02
   1   11   25     2     6    5.4747E+04 -6.8563E+02   5.5433E+04  0.000E+00  0.000E+00  0.000E+00  3.89978E+01  1.228E-01  2.000E+01  2.000E+04 -3.428E-02
   1   12   24     2     7    5.5433E+04 -6.2672E+02   5.6060E+04  0.000E+00  0.000E+00  0.000E+00  3.87487E+01  1.237E-01  2.000E+01  2.000E+04 -3.134E-02
   1   13   23     2     8    5.6060E+04 -7.9846E+01   5.6139E+04  0.000E+00  0.000E+00  0.000E+00  3.84992E+01  1.242E-01  2.000E+01  2.000E+04 -3.992E-03
   1   14   22     2     9    5.6139E+04  1.9180E+03   5.4221E+04  0.000E+00  0.000E+00  0.000E+00  3.82479E+01  1.229E-01  2.000E+01  2.000E+04  9.590E-02
   1   14   22     3     1    1.6720E+05 -8.6113E+03   1.7581E+05  0.000E+00  0.000E+00  0.000E+00  3.77215E+01  1.659E-01  2.000E+01  2.000E+04 -4.306E-01
   1   15   23     3     2    1.7581E+05 -5.5473E+02   1.7636E+05  0.000E+00  0.000E+00  0.000E+00  3.68352E+01  1.686E-01  2.000E+01  2.000E+04 -2.774E-02
   1   15   24     3     3    1.7636E+05 -2.7641E+02   1.7664E+05  0.000E+00  0.000E+00  0.000E+00  3.59466E+01  1.688E-01  2.000E+01  2.000E+04 -1.382E-02
   1   15   25     3     4    1.7664E+05 -2.6510E+02   1.7690E+05  0.000E+00  0.000E+00  0.000E+00  3.50578E+01  1.689E-01  2.000E+01  2.000E+04 -1.325E-02
   1   15   26     3     5    1.7690E+05 -3.0922E+02   1.7721E+05  0.000E+00  0.000E+00  0.000E+00  3.41691E+01  1.691E-01  2.000E+01  2.000E+04 -1.546E-02
   1   16   27     3     6    1.7721E+05 -3.4836E+02   1.7756E+05  0.000E+00  0.000E+00  0.000E+00  3.32804E+01  1.693E-01  2.000E+01  2.000E+04 -1.742E-02
   1   17   28     3     7    1.7756E+05 -1.5348E+03   1.7910E+05  0.000E+00  0.000E+00  0.000E+00  3.23921E+01  1.698E-01  2.000E+01  2.000E+04 -7.674E-02
   1   18   29     3     8    1.7910E+05 -2.9886E+03   1.8209E+05  0.000E+00  0.000E+00  0.000E+00  3.15045E+01  1.711E-01  2.000E+01  2.000E+04 -1.494E-01
   1   18   30     3     9    1.8209E+05 -3.2077E+03   1.8529E+05  0.000E+00  0.000E+00  0.000E+00  3.06173E+01  1.729E-01  2.000E+01  2.000E+04 -1.604E-01



1
              HEAD IN LAYER   1 AT END OF TIME STEP   1 IN STRESS PERIOD    5
  ---------------------------------------------------------------------------

          1      2      3      4      5      6      7      8      9     10
         11     12     13     14     15     16     17     18     19     20
         21     22     23     24     25     26     27     28     29     30
 .........................................................................
   1  ****** ****** ****** ****** ****** ****** ****** ****** ****** ******
      ****** ****** ****** ****** ****** ****** ****** ****** ****** ******
      ****** ****** ****** ****** ****** ****** ****** ****** ****** ******
   2  ****** ****** ****** ****** ****** ****** ****** ****** ****** ******
      ****** ****** ****** ****** ****** ****** ****** ****** ****** ******
      ****** ****** ****** ****** ****** ****** ****** ****** ****** ******
   3  ****** ****** ****** ****** ****** ****** ****** ****** ****** ******
      ****** ****** ****** ****** ****** ****** ****** ****** ****** ******
      ****** ****** ****** ****** ****** ****** ****** ****** ****** ******
   4  ****** ****** ****** ****** ****** ****** ****** ****** ****** ******
      ****** ****** ****** ****** ****** ****** ****** ****** ****** ******
      ****** ****** ****** ****** ****** ****** ****** ****** ****** ******
   5  ****** ****** ****** ****** ****** ****** ****** ****** ****** ******
      ****** ****** ****** ****** ****** ****** ****** ****** ****** ******
      ****** ****** ****** ****** ****** ****** ****** ****** ****** ******
   6  ****** ****** ****** ****** ****** ****** ****** ****** ****** ******
      ****** ****** ****** ****** ****** ****** ****** ****** ****** ******
      ****** ****** ****** ****** ****** ****** ****** ****** ****** ******
   7  ****** ****** ****** ****** ****** ****** ****** ****** ****** ******
      ****** ****** ****** ****** ****** ****** ****** ****** ****** ******
      ****** ****** ****** ****** ****** ****** ****** ****** ****** ******
   8  ****** ****** ****** ****** ****** ****** ****** ****** ****** ******
      ****** ****** ****** ****** ****** ****** ****** ****** ****** ******
      ****** ****** ****** ****** ****** ****** ****** ****** ****** ******
   9  ****** ****** ****** ****** ****** ****** ****** ****** ****** ******
      ****** ****** ****** ****** ****** ****** ****** ****** ****** ******
      ****** ****** ****** ****** ****** ****** ****** ****** ****** ******
  10  ****** ****** ****** ****** ****** ****** ****** ****** ****** ******
      ****** ****** ****** ****** ****** ****** ****** ****** ****** ******
      ****** ****** ****** ****** ****** ****** ****** ****** ****** ******
  11  ****** ****** ****** ****** ****** ****** ****** ****** ****** ******
      ****** ****** ****** ****** ****** ****** ****** ****** ****** ******
      ****** ****** ****** ****** ****** ****** ****** ****** ****** ******
  12  ****** ****** ****** ****** ****** ****** ****** ****** ****** ******
      ****** ****** ****** ****** ****** ****** ****** ****** ****** ******
      ****** ****** ****** ****** ****** ****** ****** ****** ****** ******
  13  ****** ****** ****** ****** ****** ****** ****** ****** ****** ******
      ****** ****** ****** ****** ****** ****** ****** ****** ****** ******
      ****** ****** ****** ****** ****** ****** ****** ****** ****** ******
  14  ****** ****** ****** ****** ****** ****** ****** ****** ****** ******
      ****** ****** ****** ****** ****** ****** ****** ****** ****** ******
      ****** ****** ****** ****** ****** ****** ****** ****** ****** ******
  15  ****** ****** ****** ****** ****** ****** ****** ****** ****** ******
      ****** ****** ****** ****** ****** ****** ****** ****** ****** ******
      ****** ****** ****** ****** ****** ****** ****** ****** ****** ******
  16  ****** ****** ****** ****** ****** ****** ****** ****** ****** ******
      ****** ****** ****** ****** ****** ****** ****** ****** ****** ******
      ****** ****** ****** ****** ****** ****** ****** ****** ****** ******
  17  ****** ****** ****** ****** ****** ****** ****** ****** ****** ******
      ****** ****** ****** ****** ****** ****** ****** ****** ****** ******
      ****** ****** ****** ****** ****** ****** ****** ****** ****** ******
  18  ****** ****** ****** ****** ****** ****** ****** ****** ****** ******
      ****** ****** ****** ****** ****** ****** ****** ****** ****** ******
      ****** ****** ****** ****** ****** ****** ****** ****** ****** ******
  19  ****** ****** ****** ****** ****** ****** ****** ****** ****** ******
      ****** ****** ****** ****** ****** ****** ****** ****** ****** ******
      ****** ****** ****** ****** ****** ****** ****** ****** ****** ******
  20  ****** ****** ****** ****** ****** ****** ****** ****** ****** ******
      ****** ****** ****** ****** ****** ****** ****** ****** ****** ******
      ****** ****** ****** ****** ****** ****** ****** ****** ****** ******
  21  ****** ****** ****** ****** ****** ****** ****** ****** ****** ******
      ****** ****** ****** ****** ****** ****** ****** ****** ****** ******
      ****** ****** ****** ****** ****** ****** ****** ****** ****** ******
  22  ****** ****** ****** ****** ****** ****** ****** ****** ****** ******
      ****** ****** ****** ****** ****** ****** ****** ****** ****** ******
      ****** ****** ****** ****** ****** ****** ****** ****** ****** ******
  23  ****** ****** ****** ****** ****** ****** ****** ****** ****** ******
      ****** ****** ****** ****** ****** ****** ****** ****** ****** ******
      ****** ****** ****** ****** ****** ****** ****** ****** ****** ******
  24  ****** ****** ****** ****** ****** ****** ****** ****** ****** ******
      ****** ****** ****** ****** ****** ****** ****** ****** ****** ******
      ****** ****** ****** ****** ****** ****** ****** ****** ****** ******
  25  ****** ****** ****** ****** ****** ****** ****** ****** ****** ******
      ****** ****** ****** ****** ****** ****** ****** ****** ****** ******
      ****** ****** ****** ****** ****** ****** ****** ****** ****** ******

 HEAD WILL BE SAVED ON UNIT   51 AT END OF TIME STEP    1, STRESS PERIOD    5
1
  VOLUMETRIC BUDGET FOR ENTIRE MODEL AT END OF TIME STEP    1, STRESS PERIOD   5
  ------------------------------------------------------------------------------

     CUMULATIVE VOLUMES      L**3       RATES FOR THIS TIME STEP      L**3/T
     ------------------                 ------------------------

           IN:                                      IN:
           ---                                      ---
             STORAGE =    30538262.3224               STORAGE =       18276.6200
       CONSTANT HEAD =    10378613.2079         CONSTANT HEAD =       30865.6161
               WELLS =           0.0000                 WELLS =           0.0000
            RECHARGE =    10074000.0000              RECHARGE =       13800.0000
      STREAM LEAKAGE =     4665900.2491        STREAM LEAKAGE =       14091.7092

            TOTAL IN =    55656775.7794              TOTAL IN =       77033.9453

          OUT:                                     OUT:
          ----                                     ----
             STORAGE =        1187.8350               STORAGE =           0.0000
       CONSTANT HEAD =           0.0000         CONSTANT HEAD =           0.0000
               WELLS =    12635571.3717                 WELLS =       27648.9527
            RECHARGE =           0.0000              RECHARGE =           0.0000
      STREAM LEAKAGE =    43020018.8097        STREAM LEAKAGE =       49384.9957

           TOTAL OUT =    55656778.0164             TOTAL OUT =       77033.9484

            IN - OUT =          -2.2370              IN - OUT =      -3.0891E-03

 PERCENT DISCREPANCY =          -0.00     PERCENT DISCREPANCY =          -0.00






         TIME SUMMARY AT END OF TIME STEP    1 IN STRESS PERIOD    5
                    SECONDS     MINUTES      HOURS       DAYS        YEARS
                    -----------------------------------------------------------
   TIME STEP LENGTH 7.94880E+06 1.32480E+05  2208.0      92.000     0.25188    
 STRESS PERIOD TIME 7.94880E+06 1.32480E+05  2208.0      92.000     0.25188    
         TOTAL TIME 3.94848E+07 6.58080E+05  10968.      457.00      1.2512    
1
1
                            STRESS PERIOD NO.    6, LENGTH =   91.00000    
                            -----------------------------------------------

                              NUMBER OF TIME STEPS =     1

                               MULTIPLIER FOR DELT =     1.500

                            INITIAL TIME STEP SIZE =   91.00000    

 WELL NO.  LAYER   ROW   COL   STRESS RATE         
 --------------------------------------------------
      1      1     11     18      -9961.    
      2      1      5     20      -7658.    
      3      1     11     16      -434.0    
      4      1     11     19      -9596.    

      4 WELLS

                 RECHARGE =  2.000000E-03

 REUSING STREAM SEGMENT DATA FROM LAST STRESS PERIOD
 
 SOLVING FOR HEAD 


     7 CALLS TO PCG ROUTINE FOR TIME STEP   1 IN STRESS PERIOD    6
    26 TOTAL ITERATIONS

 OUTPUT CONTROL FOR STRESS PERIOD    6   TIME STEP    1
    SAVE BUDGET
    SAVE HEAD FOR ALL LAYERS
    PRINT HEAD FOR ALL LAYERS
 UBDSV2 SAVING "STREAMFLOW OUT  " ON UNIT  50 AT TIME STEP  1, STRESS PERIOD   6



 STREAM LISTING     PERIOD      6   STEP        1

 LAYER ROW COL. STREAM  RCH.  FLOW INTO     FLOW TO   FLOW OUT OF   OVRLND.     DIRECT     STREAM       STREAM     STREAM     STREAM   STREAMBED  STREAMBED
                SEG.NO.  NO.  STRM. RCH.    AQUIFER    STRM. RCH.    RUNOFF     PRECIP       ET          HEAD       DEPTH      WIDTH   CONDCTNC.   GRADIENT

   1   13    1     1     1    1.0000E+05 -2.3937E+03   1.0239E+05  0.000E+00  0.000E+00  0.000E+00  4.84071E+01  1.457E-01  2.000E+01  2.000E+04 -1.197E-01
   1   13    2     1     2    1.0239E+05 -3.4370E+03   1.0583E+05  0.000E+00  0.000E+00  0.000E+00  4.79323E+01  1.482E-01  2.000E+01  2.000E+04 -1.719E-01
   1   14    3     1     3    1.0583E+05 -6.5900E+02   1.0649E+05  0.000E+00  0.000E+00  0.000E+00  4.74568E+01  1.499E-01  2.000E+01  2.000E+04 -3.295E-02
   1   15    4     1     4    1.0649E+05 -6.3983E+02   1.0713E+05  0.000E+00  0.000E+00  0.000E+00  4.69800E+01  1.505E-01  2.000E+01  2.000E+04 -3.199E-02
   1   16    5     1     5    1.0713E+05 -2.2503E+03   1.0938E+05  0.000E+00  0.000E+00  0.000E+00  4.65040E+01  1.517E-01  2.000E+01  2.000E+04 -1.125E-01
   1   16    6     1     6    1.0938E+05 -1.4120E+03   1.1079E+05  0.000E+00  0.000E+00  0.000E+00  4.60282E+01  1.532E-01  2.000E+01  2.000E+04 -7.060E-02
   1   16    7     1     7    1.1079E+05 -1.3835E+03   1.1218E+05  0.000E+00  0.000E+00  0.000E+00  4.55521E+01  1.544E-01  2.000E+01  2.000E+04 -6.917E-02
   1   16    8     1     8    1.1218E+05 -1.3781E+03   1.1355E+05  0.000E+00  0.000E+00  0.000E+00  4.50760E+01  1.555E-01  2.000E+01  2.000E+04 -6.890E-02
   1   16    9     1     9    1.1355E+05 -1.3706E+03   1.1492E+05  0.000E+00  0.000E+00  0.000E+00  4.45999E+01  1.567E-01  2.000E+01  2.000E+04 -6.853E-02
   1   16   10     1    10    1.1492E+05 -1.3600E+03   1.1628E+05  0.000E+00  0.000E+00  0.000E+00  4.41237E+01  1.578E-01  2.000E+01  2.000E+04 -6.800E-02
   1   16   11     1    11    1.1628E+05 -1.3708E+03   1.1765E+05  0.000E+00  0.000E+00  0.000E+00  4.36476E+01  1.589E-01  2.000E+01  2.000E+04 -6.854E-02
   1   16   12     1    12    1.1765E+05 -2.3279E+03   1.1998E+05  0.000E+00  0.000E+00  0.000E+00  4.31718E+01  1.604E-01  2.000E+01  2.000E+04 -1.164E-01
   1   15   13     1    13    1.1998E+05 -2.1613E+03   1.2214E+05  0.000E+00  0.000E+00  0.000E+00  4.26963E+01  1.622E-01  2.000E+01  2.000E+04 -1.081E-01
   1   14   14     1    14    1.2214E+05 -2.3029E+03   1.2445E+05  0.000E+00  0.000E+00  0.000E+00  4.22208E+01  1.640E-01  2.000E+01  2.000E+04 -1.151E-01
   1   13   15     1    15    1.2445E+05 -2.3040E+03   1.2675E+05  0.000E+00  0.000E+00  0.000E+00  4.17454E+01  1.659E-01  2.000E+01  2.000E+04 -1.152E-01
   1   12   16     1    16    1.2675E+05 -1.7027E+03   1.2845E+05  0.000E+00  0.000E+00  0.000E+00  4.12697E+01  1.674E-01  2.000E+01  2.000E+04 -8.513E-02
   1   12   17     1    17    1.2845E+05  7.6685E+01   1.2838E+05  0.000E+00  0.000E+00  0.000E+00  4.07931E+01  1.681E-01  2.000E+01  2.000E+04  3.834E-03
   1   12   18     1    18    1.2838E+05  2.9828E+03   1.2539E+05  0.000E+00  0.000E+00  0.000E+00  4.03146E+01  1.669E-01  2.000E+01  2.000E+04  1.491E-01
   1   12   19     1    19    1.2539E+05  3.2205E+03   1.2217E+05  0.000E+00  0.000E+00  0.000E+00  3.98349E+01  1.644E-01  2.000E+01  2.000E+04  1.610E-01
   1   13   20     1    20    1.2217E+05 -9.9597E+02   1.2317E+05  0.000E+00  0.000E+00  0.000E+00  3.93567E+01  1.635E-01  2.000E+01  2.000E+04 -4.980E-02
   1   14   21     1    21    1.2317E+05 -1.8432E+03   1.2501E+05  0.000E+00  0.000E+00  0.000E+00  3.88806E+01  1.647E-01  2.000E+01  2.000E+04 -9.216E-02
   1   14   22     1    22    1.2501E+05  4.7786E+03   1.2023E+05  0.000E+00  0.000E+00  0.000E+00  3.84021E+01  1.635E-01  2.000E+01  2.000E+04  2.389E-01
   1    9   30     2     1    5.0000E+04 -7.9360E+02   5.0794E+04  0.000E+00  0.000E+00  0.000E+00  4.02414E+01  1.164E-01  2.000E+01  2.000E+04 -3.968E-02
   1    9   29     2     2    5.0794E+04 -1.0639E+03   5.1857E+04  0.000E+00  0.000E+00  0.000E+00  3.99927E+01  1.177E-01  2.000E+01  2.000E+04 -5.319E-02
   1    9   28     2     3    5.1857E+04 -1.2475E+03   5.3105E+04  0.000E+00  0.000E+00  0.000E+00  3.97443E+01  1.193E-01  2.000E+01  2.000E+04 -6.237E-02
   1    9   27     2     4    5.3105E+04 -2.1882E+03   5.5293E+04  0.000E+00  0.000E+00  0.000E+00  3.94966E+01  1.216E-01  2.000E+01  2.000E+04 -1.094E-01
   1   10   26     2     5    5.5293E+04 -1.4157E+03   5.6709E+04  0.000E+00  0.000E+00  0.000E+00  3.92490E+01  1.240E-01  2.000E+01  2.000E+04 -7.079E-02
   1   11   25     2     6    5.6709E+04 -1.1347E+03   5.7844E+04  0.000E+00  0.000E+00  0.000E+00  3.90007E+01  1.257E-01  2.000E+01  2.000E+04 -5.673E-02
   1   12   24     2     7    5.7844E+04 -1.0313E+03   5.8875E+04  0.000E+00  0.000E+00  0.000E+00  3.87521E+01  1.271E-01  2.000E+01  2.000E+04 -5.157E-02
   1   13   23     2     8    5.8875E+04 -2.1693E+02   5.9092E+04  0.000E+00  0.000E+00  0.000E+00  3.85029E+01  1.279E-01  2.000E+01  2.000E+04 -1.085E-02
   1   14   22     2     9    5.9092E+04  1.7747E+03   5.7317E+04  0.000E+00  0.000E+00  0.000E+00  3.82519E+01  1.269E-01  2.000E+01  2.000E+04  8.874E-02
   1   14   22     3     1    1.7755E+05 -8.7152E+03   1.8627E+05  0.000E+00  0.000E+00  0.000E+00  3.77274E+01  1.719E-01  2.000E+01  2.000E+04 -4.358E-01
   1   15   23     3     2    1.8627E+05 -6.9397E+02   1.8696E+05  0.000E+00  0.000E+00  0.000E+00  3.68412E+01  1.745E-01  2.000E+01  2.000E+04 -3.470E-02
   1   15   24     3     3    1.8696E+05 -3.9941E+02   1.8736E+05  0.000E+00  0.000E+00  0.000E+00  3.59526E+01  1.748E-01  2.000E+01  2.000E+04 -1.997E-02
   1   15   25     3     4    1.8736E+05 -3.9244E+02   1.8775E+05  0.000E+00  0.000E+00  0.000E+00  3.50639E+01  1.751E-01  2.000E+01  2.000E+04 -1.962E-02
   1   15   26     3     5    1.8775E+05 -4.6122E+02   1.8821E+05  0.000E+00  0.000E+00  0.000E+00  3.41753E+01  1.753E-01  2.000E+01  2.000E+04 -2.306E-02
   1   16   27     3     6    1.8821E+05 -5.1818E+02   1.8873E+05  0.000E+00  0.000E+00  0.000E+00  3.32867E+01  1.756E-01  2.000E+01  2.000E+04 -2.591E-02
   1   17   28     3     7    1.8873E+05 -2.0017E+03   1.9073E+05  0.000E+00  0.000E+00  0.000E+00  3.23985E+01  1.763E-01  2.000E+01  2.000E+04 -1.001E-01
   1   18   29     3     8    1.9073E+05 -3.4371E+03   1.9417E+05  0.000E+00  0.000E+00  0.000E+00  3.15111E+01  1.778E-01  2.000E+01  2.000E+04 -1.719E-01
   1   18   30     3     9    1.9417E+05 -3.5694E+03   1.9774E+05  0.000E+00  0.000E+00  0.000E+00  3.06242E+01  1.797E-01  2.000E+01  2.000E+04 -1.785E-01



1
              HEAD IN LAYER   1 AT END OF TIME STEP   1 IN STRESS PERIOD    6
  ---------------------------------------------------------------------------

          1      2      3      4      5      6      7      8      9     10
         11     12     13     14     15     16     17     18     19     20
         21     22     23     24     25     26     27     28     29     30
 .........................................................................
   1  ****** ****** ****** ****** ****** ****** ****** ****** ****** ******
      ****** ****** ****** ****** ****** ****** ****** ****** ****** ******
      ****** ****** ****** ****** ****** ****** ****** ****** ****** ******
   2  ****** ****** ****** ****** ****** ****** ****** ****** ****** ******
      ****** ****** ****** ****** ****** ****** ****** ****** ****** ******
      ****** ****** ****** ****** ****** ****** ****** ****** ****** ******
   3  ****** ****** ****** ****** ****** ****** ****** ****** ****** ******
      ****** ****** ****** ****** ****** ****** ****** ****** ****** ******
      ****** ****** ****** ****** ****** ****** ****** ****** ****** ******
   4  ****** ****** ****** ****** ****** ****** ****** ****** ****** ******
      ****** ****** ****** ****** ****** ****** ****** ****** ****** ******
      ****** ****** ****** ****** ****** ****** ****** ****** ****** ******
   5  ****** ****** ****** ****** ****** ****** ****** ****** ****** ******
      ****** ****** ****** ****** ****** ****** ****** ****** ****** ******
      ****** ****** ****** ****** ****** ****** ****** ****** ****** ******
   6  ****** ****** ****** ****** ****** ****** ****** ****** ****** ******
      ****** ****** ****** ****** ****** ****** ****** ****** ****** ******
      ****** ****** ****** ****** ****** ****** ****** ****** ****** ******
   7  ****** ****** ****** ****** ****** ****** ****** ****** ****** ******
      ****** ****** ****** ****** ****** ****** ****** ****** ****** ******
      ****** ****** ****** ****** ****** ****** ****** ****** ****** ******
   8  ****** ****** ****** ****** ****** ****** ****** ****** ****** ******
      ****** ****** ****** ****** ****** ****** ****** ****** ****** ******
      ****** ****** ****** ****** ****** ****** ****** ****** ****** ******
   9  ****** ****** ****** ****** ****** ****** ****** ****** ****** ******
      ****** ****** ****** ****** ****** ****** ****** ****** ****** ******
      ****** ****** ****** ****** ****** ****** ****** ****** ****** ******
  10  ****** ****** ****** ****** ****** ****** ****** ****** ****** ******
      ****** ****** ****** ****** ****** ****** ****** ****** ****** ******
      ****** ****** ****** ****** ****** ****** ****** ****** ****** ******
  11  ****** ****** ****** ****** ****** ****** ****** ****** ****** ******
      ****** ****** ****** ****** ****** ****** ****** ****** ****** ******
      ****** ****** ****** ****** ****** ****** ****** ****** ****** ******
  12  ****** ****** ****** ****** ****** ****** ****** ****** ****** ******
      ****** ****** ****** ****** ****** ****** ****** ****** ****** ******
      ****** ****** ****** ****** ****** ****** ****** ****** ****** ******
  13  ****** ****** ****** ****** ****** ****** ****** ****** ****** ******
      ****** ****** ****** ****** ****** ****** ****** ****** ****** ******
      ****** ****** ****** ****** ****** ****** ****** ****** ****** ******
  14  ****** ****** ****** ****** ****** ****** ****** ****** ****** ******
      ****** ****** ****** ****** ****** ****** ****** ****** ****** ******
      ****** ****** ****** ****** ****** ****** ****** ****** ****** ******
  15  ****** ****** ****** ****** ****** ****** ****** ****** ****** ******
      ****** ****** ****** ****** ****** ****** ****** ****** ****** ******
      ****** ****** ****** ****** ****** ****** ****** ****** ****** ******
  16  ****** ****** ****** ****** ****** ****** ****** ****** ****** ******
      ****** ****** ****** ****** ****** ****** ****** ****** ****** ******
      ****** ****** ****** ****** ****** ****** ****** ****** ****** ******
  17  ****** ****** ****** ****** ****** ****** ****** ****** ****** ******
      ****** ****** ****** ****** ****** ****** ****** ****** ****** ******
      ****** ****** ****** ****** ****** ****** ****** ****** ****** ******
  18  ****** ****** ****** ****** ****** ****** ****** ****** ****** ******
      ****** ****** ****** ****** ****** ****** ****** ****** ****** ******
      ****** ****** ****** ****** ****** ****** ****** ****** ****** ******
  19  ****** ****** ****** ****** ****** ****** ****** ****** ****** ******
      ****** ****** ****** ****** ****** ****** ****** ****** ****** ******
      ****** ****** ****** ****** ****** ****** ****** ****** ****** ******
  20  ****** ****** ****** ****** ****** ****** ****** ****** ****** ******
      ****** ****** ****** ****** ****** ****** ****** ****** ****** ******
      ****** ****** ****** ****** ****** ****** ****** ****** ****** ******
  21  ****** ****** ****** ****** ****** ****** ****** ****** ****** ******
      ****** ****** ****** ****** ****** ****** ****** ****** ****** ******
      ****** ****** ****** ****** ****** ****** ****** ****** ****** ******
  22  ****** ****** ****** ****** ****** ****** ****** ****** ****** ******
      ****** ****** ****** ****** ****** ****** ****** ****** ****** ******
      ****** ****** ****** ****** ****** ****** ****** ****** ****** ******
  23  ****** ****** ****** ****** ****** ****** ****** ****** ****** ******
      ****** ****** ****** ****** ****** ****** ****** ****** ****** ******
      ****** ****** ****** ****** ****** ****** ****** ****** ****** ******
  24  ****** ****** ****** ****** ****** ****** ****** ****** ****** ******
      ****** ****** ****** ****** ****** ****** ****** ****** ****** ******
      ****** ****** ****** ****** ****** ****** ****** ****** ****** ******
  25  ****** ****** ****** ****** ****** ****** ****** ****** ****** ******
      ****** ****** ****** ****** ****** ****** ****** ****** ****** ******
      ****** ****** ****** ****** ****** ****** ****** ****** ****** ******

 HEAD WILL BE SAVED ON UNIT   51 AT END OF TIME STEP    1, STRESS PERIOD    6
1
  VOLUMETRIC BUDGET FOR ENTIRE MODEL AT END OF TIME STEP    1, STRESS PERIOD   6
  ------------------------------------------------------------------------------

     CUMULATIVE VOLUMES      L**3       RATES FOR THIS TIME STEP      L**3/T
     ------------------                 ------------------------

           IN:                                      IN:
           ---                                      ---
             STORAGE =    30538262.3224               STORAGE =           0.0000
       CONSTANT HEAD =    13013524.4960         CONSTANT HEAD =       28955.0691
               WELLS =           0.0000                 WELLS =           0.0000
            RECHARGE =    15097200.0000              RECHARGE =       55200.0000
      STREAM LEAKAGE =     5833728.3626        STREAM LEAKAGE =       12833.2760

            TOTAL IN =    64482715.1810              TOTAL IN =       96988.3451

          OUT:                                     OUT:
          ----                                     ----
             STORAGE =      798913.1670               STORAGE =        8766.2124
       CONSTANT HEAD =           0.0000         CONSTANT HEAD =           0.0000
               WELLS =    15151626.0650                 WELLS =       27648.9527
            RECHARGE =           0.0000              RECHARGE =           0.0000
      STREAM LEAKAGE =    48532177.9282        STREAM LEAKAGE =       60573.1771

           TOTAL OUT =    64482717.1602             TOTAL OUT =       96988.3422

            IN - OUT =          -1.9792              IN - OUT =       2.8327E-03

 PERCENT DISCREPANCY =          -0.00     PERCENT DISCREPANCY =           0.00






         TIME SUMMARY AT END OF TIME STEP    1 IN STRESS PERIOD    6
                    SECONDS     MINUTES      HOURS       DAYS        YEARS
                    -----------------------------------------------------------
   TIME STEP LENGTH 7.86240E+06 1.31040E+05  2184.0      91.000     0.24914    
 STRESS PERIOD TIME 7.86240E+06 1.31040E+05  2184.0      91.000     0.24914    
         TOTAL TIME 4.73472E+07 7.89120E+05  13152.      548.00      1.5003    
1
1
                            STRESS PERIOD NO.    7, LENGTH =   91.00000    
                            -----------------------------------------------

                              NUMBER OF TIME STEPS =     1

                               MULTIPLIER FOR DELT =     1.500

                            INITIAL TIME STEP SIZE =   91.00000    

 WELL NO.  LAYER   ROW   COL   STRESS RATE         
 --------------------------------------------------
      1      1     11     18      -9961.    
      2      1      5     20      -7658.    
      3      1     11     16      -434.0    
      4      1     11     19      -9596.    

      4 WELLS

                 RECHARGE =   0.00000    

 REUSING STREAM SEGMENT DATA FROM LAST STRESS PERIOD
 
 SOLVING FOR HEAD 


     7 CALLS TO PCG ROUTINE FOR TIME STEP   1 IN STRESS PERIOD    7
    26 TOTAL ITERATIONS

 OUTPUT CONTROL FOR STRESS PERIOD    7   TIME STEP    1
    SAVE BUDGET
    SAVE HEAD FOR ALL LAYERS
    PRINT HEAD FOR ALL LAYERS
 UBDSV2 SAVING "STREAMFLOW OUT  " ON UNIT  50 AT TIME STEP  1, STRESS PERIOD   7



 STREAM LISTING     PERIOD      7   STEP        1

 LAYER ROW COL. STREAM  RCH.  FLOW INTO     FLOW TO   FLOW OUT OF   OVRLND.     DIRECT     STREAM       STREAM     STREAM     STREAM   STREAMBED  STREAMBED
                SEG.NO.  NO.  STRM. RCH.    AQUIFER    STRM. RCH.    RUNOFF     PRECIP       ET          HEAD       DEPTH      WIDTH   CONDCTNC.   GRADIENT

   1   13    1     1     1    1.0000E+05 -1.7253E+03   1.0173E+05  0.000E+00  0.000E+00  0.000E+00  4.84068E+01  1.454E-01  2.000E+01  2.000E+04 -8.626E-02
   1   13    2     1     2    1.0173E+05 -2.6891E+03   1.0441E+05  0.000E+00  0.000E+00  0.000E+00  4.79314E+01  1.473E-01  2.000E+01  2.000E+04 -1.345E-01
   1   14    3     1     3    1.0441E+05 -4.0688E+02   1.0482E+05  0.000E+00  0.000E+00  0.000E+00  4.74554E+01  1.486E-01  2.000E+01  2.000E+04 -2.034E-02
   1   15    4     1     4    1.0482E+05 -3.7714E+02   1.0520E+05  0.000E+00  0.000E+00  0.000E+00  4.69785E+01  1.490E-01  2.000E+01  2.000E+04 -1.886E-02
   1   16    5     1     5    1.0520E+05 -1.4990E+03   1.0670E+05  0.000E+00  0.000E+00  0.000E+00  4.65020E+01  1.498E-01  2.000E+01  2.000E+04 -7.495E-02
   1   16    6     1     6    1.0670E+05 -9.5855E+02   1.0766E+05  0.000E+00  0.000E+00  0.000E+00  4.60258E+01  1.508E-01  2.000E+01  2.000E+04 -4.793E-02
   1   16    7     1     7    1.0766E+05 -9.4834E+02   1.0860E+05  0.000E+00  0.000E+00  0.000E+00  4.55493E+01  1.516E-01  2.000E+01  2.000E+04 -4.742E-02
   1   16    8     1     8    1.0860E+05 -9.4893E+02   1.0955E+05  0.000E+00  0.000E+00  0.000E+00  4.50728E+01  1.524E-01  2.000E+01  2.000E+04 -4.745E-02
   1   16    9     1     9    1.0955E+05 -9.4472E+02   1.1050E+05  0.000E+00  0.000E+00  0.000E+00  4.45964E+01  1.532E-01  2.000E+01  2.000E+04 -4.724E-02
   1   16   10     1    10    1.1050E+05 -9.3685E+02   1.1143E+05  0.000E+00  0.000E+00  0.000E+00  4.41199E+01  1.540E-01  2.000E+01  2.000E+04 -4.684E-02
   1   16   11     1    11    1.1143E+05 -9.4678E+02   1.1238E+05  0.000E+00  0.000E+00  0.000E+00  4.36434E+01  1.548E-01  2.000E+01  2.000E+04 -4.734E-02
   1   16   12     1    12    1.1238E+05 -1.6154E+03   1.1400E+05  0.000E+00  0.000E+00  0.000E+00  4.31672E+01  1.558E-01  2.000E+01  2.000E+04 -8.077E-02
   1   15   13     1    13    1.1400E+05 -1.3947E+03   1.1539E+05  0.000E+00  0.000E+00  0.000E+00  4.26911E+01  1.571E-01  2.000E+01  2.000E+04 -6.973E-02
   1   14   14     1    14    1.1539E+05 -1.5070E+03   1.1690E+05  0.000E+00  0.000E+00  0.000E+00  4.22151E+01  1.582E-01  2.000E+01  2.000E+04 -7.535E-02
   1   13   15     1    15    1.1690E+05 -1.5044E+03   1.1840E+05  0.000E+00  0.000E+00  0.000E+00  4.17390E+01  1.595E-01  2.000E+01  2.000E+04 -7.522E-02
   1   12   16     1    16    1.1840E+05 -9.0607E+02   1.1931E+05  0.000E+00  0.000E+00  0.000E+00  4.12627E+01  1.604E-01  2.000E+01  2.000E+04 -4.530E-02
   1   12   17     1    17    1.1931E+05  6.5479E+02   1.1865E+05  0.000E+00  0.000E+00  0.000E+00  4.07856E+01  1.606E-01  2.000E+01  2.000E+04  3.274E-02
   1   12   18     1    18    1.1865E+05  3.5466E+03   1.1511E+05  0.000E+00  0.000E+00  0.000E+00  4.03066E+01  1.588E-01  2.000E+01  2.000E+04  1.773E-01
   1   12   19     1    19    1.1511E+05  3.9102E+03   1.1120E+05  0.000E+00  0.000E+00  0.000E+00  3.98262E+01  1.558E-01  2.000E+01  2.000E+04  1.955E-01
   1   13   20     1    20    1.1120E+05 -3.2768E+02   1.1153E+05  0.000E+00  0.000E+00  0.000E+00  3.93475E+01  1.543E-01  2.000E+01  2.000E+04 -1.638E-02
   1   14   21     1    21    1.1153E+05 -1.1870E+03   1.1271E+05  0.000E+00  0.000E+00  0.000E+00  3.88708E+01  1.549E-01  2.000E+01  2.000E+04 -5.935E-02
   1   14   22     1    22    1.1271E+05  4.9333E+03   1.0778E+05  0.000E+00  0.000E+00  0.000E+00  3.83920E+01  1.534E-01  2.000E+01  2.000E+04  2.467E-01
   1    9   30     2     1    5.0000E+04 -2.7812E+02   5.0278E+04  0.000E+00  0.000E+00  0.000E+00  4.02411E+01  1.161E-01  2.000E+01  2.000E+04 -1.391E-02
   1    9   29     2     2    5.0278E+04 -5.5005E+02   5.0828E+04  0.000E+00  0.000E+00  0.000E+00  3.99916E+01  1.166E-01  2.000E+01  2.000E+04 -2.750E-02
   1    9   28     2     3    5.0828E+04 -7.3201E+02   5.1560E+04  0.000E+00  0.000E+00  0.000E+00  3.97425E+01  1.175E-01  2.000E+01  2.000E+04 -3.660E-02
   1    9   27     2     4    5.1560E+04 -1.4866E+03   5.3047E+04  0.000E+00  0.000E+00  0.000E+00  3.94940E+01  1.190E-01  2.000E+01  2.000E+04 -7.433E-02
   1   10   26     2     5    5.3047E+04 -7.1329E+02   5.3760E+04  0.000E+00  0.000E+00  0.000E+00  3.92455E+01  1.205E-01  2.000E+01  2.000E+04 -3.566E-02
   1   11   25     2     6    5.3760E+04 -4.6131E+02   5.4221E+04  0.000E+00  0.000E+00  0.000E+00  3.89963E+01  1.213E-01  2.000E+01  2.000E+04 -2.307E-02
   1   12   24     2     7    5.4221E+04 -4.1735E+02   5.4639E+04  0.000E+00  0.000E+00  0.000E+00  3.87469E+01  1.219E-01  2.000E+01  2.000E+04 -2.087E-02
   1   13   23     2     8    5.4639E+04 -2.4689E+01   5.4663E+04  0.000E+00  0.000E+00  0.000E+00  3.84972E+01  1.222E-01  2.000E+01  2.000E+04 -1.234E-03
   1   14   22     2     9    5.4663E+04  2.0108E+03   5.2653E+04  0.000E+00  0.000E+00  0.000E+00  3.82459E+01  1.209E-01  2.000E+01  2.000E+04  1.005E-01
   1   14   22     3     1    1.6043E+05 -8.5570E+03   1.6899E+05  0.000E+00  0.000E+00  0.000E+00  3.77175E+01  1.619E-01  2.000E+01  2.000E+04 -4.279E-01
   1   15   23     3     2    1.6899E+05 -4.8908E+02   1.6948E+05  0.000E+00  0.000E+00  0.000E+00  3.68313E+01  1.646E-01  2.000E+01  2.000E+04 -2.445E-02
   1   15   24     3     3    1.6948E+05 -2.2667E+02   1.6970E+05  0.000E+00  0.000E+00  0.000E+00  3.59426E+01  1.648E-01  2.000E+01  2.000E+04 -1.133E-02
   1   15   25     3     4    1.6970E+05 -2.1653E+02   1.6992E+05  0.000E+00  0.000E+00  0.000E+00  3.50538E+01  1.649E-01  2.000E+01  2.000E+04 -1.083E-02
   1   15   26     3     5    1.6992E+05 -2.6055E+02   1.7018E+05  0.000E+00  0.000E+00  0.000E+00  3.41651E+01  1.651E-01  2.000E+01  2.000E+04 -1.303E-02
   1   16   27     3     6    1.7018E+05 -2.8681E+02   1.7047E+05  0.000E+00  0.000E+00  0.000E+00  3.32763E+01  1.652E-01  2.000E+01  2.000E+04 -1.434E-02
   1   17   28     3     7    1.7047E+05 -1.3636E+03   1.7183E+05  0.000E+00  0.000E+00  0.000E+00  3.23879E+01  1.657E-01  2.000E+01  2.000E+04 -6.818E-02
   1   18   29     3     8    1.7183E+05 -2.7580E+03   1.7459E+05  0.000E+00  0.000E+00  0.000E+00  3.15002E+01  1.669E-01  2.000E+01  2.000E+04 -1.379E-01
   1   18   30     3     9    1.7459E+05 -3.0451E+03   1.7763E+05  0.000E+00  0.000E+00  0.000E+00  3.06130E+01  1.686E-01  2.000E+01  2.000E+04 -1.523E-01



1
              HEAD IN LAYER   1 AT END OF TIME STEP   1 IN STRESS PERIOD    7
  ---------------------------------------------------------------------------

          1      2      3      4      5      6      7      8      9     10
         11     12     13     14     15     16     17     18     19     20
         21     22     23     24     25     26     27     28     29     30
 .........................................................................
   1  ****** ****** ****** ****** ****** ****** ****** ****** ****** ******
      ****** ****** ****** ****** ****** ****** ****** ****** ****** ******
      ****** ****** ****** ****** ****** ****** ****** ****** ****** ******
   2  ****** ****** ****** ****** ****** ****** ****** ****** ****** ******
      ****** ****** ****** ****** ****** ****** ****** ****** ****** ******
      ****** ****** ****** ****** ****** ****** ****** ****** ****** ******
   3  ****** ****** ****** ****** ****** ****** ****** ****** ****** ******
      ****** ****** ****** ****** ****** ****** ****** ****** ****** ******
      ****** ****** ****** ****** ****** ****** ****** ****** ****** ******
   4  ****** ****** ****** ****** ****** ****** ****** ****** ****** ******
      ****** ****** ****** ****** ****** ****** ****** ****** ****** ******
      ****** ****** ****** ****** ****** ****** ****** ****** ****** ******
   5  ****** ****** ****** ****** ****** ****** ****** ****** ****** ******
      ****** ****** ****** ****** ****** ****** ****** ****** ****** ******
      ****** ****** ****** ****** ****** ****** ****** ****** ****** ******
   6  ****** ****** ****** ****** ****** ****** ****** ****** ****** ******
      ****** ****** ****** ****** ****** ****** ****** ****** ****** ******
      ****** ****** ****** ****** ****** ****** ****** ****** ****** ******
   7  ****** ****** ****** ****** ****** ****** ****** ****** ****** ******
      ****** ****** ****** ****** ****** ****** ****** ****** ****** ******
      ****** ****** ****** ****** ****** ****** ****** ****** ****** ******
   8  ****** ****** ****** ****** ****** ****** ****** ****** ****** ******
      ****** ****** ****** ****** ****** ****** ****** ****** ****** ******
      ****** ****** ****** ****** ****** ****** ****** ****** ****** ******
   9  ****** ****** ****** ****** ****** ****** ****** ****** ****** ******
      ****** ****** ****** ****** ****** ****** ****** ****** ****** ******
      ****** ****** ****** ****** ****** ****** ****** ****** ****** ******
  10  ****** ****** ****** ****** ****** ****** ****** ****** ****** ******
      ****** ****** ****** ****** ****** ****** ****** ****** ****** ******
      ****** ****** ****** ****** ****** ****** ****** ****** ****** ******
  11  ****** ****** ****** ****** ****** ****** ****** ****** ****** ******
      ****** ****** ****** ****** ****** ****** ****** ****** ****** ******
      ****** ****** ****** ****** ****** ****** ****** ****** ****** ******
  12  ****** ****** ****** ****** ****** ****** ****** ****** ****** ******
      ****** ****** ****** ****** ****** ****** ****** ****** ****** ******
      ****** ****** ****** ****** ****** ****** ****** ****** ****** ******
  13  ****** ****** ****** ****** ****** ****** ****** ****** ****** ******
      ****** ****** ****** ****** ****** ****** ****** ****** ****** ******
      ****** ****** ****** ****** ****** ****** ****** ****** ****** ******
  14  ****** ****** ****** ****** ****** ****** ****** ****** ****** ******
      ****** ****** ****** ****** ****** ****** ****** ****** ****** ******
      ****** ****** ****** ****** ****** ****** ****** ****** ****** ******
  15  ****** ****** ****** ****** ****** ****** ****** ****** ****** ******
      ****** ****** ****** ****** ****** ****** ****** ****** ****** ******
      ****** ****** ****** ****** ****** ****** ****** ****** ****** ******
  16  ****** ****** ****** ****** ****** ****** ****** ****** ****** ******
      ****** ****** ****** ****** ****** ****** ****** ****** ****** ******
      ****** ****** ****** ****** ****** ****** ****** ****** ****** ******
  17  ****** ****** ****** ****** ****** ****** ****** ****** ****** ******
      ****** ****** ****** ****** ****** ****** ****** ****** ****** ******
      ****** ****** ****** ****** ****** ****** ****** ****** ****** ******
  18  ****** ****** ****** ****** ****** ****** ****** ****** ****** ******
      ****** ****** ****** ****** ****** ****** ****** ****** ****** ******
      ****** ****** ****** ****** ****** ****** ****** ****** ****** ******
  19  ****** ****** ****** ****** ****** ****** ****** ****** ****** ******
      ****** ****** ****** ****** ****** ****** ****** ****** ****** ******
      ****** ****** ****** ****** ****** ****** ****** ****** ****** ******
  20  ****** ****** ****** ****** ****** ****** ****** ****** ****** ******
      ****** ****** ****** ****** ****** ****** ****** ****** ****** ******
      ****** ****** ****** ****** ****** ****** ****** ****** ****** ******
  21  ****** ****** ****** ****** ****** ****** ****** ****** ****** ******
      ****** ****** ****** ****** ****** ****** ****** ****** ****** ******
      ****** ****** ****** ****** ****** ****** ****** ****** ****** ******
  22  ****** ****** ****** ****** ****** ****** ****** ****** ****** ******
      ****** ****** ****** ****** ****** ****** ****** ****** ****** ******
      ****** ****** ****** ****** ****** ****** ****** ****** ****** ******
  23  ****** ****** ****** ****** ****** ****** ****** ****** ****** ******
      ****** ****** ****** ****** ****** ****** ****** ****** ****** ******
      ****** ****** ****** ****** ****** ****** ****** ****** ****** ******
  24  ****** ****** ****** ****** ****** ****** ****** ****** ****** ******
      ****** ****** ****** ****** ****** ****** ****** ****** ****** ******
      ****** ****** ****** ****** ****** ****** ****** ****** ****** ******
  25  ****** ****** ****** ****** ****** ****** ****** ****** ****** ******
      ****** ****** ****** ****** ****** ****** ****** ****** ****** ******
      ****** ****** ****** ****** ****** ****** ****** ****** ****** ******

 HEAD WILL BE SAVED ON UNIT   51 AT END OF TIME STEP    1, STRESS PERIOD    7
1
  VOLUMETRIC BUDGET FOR ENTIRE MODEL AT END OF TIME STEP    1, STRESS PERIOD   7
  ------------------------------------------------------------------------------

     CUMULATIVE VOLUMES      L**3       RATES FOR THIS TIME STEP      L**3/T
     ------------------                 ------------------------

           IN:                                      IN:
           ---                                      ---
             STORAGE =    32576875.6060               STORAGE =       22402.3438
       CONSTANT HEAD =    16005732.0706         CONSTANT HEAD =       32881.4019
               WELLS =           0.0000                 WELLS =           0.0000
            RECHARGE =    15097200.0000              RECHARGE =           0.0000
      STREAM LEAKAGE =     7203796.9723        STREAM LEAKAGE =       15055.6990

            TOTAL IN =    70883604.6489              TOTAL IN =       70339.4447

          OUT:                                     OUT:
          ----                                     ----
             STORAGE =      798913.1670               STORAGE =           0.0000
       CONSTANT HEAD =           0.0000         CONSTANT HEAD =           0.0000
               WELLS =    17667680.7582                 WELLS =       27648.9527
            RECHARGE =           0.0000              RECHARGE =           0.0000
      STREAM LEAKAGE =    52417013.1952        STREAM LEAKAGE =       42690.4974

           TOTAL OUT =    70883607.1204             TOTAL OUT =       70339.4501

            IN - OUT =          -2.4716              IN - OUT =      -5.4104E-03

 PERCENT DISCREPANCY =          -0.00     PERCENT DISCREPANCY =          -0.00






         TIME SUMMARY AT END OF TIME STEP    1 IN STRESS PERIOD    7
                    SECONDS     MINUTES      HOURS       DAYS        YEARS
                    -----------------------------------------------------------
   TIME STEP LENGTH 7.86240E+06 1.31040E+05  2184.0      91.000     0.24914    
 STRESS PERIOD TIME 7.86240E+06 1.31040E+05  2184.0      91.000     0.24914    
         TOTAL TIME 5.52096E+07 9.20160E+05  15336.      639.00      1.7495    
1
1
                            STRESS PERIOD NO.    8, LENGTH =   91.00000    
                            -----------------------------------------------

                              NUMBER OF TIME STEPS =     1

                               MULTIPLIER FOR DELT =     1.500

                            INITIAL TIME STEP SIZE =   91.00000    

 WELL NO.  LAYER   ROW   COL   STRESS RATE         
 --------------------------------------------------
      1      1     11     18      -9961.    
      2      1      5     20      -7658.    
      3      1     11     16      -434.0    
      4      1     11     19      -9596.    

      4 WELLS

                 RECHARGE =  1.000000E-03

 REUSING STREAM SEGMENT DATA FROM LAST STRESS PERIOD
 
 SOLVING FOR HEAD 


     6 CALLS TO PCG ROUTINE FOR TIME STEP   1 IN STRESS PERIOD    8
    22 TOTAL ITERATIONS

 OUTPUT CONTROL FOR STRESS PERIOD    8   TIME STEP    1
    SAVE BUDGET
    SAVE HEAD FOR ALL LAYERS
    PRINT HEAD FOR ALL LAYERS
 UBDSV2 SAVING "STREAMFLOW OUT  " ON UNIT  50 AT TIME STEP  1, STRESS PERIOD   8



 STREAM LISTING     PERIOD      8   STEP        1

 LAYER ROW COL. STREAM  RCH.  FLOW INTO     FLOW TO   FLOW OUT OF   OVRLND.     DIRECT     STREAM       STREAM     STREAM     STREAM   STREAMBED  STREAMBED
                SEG.NO.  NO.  STRM. RCH.    AQUIFER    STRM. RCH.    RUNOFF     PRECIP       ET          HEAD       DEPTH      WIDTH   CONDCTNC.   GRADIENT

   1   13    1     1     1    1.0000E+05 -1.7969E+03   1.0180E+05  0.000E+00  0.000E+00  0.000E+00  4.84068E+01  1.454E-01  2.000E+01  2.000E+04 -8.984E-02
   1   13    2     1     2    1.0180E+05 -2.7599E+03   1.0456E+05  0.000E+00  0.000E+00  0.000E+00  4.79315E+01  1.474E-01  2.000E+01  2.000E+04 -1.380E-01
   1   14    3     1     3    1.0456E+05 -4.7072E+02   1.0503E+05  0.000E+00  0.000E+00  0.000E+00  4.74556E+01  1.488E-01  2.000E+01  2.000E+04 -2.354E-02
   1   15    4     1     4    1.0503E+05 -4.4574E+02   1.0547E+05  0.000E+00  0.000E+00  0.000E+00  4.69787E+01  1.492E-01  2.000E+01  2.000E+04 -2.229E-02
   1   16    5     1     5    1.0547E+05 -1.6740E+03   1.0715E+05  0.000E+00  0.000E+00  0.000E+00  4.65023E+01  1.501E-01  2.000E+01  2.000E+04 -8.370E-02
   1   16    6     1     6    1.0715E+05 -1.0660E+03   1.0821E+05  0.000E+00  0.000E+00  0.000E+00  4.60262E+01  1.512E-01  2.000E+01  2.000E+04 -5.330E-02
   1   16    7     1     7    1.0821E+05 -1.0507E+03   1.0926E+05  0.000E+00  0.000E+00  0.000E+00  4.55498E+01  1.521E-01  2.000E+01  2.000E+04 -5.254E-02
   1   16    8     1     8    1.0926E+05 -1.0505E+03   1.1031E+05  0.000E+00  0.000E+00  0.000E+00  4.50734E+01  1.530E-01  2.000E+01  2.000E+04 -5.253E-02
   1   16    9     1     9    1.1031E+05 -1.0476E+03   1.1136E+05  0.000E+00  0.000E+00  0.000E+00  4.45970E+01  1.539E-01  2.000E+01  2.000E+04 -5.238E-02
   1   16   10     1    10    1.1136E+05 -1.0424E+03   1.1240E+05  0.000E+00  0.000E+00  0.000E+00  4.41206E+01  1.547E-01  2.000E+01  2.000E+04 -5.212E-02
   1   16   11     1    11    1.1240E+05 -1.0556E+03   1.1346E+05  0.000E+00  0.000E+00  0.000E+00  4.36442E+01  1.556E-01  2.000E+01  2.000E+04 -5.278E-02
   1   16   12     1    12    1.1346E+05 -1.7785E+03   1.1524E+05  0.000E+00  0.000E+00  0.000E+00  4.31681E+01  1.568E-01  2.000E+01  2.000E+04 -8.893E-02
   1   15   13     1    13    1.1524E+05 -1.5631E+03   1.1680E+05  0.000E+00  0.000E+00  0.000E+00  4.26922E+01  1.581E-01  2.000E+01  2.000E+04 -7.816E-02
   1   14   14     1    14    1.1680E+05 -1.6672E+03   1.1847E+05  0.000E+00  0.000E+00  0.000E+00  4.22163E+01  1.595E-01  2.000E+01  2.000E+04 -8.336E-02
   1   13   15     1    15    1.1847E+05 -1.6505E+03   1.2012E+05  0.000E+00  0.000E+00  0.000E+00  4.17403E+01  1.608E-01  2.000E+01  2.000E+04 -8.253E-02
   1   12   16     1    16    1.2012E+05 -1.0118E+03   1.2113E+05  0.000E+00  0.000E+00  0.000E+00  4.12642E+01  1.619E-01  2.000E+01  2.000E+04 -5.059E-02
   1   12   17     1    17    1.2113E+05  5.4609E+02   1.2059E+05  0.000E+00  0.000E+00  0.000E+00  4.07871E+01  1.621E-01  2.000E+01  2.000E+04  2.730E-02
   1   12   18     1    18    1.2059E+05  3.4308E+03   1.1715E+05  0.000E+00  0.000E+00  0.000E+00  4.03082E+01  1.605E-01  2.000E+01  2.000E+04  1.715E-01
   1   12   19     1    19    1.1715E+05  3.7645E+03   1.1339E+05  0.000E+00  0.000E+00  0.000E+00  3.98280E+01  1.575E-01  2.000E+01  2.000E+04  1.882E-01
   1   13   20     1    20    1.1339E+05 -5.0549E+02   1.1390E+05  0.000E+00  0.000E+00  0.000E+00  3.93494E+01  1.562E-01  2.000E+01  2.000E+04 -2.527E-02
   1   14   21     1    21    1.1390E+05 -1.3476E+03   1.1524E+05  0.000E+00  0.000E+00  0.000E+00  3.88729E+01  1.570E-01  2.000E+01  2.000E+04 -6.738E-02
   1   14   22     1    22    1.1524E+05  4.8857E+03   1.1036E+05  0.000E+00  0.000E+00  0.000E+00  3.83941E+01  1.555E-01  2.000E+01  2.000E+04  2.443E-01
   1    9   30     2     1    5.0000E+04 -4.3993E+02   5.0440E+04  0.000E+00  0.000E+00  0.000E+00  4.02412E+01  1.162E-01  2.000E+01  2.000E+04 -2.200E-02
   1    9   29     2     2    5.0440E+04 -7.0899E+02   5.1149E+04  0.000E+00  0.000E+00  0.000E+00  3.99920E+01  1.170E-01  2.000E+01  2.000E+04 -3.545E-02
   1    9   28     2     3    5.1149E+04 -8.8514E+02   5.2034E+04  0.000E+00  0.000E+00  0.000E+00  3.97431E+01  1.181E-01  2.000E+01  2.000E+04 -4.426E-02
   1    9   27     2     4    5.2034E+04 -1.6612E+03   5.3695E+04  0.000E+00  0.000E+00  0.000E+00  3.94948E+01  1.198E-01  2.000E+01  2.000E+04 -8.306E-02
   1   10   26     2     5    5.3695E+04 -9.1579E+02   5.4611E+04  0.000E+00  0.000E+00  0.000E+00  3.92465E+01  1.215E-01  2.000E+01  2.000E+04 -4.579E-02
   1   11   25     2     6    5.4611E+04 -6.6257E+02   5.5274E+04  0.000E+00  0.000E+00  0.000E+00  3.89976E+01  1.226E-01  2.000E+01  2.000E+04 -3.313E-02
   1   12   24     2     7    5.5274E+04 -5.9991E+02   5.5874E+04  0.000E+00  0.000E+00  0.000E+00  3.87485E+01  1.235E-01  2.000E+01  2.000E+04 -3.000E-02
   1   13   23     2     8    5.5874E+04 -9.8611E+01   5.5972E+04  0.000E+00  0.000E+00  0.000E+00  3.84989E+01  1.239E-01  2.000E+01  2.000E+04 -4.931E-03
   1   14   22     2     9    5.5972E+04  1.9567E+03   5.4015E+04  0.000E+00  0.000E+00  0.000E+00  3.82477E+01  1.227E-01  2.000E+01  2.000E+04  9.783E-02
   1   14   22     3     1    1.6437E+05 -8.6006E+03   1.7297E+05  0.000E+00  0.000E+00  0.000E+00  3.77198E+01  1.643E-01  2.000E+01  2.000E+04 -4.300E-01
   1   15   23     3     2    1.7297E+05 -5.5398E+02   1.7353E+05  0.000E+00  0.000E+00  0.000E+00  3.68336E+01  1.669E-01  2.000E+01  2.000E+04 -2.770E-02
   1   15   24     3     3    1.7353E+05 -2.8757E+02   1.7381E+05  0.000E+00  0.000E+00  0.000E+00  3.59449E+01  1.672E-01  2.000E+01  2.000E+04 -1.438E-02
   1   15   25     3     4    1.7381E+05 -2.7911E+02   1.7409E+05  0.000E+00  0.000E+00  0.000E+00  3.50562E+01  1.673E-01  2.000E+01  2.000E+04 -1.396E-02
   1   15   26     3     5    1.7409E+05 -3.3544E+02   1.7443E+05  0.000E+00  0.000E+00  0.000E+00  3.41675E+01  1.675E-01  2.000E+01  2.000E+04 -1.677E-02
   1   16   27     3     6    1.7443E+05 -3.6906E+02   1.7480E+05  0.000E+00  0.000E+00  0.000E+00  3.32788E+01  1.677E-01  2.000E+01  2.000E+04 -1.845E-02
   1   17   28     3     7    1.7480E+05 -1.5688E+03   1.7637E+05  0.000E+00  0.000E+00  0.000E+00  3.23905E+01  1.683E-01  2.000E+01  2.000E+04 -7.844E-02
   1   18   29     3     8    1.7637E+05 -2.9267E+03   1.7929E+05  0.000E+00  0.000E+00  0.000E+00  3.15029E+01  1.696E-01  2.000E+01  2.000E+04 -1.463E-01
   1   18   30     3     9    1.7929E+05 -3.1938E+03   1.8249E+05  0.000E+00  0.000E+00  0.000E+00  3.06157E+01  1.713E-01  2.000E+01  2.000E+04 -1.597E-01



1
              HEAD IN LAYER   1 AT END OF TIME STEP   1 IN STRESS PERIOD    8
  ---------------------------------------------------------------------------

          1      2      3      4      5      6      7      8      9     10
         11     12     13     14     15     16     17     18     19     20
         21     22     23     24     25     26     27     28     29     30
 .........................................................................
   1  ****** ****** ****** ****** ****** ****** ****** ****** ****** ******
      ****** ****** ****** ****** ****** ****** ****** ****** ****** ******
      ****** ****** ****** ****** ****** ****** ****** ****** ****** ******
   2  ****** ****** ****** ****** ****** ****** ****** ****** ****** ******
      ****** ****** ****** ****** ****** ****** ****** ****** ****** ******
      ****** ****** ****** ****** ****** ****** ****** ****** ****** ******
   3  ****** ****** ****** ****** ****** ****** ****** ****** ****** ******
      ****** ****** ****** ****** ****** ****** ****** ****** ****** ******
      ****** ****** ****** ****** ****** ****** ****** ****** ****** ******
   4  ****** ****** ****** ****** ****** ****** ****** ****** ****** ******
      ****** ****** ****** ****** ****** ****** ****** ****** ****** ******
      ****** ****** ****** ****** ****** ****** ****** ****** ****** ******
   5  ****** ****** ****** ****** ****** ****** ****** ****** ****** ******
      ****** ****** ****** ****** ****** ****** ****** ****** ****** ******
      ****** ****** ****** ****** ****** ****** ****** ****** ****** ******
   6  ****** ****** ****** ****** ****** ****** ****** ****** ****** ******
      ****** ****** ****** ****** ****** ****** ****** ****** ****** ******
      ****** ****** ****** ****** ****** ****** ****** ****** ****** ******
   7  ****** ****** ****** ****** ****** ****** ****** ****** ****** ******
      ****** ****** ****** ****** ****** ****** ****** ****** ****** ******
      ****** ****** ****** ****** ****** ****** ****** ****** ****** ******
   8  ****** ****** ****** ****** ****** ****** ****** ****** ****** ******
      ****** ****** ****** ****** ****** ****** ****** ****** ****** ******
      ****** ****** ****** ****** ****** ****** ****** ****** ****** ******
   9  ****** ****** ****** ****** ****** ****** ****** ****** ****** ******
      ****** ****** ****** ****** ****** ****** ****** ****** ****** ******
      ****** ****** ****** ****** ****** ****** ****** ****** ****** ******
  10  ****** ****** ****** ****** ****** ****** ****** ****** ****** ******
      ****** ****** ****** ****** ****** ****** ****** ****** ****** ******
      ****** ****** ****** ****** ****** ****** ****** ****** ****** ******
  11  ****** ****** ****** ****** ****** ****** ****** ****** ****** ******
      ****** ****** ****** ****** ****** ****** ****** ****** ****** ******
      ****** ****** ****** ****** ****** ****** ****** ****** ****** ******
  12  ****** ****** ****** ****** ****** ****** ****** ****** ****** ******
      ****** ****** ****** ****** ****** ****** ****** ****** ****** ******
      ****** ****** ****** ****** ****** ****** ****** ****** ****** ******
  13  ****** ****** ****** ****** ****** ****** ****** ****** ****** ******
      ****** ****** ****** ****** ****** ****** ****** ****** ****** ******
      ****** ****** ****** ****** ****** ****** ****** ****** ****** ******
  14  ****** ****** ****** ****** ****** ****** ****** ****** ****** ******
      ****** ****** ****** ****** ****** ****** ****** ****** ****** ******
      ****** ****** ****** ****** ****** ****** ****** ****** ****** ******
  15  ****** ****** ****** ****** ****** ****** ****** ****** ****** ******
      ****** ****** ****** ****** ****** ****** ****** ****** ****** ******
      ****** ****** ****** ****** ****** ****** ****** ****** ****** ******
  16  ****** ****** ****** ****** ****** ****** ****** ****** ****** ******
      ****** ****** ****** ****** ****** ****** ****** ****** ****** ******
      ****** ****** ****** ****** ****** ****** ****** ****** ****** ******
  17  ****** ****** ****** ****** ****** ****** ****** ****** ****** ******
      ****** ****** ****** ****** ****** ****** ****** ****** ****** ******
      ****** ****** ****** ****** ****** ****** ****** ****** ****** ******
  18  ****** ****** ****** ****** ****** ****** ****** ****** ****** ******
      ****** ****** ****** ****** ****** ****** ****** ****** ****** ******
      ****** ****** ****** ****** ****** ****** ****** ****** ****** ******
  19  ****** ****** ****** ****** ****** ****** ****** ****** ****** ******
      ****** ****** ****** ****** ****** ****** ****** ****** ****** ******
      ****** ****** ****** ****** ****** ****** ****** ****** ****** ******
  20  ****** ****** ****** ****** ****** ****** ****** ****** ****** ******
      ****** ****** ****** ****** ****** ****** ****** ****** ****** ******
      ****** ****** ****** ****** ****** ****** ****** ****** ****** ******
  21  ****** ****** ****** ****** ****** ****** ****** ****** ****** ******
      ****** ****** ****** ****** ****** ****** ****** ****** ****** ******
      ****** ****** ****** ****** ****** ****** ****** ****** ****** ******
  22  ****** ****** ****** ****** ****** ****** ****** ****** ****** ******
      ****** ****** ****** ****** ****** ****** ****** ****** ****** ******
      ****** ****** ****** ****** ****** ****** ****** ****** ****** ******
  23  ****** ****** ****** ****** ****** ****** ****** ****** ****** ******
      ****** ****** ****** ****** ****** ****** ****** ****** ****** ******
      ****** ****** ****** ****** ****** ****** ****** ****** ****** ******
  24  ****** ****** ****** ****** ****** ****** ****** ****** ****** ******
      ****** ****** ****** ****** ****** ****** ****** ****** ****** ******
      ****** ****** ****** ****** ****** ****** ****** ****** ****** ******
  25  ****** ****** ****** ****** ****** ****** ****** ****** ****** ******
      ****** ****** ****** ****** ****** ****** ****** ****** ****** ******
      ****** ****** ****** ****** ****** ****** ****** ****** ****** ******

 HEAD WILL BE SAVED ON UNIT   51 AT END OF TIME STEP    1, STRESS PERIOD    8
1
  VOLUMETRIC BUDGET FOR ENTIRE MODEL AT END OF TIME STEP    1, STRESS PERIOD   8
  ------------------------------------------------------------------------------

     CUMULATIVE VOLUMES      L**3       RATES FOR THIS TIME STEP      L**3/T
     ------------------                 ------------------------

           IN:                                      IN:
           ---                                      ---
             STORAGE =    32717744.3633               STORAGE =        1548.0083
       CONSTANT HEAD =    18971242.0207         CONSTANT HEAD =       32588.0214
               WELLS =           0.0000                 WELLS =           0.0000
            RECHARGE =    17608800.0000              RECHARGE =       27600.0000
      STREAM LEAKAGE =     8530920.8953        STREAM LEAKAGE =       14583.7794

            TOTAL IN =    77828707.2793              TOTAL IN =       76319.8091

          OUT:                                     OUT:
          ----                                     ----
             STORAGE =      944461.4330               STORAGE =        1599.4315
       CONSTANT HEAD =           0.0000         CONSTANT HEAD =           0.0000
               WELLS =    20183735.4515                 WELLS =       27648.9527
            RECHARGE =           0.0000              RECHARGE =           0.0000
      STREAM LEAKAGE =    56700512.1167        STREAM LEAKAGE =       47071.4167

           TOTAL OUT =    77828709.0011             TOTAL OUT =       76319.8009

            IN - OUT =          -1.7218              IN - OUT =       8.2392E-03

 PERCENT DISCREPANCY =          -0.00     PERCENT DISCREPANCY =           0.00






         TIME SUMMARY AT END OF TIME STEP    1 IN STRESS PERIOD    8
                    SECONDS     MINUTES      HOURS       DAYS        YEARS
                    -----------------------------------------------------------
   TIME STEP LENGTH 7.86240E+06 1.31040E+05  2184.0      91.000     0.24914    
 STRESS PERIOD TIME 7.86240E+06 1.31040E+05  2184.0      91.000     0.24914    
         TOTAL TIME 6.30720E+07 1.05120E+06  17520.      730.00      1.9986    
1
1
                            STRESS PERIOD NO.    9, LENGTH =   92.00000    
                            -----------------------------------------------

                              NUMBER OF TIME STEPS =     1

                               MULTIPLIER FOR DELT =     1.500

                            INITIAL TIME STEP SIZE =   92.00000    

 WELL NO.  LAYER   ROW   COL   STRESS RATE         
 --------------------------------------------------
      1      1     11     18      -9961.    
      2      1      5     20      -7658.    
      3      1     11     16      -434.0    
      4      1     11     19      -9596.    

      4 WELLS

                 RECHARGE =  5.000000E-04

 REUSING STREAM SEGMENT DATA FROM LAST STRESS PERIOD
 
 SOLVING FOR HEAD 


     6 CALLS TO PCG ROUTINE FOR TIME STEP   1 IN STRESS PERIOD    9
    23 TOTAL ITERATIONS

 OUTPUT CONTROL FOR STRESS PERIOD    9   TIME STEP    1
    SAVE BUDGET
    SAVE HEAD FOR ALL LAYERS
    PRINT HEAD FOR ALL LAYERS
 UBDSV2 SAVING "STREAMFLOW OUT  " ON UNIT  50 AT TIME STEP  1, STRESS PERIOD   9



 STREAM LISTING     PERIOD      9   STEP        1

 LAYER ROW COL. STREAM  RCH.  FLOW INTO     FLOW TO   FLOW OUT OF   OVRLND.     DIRECT     STREAM       STREAM     STREAM     STREAM   STREAMBED  STREAMBED
                SEG.NO.  NO.  STRM. RCH.    AQUIFER    STRM. RCH.    RUNOFF     PRECIP       ET          HEAD       DEPTH      WIDTH   CONDCTNC.   GRADIENT

   1   13    1     1     1    1.0000E+05 -1.5810E+03   1.0158E+05  0.000E+00  0.000E+00  0.000E+00  4.84067E+01  1.453E-01  2.000E+01  2.000E+04 -7.905E-02
   1   13    2     1     2    1.0158E+05 -2.5153E+03   1.0410E+05  0.000E+00  0.000E+00  0.000E+00  4.79312E+01  1.471E-01  2.000E+01  2.000E+04 -1.258E-01
   1   14    3     1     3    1.0410E+05 -3.9971E+02   1.0450E+05  0.000E+00  0.000E+00  0.000E+00  4.74552E+01  1.483E-01  2.000E+01  2.000E+04 -1.999E-02
   1   15    4     1     4    1.0450E+05 -3.7381E+02   1.0487E+05  0.000E+00  0.000E+00  0.000E+00  4.69782E+01  1.487E-01  2.000E+01  2.000E+04 -1.869E-02
   1   16    5     1     5    1.0487E+05 -1.4822E+03   1.0635E+05  0.000E+00  0.000E+00  0.000E+00  4.65017E+01  1.495E-01  2.000E+01  2.000E+04 -7.411E-02
   1   16    6     1     6    1.0635E+05 -9.4628E+02   1.0730E+05  0.000E+00  0.000E+00  0.000E+00  4.60255E+01  1.505E-01  2.000E+01  2.000E+04 -4.731E-02
   1   16    7     1     7    1.0730E+05 -9.3470E+02   1.0823E+05  0.000E+00  0.000E+00  0.000E+00  4.55490E+01  1.513E-01  2.000E+01  2.000E+04 -4.674E-02
   1   16    8     1     8    1.0823E+05 -9.3605E+02   1.0917E+05  0.000E+00  0.000E+00  0.000E+00  4.50725E+01  1.521E-01  2.000E+01  2.000E+04 -4.680E-02
   1   16    9     1     9    1.0917E+05 -9.3477E+02   1.1010E+05  0.000E+00  0.000E+00  0.000E+00  4.45960E+01  1.529E-01  2.000E+01  2.000E+04 -4.674E-02
   1   16   10     1    10    1.1010E+05 -9.3171E+02   1.1104E+05  0.000E+00  0.000E+00  0.000E+00  4.41195E+01  1.536E-01  2.000E+01  2.000E+04 -4.659E-02
   1   16   11     1    11    1.1104E+05 -9.4616E+02   1.1198E+05  0.000E+00  0.000E+00  0.000E+00  4.36431E+01  1.544E-01  2.000E+01  2.000E+04 -4.731E-02
   1   16   12     1    12    1.1198E+05 -1.5912E+03   1.1357E+05  0.000E+00  0.000E+00  0.000E+00  4.31668E+01  1.555E-01  2.000E+01  2.000E+04 -7.956E-02
   1   15   13     1    13    1.1357E+05 -1.3537E+03   1.1493E+05  0.000E+00  0.000E+00  0.000E+00  4.26908E+01  1.567E-01  2.000E+01  2.000E+04 -6.768E-02
   1   14   14     1    14    1.1493E+05 -1.4437E+03   1.1637E+05  0.000E+00  0.000E+00  0.000E+00  4.22147E+01  1.578E-01  2.000E+01  2.000E+04 -7.219E-02
   1   13   15     1    15    1.1637E+05 -1.4206E+03   1.1779E+05  0.000E+00  0.000E+00  0.000E+00  4.17386E+01  1.590E-01  2.000E+01  2.000E+04 -7.103E-02
   1   12   16     1    16    1.1779E+05 -7.7255E+02   1.1856E+05  0.000E+00  0.000E+00  0.000E+00  4.12622E+01  1.599E-01  2.000E+01  2.000E+04 -3.863E-02
   1   12   17     1    17    1.1856E+05  7.0985E+02   1.1785E+05  0.000E+00  0.000E+00  0.000E+00  4.07849E+01  1.599E-01  2.000E+01  2.000E+04  3.549E-02
   1   12   18     1    18    1.1785E+05  3.5869E+03   1.1427E+05  0.000E+00  0.000E+00  0.000E+00  4.03059E+01  1.582E-01  2.000E+01  2.000E+04  1.793E-01
   1   12   19     1    19    1.1427E+05  3.9527E+03   1.1031E+05  0.000E+00  0.000E+00  0.000E+00  3.98255E+01  1.551E-01  2.000E+01  2.000E+04  1.976E-01
   1   13   20     1    20    1.1031E+05 -3.3220E+02   1.1065E+05  0.000E+00  0.000E+00  0.000E+00  3.93467E+01  1.536E-01  2.000E+01  2.000E+04 -1.661E-02
   1   14   21     1    21    1.1065E+05 -1.1776E+03   1.1182E+05  0.000E+00  0.000E+00  0.000E+00  3.88701E+01  1.542E-01  2.000E+01  2.000E+04 -5.888E-02
   1   14   22     1    22    1.1182E+05  4.9230E+03   1.0690E+05  0.000E+00  0.000E+00  0.000E+00  3.83913E+01  1.526E-01  2.000E+01  2.000E+04  2.461E-01
   1    9   30     2     1    5.0000E+04 -3.1602E+02   5.0316E+04  0.000E+00  0.000E+00  0.000E+00  4.02411E+01  1.161E-01  2.000E+01  2.000E+04 -1.580E-02
   1    9   29     2     2    5.0316E+04 -5.8482E+02   5.0901E+04  0.000E+00  0.000E+00  0.000E+00  3.99917E+01  1.167E-01  2.000E+01  2.000E+04 -2.924E-02
   1    9   28     2     3    5.0901E+04 -7.5897E+02   5.1660E+04  0.000E+00  0.000E+00  0.000E+00  3.97426E+01  1.176E-01  2.000E+01  2.000E+04 -3.795E-02
   1    9   27     2     4    5.1660E+04 -1.4832E+03   5.3143E+04  0.000E+00  0.000E+00  0.000E+00  3.94942E+01  1.192E-01  2.000E+01  2.000E+04 -7.416E-02
   1   10   26     2     5    5.3143E+04 -7.4102E+02   5.3884E+04  0.000E+00  0.000E+00  0.000E+00  3.92457E+01  1.207E-01  2.000E+01  2.000E+04 -3.705E-02
   1   11   25     2     6    5.3884E+04 -4.9539E+02   5.4379E+04  0.000E+00  0.000E+00  0.000E+00  3.89965E+01  1.215E-01  2.000E+01  2.000E+04 -2.477E-02
   1   12   24     2     7    5.4379E+04 -4.4618E+02   5.4826E+04  0.000E+00  0.000E+00  0.000E+00  3.87472E+01  1.222E-01  2.000E+01  2.000E+04 -2.231E-02
   1   13   23     2     8    5.4826E+04 -5.1359E+01   5.4877E+04  0.000E+00  0.000E+00  0.000E+00  3.84975E+01  1.225E-01  2.000E+01  2.000E+04 -2.568E-03
   1   14   22     2     9    5.4877E+04  2.0209E+03   5.2856E+04  0.000E+00  0.000E+00  0.000E+00  3.82462E+01  1.212E-01  2.000E+01  2.000E+04  1.010E-01
   1   14   22     3     1    1.5976E+05 -8.5606E+03   1.6832E+05  0.000E+00  0.000E+00  0.000E+00  3.77171E+01  1.615E-01  2.000E+01  2.000E+04 -4.280E-01
   1   15   23     3     2    1.6832E+05 -5.0188E+02   1.6882E+05  0.000E+00  0.000E+00  0.000E+00  3.68309E+01  1.642E-01  2.000E+01  2.000E+04 -2.509E-02
   1   15   24     3     3    1.6882E+05 -2.4484E+02   1.6906E+05  0.000E+00  0.000E+00  0.000E+00  3.59422E+01  1.644E-01  2.000E+01  2.000E+04 -1.224E-02
   1   15   25     3     4    1.6906E+05 -2.3609E+02   1.6930E+05  0.000E+00  0.000E+00  0.000E+00  3.50534E+01  1.646E-01  2.000E+01  2.000E+04 -1.180E-02
   1   15   26     3     5    1.6930E+05 -2.8801E+02   1.6959E+05  0.000E+00  0.000E+00  0.000E+00  3.41647E+01  1.647E-01  2.000E+01  2.000E+04 -1.440E-02
   1   16   27     3     6    1.6959E+05 -3.1336E+02   1.6990E+05  0.000E+00  0.000E+00  0.000E+00  3.32760E+01  1.649E-01  2.000E+01  2.000E+04 -1.567E-02
   1   17   28     3     7    1.6990E+05 -1.4163E+03   1.7132E+05  0.000E+00  0.000E+00  0.000E+00  3.23876E+01  1.654E-01  2.000E+01  2.000E+04 -7.082E-02
   1   18   29     3     8    1.7132E+05 -2.7529E+03   1.7407E+05  0.000E+00  0.000E+00  0.000E+00  3.14999E+01  1.666E-01  2.000E+01  2.000E+04 -1.376E-01
   1   18   30     3     9    1.7407E+05 -3.0629E+03   1.7713E+05  0.000E+00  0.000E+00  0.000E+00  3.06127E+01  1.683E-01  2.000E+01  2.000E+04 -1.531E-01



1
              HEAD IN LAYER   1 AT END OF TIME STEP   1 IN STRESS PERIOD    9
  ---------------------------------------------------------------------------

          1      2      3      4      5      6      7      8      9     10
         11     12     13     14     15     16     17     18     19     20
         21     22     23     24     25     26     27     28     29     30
 .........................................................................
   1  ****** ****** ****** ****** ****** ****** ****** ****** ****** ******
      ****** ****** ****** ****** ****** ****** ****** ****** ****** ******
      ****** ****** ****** ****** ****** ****** ****** ****** ****** ******
   2  ****** ****** ****** ****** ****** ****** ****** ****** ****** ******
      ****** ****** ****** ****** ****** ****** ****** ****** ****** ******
      ****** ****** ****** ****** ****** ****** ****** ****** ****** ******
   3  ****** ****** ****** ****** ****** ****** ****** ****** ****** ******
      ****** ****** ****** ****** ****** ****** ****** ****** ****** ******
      ****** ****** ****** ****** ****** ****** ****** ****** ****** ******
   4  ****** ****** ****** ****** ****** ****** ****** ****** ****** ******
      ****** ****** ****** ****** ****** ****** ****** ****** ****** ******
      ****** ****** ****** ****** ****** ****** ****** ****** ****** ******
   5  ****** ****** ****** ****** ****** ****** ****** ****** ****** ******
      ****** ****** ****** ****** ****** ****** ****** ****** ****** ******
      ****** ****** ****** ****** ****** ****** ****** ****** ****** ******
   6  ****** ****** ****** ****** ****** ****** ****** ****** ****** ******
      ****** ****** ****** ****** ****** ****** ****** ****** ****** ******
      ****** ****** ****** ****** ****** ****** ****** ****** ****** ******
   7  ****** ****** ****** ****** ****** ****** ****** ****** ****** ******
      ****** ****** ****** ****** ****** ****** ****** ****** ****** ******
      ****** ****** ****** ****** ****** ****** ****** ****** ****** ******
   8  ****** ****** ****** ****** ****** ****** ****** ****** ****** ******
      ****** ****** ****** ****** ****** ****** ****** ****** ****** ******
      ****** ****** ****** ****** ****** ****** ****** ****** ****** ******
   9  ****** ****** ****** ****** ****** ****** ****** ****** ****** ******
      ****** ****** ****** ****** ****** ****** ****** ****** ****** ******
      ****** ****** ****** ****** ****** ****** ****** ****** ****** ******
  10  ****** ****** ****** ****** ****** ****** ****** ****** ****** ******
      ****** ****** ****** ****** ****** ****** ****** ****** ****** ******
      ****** ****** ****** ****** ****** ****** ****** ****** ****** ******
  11  ****** ****** ****** ****** ****** ****** ****** ****** ****** ******
      ****** ****** ****** ****** ****** ****** ****** ****** ****** ******
      ****** ****** ****** ****** ****** ****** ****** ****** ****** ******
  12  ****** ****** ****** ****** ****** ****** ****** ****** ****** ******
      ****** ****** ****** ****** ****** ****** ****** ****** ****** ******
      ****** ****** ****** ****** ****** ****** ****** ****** ****** ******
  13  ****** ****** ****** ****** ****** ****** ****** ****** ****** ******
      ****** ****** ****** ****** ****** ****** ****** ****** ****** ******
      ****** ****** ****** ****** ****** ****** ****** ****** ****** ******
  14  ****** ****** ****** ****** ****** ****** ****** ****** ****** ******
      ****** ****** ****** ****** ****** ****** ****** ****** ****** ******
      ****** ****** ****** ****** ****** ****** ****** ****** ****** ******
  15  ****** ****** ****** ****** ****** ****** ****** ****** ****** ******
      ****** ****** ****** ****** ****** ****** ****** ****** ****** ******
      ****** ****** ****** ****** ****** ****** ****** ****** ****** ******
  16  ****** ****** ****** ****** ****** ****** ****** ****** ****** ******
      ****** ****** ****** ****** ****** ****** ****** ****** ****** ******
      ****** ****** ****** ****** ****** ****** ****** ****** ****** ******
  17  ****** ****** ****** ****** ****** ****** ****** ****** ****** ******
      ****** ****** ****** ****** ****** ****** ****** ****** ****** ******
      ****** ****** ****** ****** ****** ****** ****** ****** ****** ******
  18  ****** ****** ****** ****** ****** ****** ****** ****** ****** ******
      ****** ****** ****** ****** ****** ****** ****** ****** ****** ******
      ****** ****** ****** ****** ****** ****** ****** ****** ****** ******
  19  ****** ****** ****** ****** ****** ****** ****** ****** ****** ******
      ****** ****** ****** ****** ****** ****** ****** ****** ****** ******
      ****** ****** ****** ****** ****** ****** ****** ****** ****** ******
  20  ****** ****** ****** ****** ****** ****** ****** ****** ****** ******
      ****** ****** ****** ****** ****** ****** ****** ****** ****** ******
      ****** ****** ****** ****** ****** ****** ****** ****** ****** ******
  21  ****** ****** ****** ****** ****** ****** ****** ****** ****** ******
      ****** ****** ****** ****** ****** ****** ****** ****** ****** ******
      ****** ****** ****** ****** ****** ****** ****** ****** ****** ******
  22  ****** ****** ****** ****** ****** ****** ****** ****** ****** ******
      ****** ****** ****** ****** ****** ****** ****** ****** ****** ******
      ****** ****** ****** ****** ****** ****** ****** ****** ****** ******
  23  ****** ****** ****** ****** ****** ****** ****** ****** ****** ******
      ****** ****** ****** ****** ****** ****** ****** ****** ****** ******
      ****** ****** ****** ****** ****** ****** ****** ****** ****** ******
  24  ****** ****** ****** ****** ****** ****** ****** ****** ****** ******
      ****** ****** ****** ****** ****** ****** ****** ****** ****** ******
      ****** ****** ****** ****** ****** ****** ****** ****** ****** ******
  25  ****** ****** ****** ****** ****** ****** ****** ****** ****** ******
      ****** ****** ****** ****** ****** ****** ****** ****** ****** ******
      ****** ****** ****** ****** ****** ****** ****** ****** ****** ******

 HEAD WILL BE SAVED ON UNIT   51 AT END OF TIME STEP    1, STRESS PERIOD    9
1
  VOLUMETRIC BUDGET FOR ENTIRE MODEL AT END OF TIME STEP    1, STRESS PERIOD   9
  ------------------------------------------------------------------------------

     CUMULATIVE VOLUMES      L**3       RATES FOR THIS TIME STEP      L**3/T
     ------------------                 ------------------------

           IN:                                      IN:
           ---                                      ---
             STORAGE =    33382646.5024               STORAGE =        7227.1972
       CONSTANT HEAD =    22076768.8678         CONSTANT HEAD =       33755.7266
               WELLS =           0.0000                 WELLS =           0.0000
            RECHARGE =    18878400.0000              RECHARGE =       13800.0000
      STREAM LEAKAGE =     9928697.2887        STREAM LEAKAGE =       15193.2217

            TOTAL IN =    84266512.6590              TOTAL IN =       69976.1454

          OUT:                                     OUT:
          ----                                     ----
             STORAGE =      944461.4330               STORAGE =           0.0000
       CONSTANT HEAD =           0.0000         CONSTANT HEAD =           0.0000
               WELLS =    22727439.0974                 WELLS =       27648.9527
            RECHARGE =           0.0000              RECHARGE =           0.0000
      STREAM LEAKAGE =    60594613.9195        STREAM LEAKAGE =       42327.1935

           TOTAL OUT =    84266514.4500             TOTAL OUT =       69976.1462

            IN - OUT =          -1.7910              IN - OUT =      -7.5199E-04

 PERCENT DISCREPANCY =          -0.00     PERCENT DISCREPANCY =          -0.00






         TIME SUMMARY AT END OF TIME STEP    1 IN STRESS PERIOD    9
                    SECONDS     MINUTES      HOURS       DAYS        YEARS
                    -----------------------------------------------------------
   TIME STEP LENGTH 7.94880E+06 1.32480E+05  2208.0      92.000     0.25188    
 STRESS PERIOD TIME 7.94880E+06 1.32480E+05  2208.0      92.000     0.25188    
         TOTAL TIME 7.10208E+07 1.18368E+06  19728.      822.00      2.2505    
1
1
                            STRESS PERIOD NO.   10, LENGTH =   91.00000    
                            -----------------------------------------------

                              NUMBER OF TIME STEPS =     1

                               MULTIPLIER FOR DELT =     1.500

                            INITIAL TIME STEP SIZE =   91.00000    

 WELL NO.  LAYER   ROW   COL   STRESS RATE         
 --------------------------------------------------
      1      1     11     18      -9961.    
      2      1      5     20      -7658.    
      3      1     11     16      -434.0    
      4      1     11     19      -9596.    

      4 WELLS

                 RECHARGE =  2.000000E-03

 REUSING STREAM SEGMENT DATA FROM LAST STRESS PERIOD
 
 SOLVING FOR HEAD 


     7 CALLS TO PCG ROUTINE FOR TIME STEP   1 IN STRESS PERIOD   10
    26 TOTAL ITERATIONS

 OUTPUT CONTROL FOR STRESS PERIOD   10   TIME STEP    1
    SAVE BUDGET
    SAVE HEAD FOR ALL LAYERS
    PRINT HEAD FOR ALL LAYERS
 UBDSV2 SAVING "STREAMFLOW OUT  " ON UNIT  50 AT TIME STEP  1, STRESS PERIOD  10



 STREAM LISTING     PERIOD     10   STEP        1

 LAYER ROW COL. STREAM  RCH.  FLOW INTO     FLOW TO   FLOW OUT OF   OVRLND.     DIRECT     STREAM       STREAM     STREAM     STREAM   STREAMBED  STREAMBED
                SEG.NO.  NO.  STRM. RCH.    AQUIFER    STRM. RCH.    RUNOFF     PRECIP       ET          HEAD       DEPTH      WIDTH   CONDCTNC.   GRADIENT

   1   13    1     1     1    1.0000E+05 -2.0323E+03   1.0203E+05  0.000E+00  0.000E+00  0.000E+00  4.84069E+01  1.455E-01  2.000E+01  2.000E+04 -1.016E-01
   1   13    2     1     2    1.0203E+05 -3.0155E+03   1.0505E+05  0.000E+00  0.000E+00  0.000E+00  4.79318E+01  1.477E-01  2.000E+01  2.000E+04 -1.508E-01
   1   14    3     1     3    1.0505E+05 -5.8607E+02   1.0563E+05  0.000E+00  0.000E+00  0.000E+00  4.74561E+01  1.492E-01  2.000E+01  2.000E+04 -2.930E-02
   1   15    4     1     4    1.0563E+05 -5.7314E+02   1.0621E+05  0.000E+00  0.000E+00  0.000E+00  4.69793E+01  1.497E-01  2.000E+01  2.000E+04 -2.866E-02
   1   16    5     1     5    1.0621E+05 -2.1016E+03   1.0831E+05  0.000E+00  0.000E+00  0.000E+00  4.65031E+01  1.509E-01  2.000E+01  2.000E+04 -1.051E-01
   1   16    6     1     6    1.0831E+05 -1.3086E+03   1.0962E+05  0.000E+00  0.000E+00  0.000E+00  4.60273E+01  1.523E-01  2.000E+01  2.000E+04 -6.543E-02
   1   16    7     1     7    1.0962E+05 -1.2792E+03   1.1090E+05  0.000E+00  0.000E+00  0.000E+00  4.55511E+01  1.534E-01  2.000E+01  2.000E+04 -6.396E-02
   1   16    8     1     8    1.1090E+05 -1.2751E+03   1.1217E+05  0.000E+00  0.000E+00  0.000E+00  4.50749E+01  1.544E-01  2.000E+01  2.000E+04 -6.376E-02
   1   16    9     1     9    1.1217E+05 -1.2724E+03   1.1344E+05  0.000E+00  0.000E+00  0.000E+00  4.45987E+01  1.555E-01  2.000E+01  2.000E+04 -6.362E-02
   1   16   10     1    10    1.1344E+05 -1.2696E+03   1.1471E+05  0.000E+00  0.000E+00  0.000E+00  4.41225E+01  1.565E-01  2.000E+01  2.000E+04 -6.348E-02
   1   16   11     1    11    1.1471E+05 -1.2876E+03   1.1600E+05  0.000E+00  0.000E+00  0.000E+00  4.36462E+01  1.576E-01  2.000E+01  2.000E+04 -6.438E-02
   1   16   12     1    12    1.1600E+05 -2.1612E+03   1.1816E+05  0.000E+00  0.000E+00  0.000E+00  4.31704E+01  1.590E-01  2.000E+01  2.000E+04 -1.081E-01
   1   15   13     1    13    1.1816E+05 -1.9401E+03   1.2010E+05  0.000E+00  0.000E+00  0.000E+00  4.26948E+01  1.607E-01  2.000E+01  2.000E+04 -9.701E-02
   1   14   14     1    14    1.2010E+05 -2.0371E+03   1.2214E+05  0.000E+00  0.000E+00  0.000E+00  4.22191E+01  1.623E-01  2.000E+01  2.000E+04 -1.019E-01
   1   13   15     1    15    1.2214E+05 -2.0036E+03   1.2414E+05  0.000E+00  0.000E+00  0.000E+00  4.17434E+01  1.639E-01  2.000E+01  2.000E+04 -1.002E-01
   1   12   16     1    16    1.2414E+05 -1.3335E+03   1.2548E+05  0.000E+00  0.000E+00  0.000E+00  4.12675E+01  1.652E-01  2.000E+01  2.000E+04 -6.668E-02
   1   12   17     1    17    1.2548E+05  2.8467E+02   1.2519E+05  0.000E+00  0.000E+00  0.000E+00  4.07906E+01  1.656E-01  2.000E+01  2.000E+04  1.423E-02
   1   12   18     1    18    1.2519E+05  3.1658E+03   1.2203E+05  0.000E+00  0.000E+00  0.000E+00  4.03120E+01  1.643E-01  2.000E+01  2.000E+04  1.583E-01
   1   12   19     1    19    1.2203E+05  3.4347E+03   1.1859E+05  0.000E+00  0.000E+00  0.000E+00  3.98321E+01  1.616E-01  2.000E+01  2.000E+04  1.717E-01
   1   13   20     1    20    1.1859E+05 -8.5354E+02   1.1945E+05  0.000E+00  0.000E+00  0.000E+00  3.93538E+01  1.606E-01  2.000E+01  2.000E+04 -4.268E-02
   1   14   21     1    21    1.1945E+05 -1.7033E+03   1.2115E+05  0.000E+00  0.000E+00  0.000E+00  3.88775E+01  1.616E-01  2.000E+01  2.000E+04 -8.516E-02
   1   14   22     1    22    1.2115E+05  4.7977E+03   1.1635E+05  0.000E+00  0.000E+00  0.000E+00  3.83990E+01  1.604E-01  2.000E+01  2.000E+04  2.399E-01
   1    9   30     2     1    5.0000E+04 -7.2997E+02   5.0730E+04  0.000E+00  0.000E+00  0.000E+00  4.02414E+01  1.164E-01  2.000E+01  2.000E+04 -3.650E-02
   1    9   29     2     2    5.0730E+04 -9.9646E+02   5.1726E+04  0.000E+00  0.000E+00  0.000E+00  3.99926E+01  1.176E-01  2.000E+01  2.000E+04 -4.982E-02
   1    9   28     2     3    5.1726E+04 -1.1698E+03   5.2896E+04  0.000E+00  0.000E+00  0.000E+00  3.97441E+01  1.191E-01  2.000E+01  2.000E+04 -5.849E-02
   1    9   27     2     4    5.2896E+04 -2.0355E+03   5.4932E+04  0.000E+00  0.000E+00  0.000E+00  3.94962E+01  1.212E-01  2.000E+01  2.000E+04 -1.018E-01
   1   10   26     2     5    5.4932E+04 -1.2935E+03   5.6225E+04  0.000E+00  0.000E+00  0.000E+00  3.92485E+01  1.235E-01  2.000E+01  2.000E+04 -6.467E-02
   1   11   25     2     6    5.6225E+04 -1.0234E+03   5.7249E+04  0.000E+00  0.000E+00  0.000E+00  3.90000E+01  1.250E-01  2.000E+01  2.000E+04 -5.117E-02
   1   12   24     2     7    5.7249E+04 -9.2402E+02   5.8173E+04  0.000E+00  0.000E+00  0.000E+00  3.87513E+01  1.263E-01  2.000E+01  2.000E+04 -4.620E-02
   1   13   23     2     8    5.8173E+04 -2.0001E+02   5.8373E+04  0.000E+00  0.000E+00  0.000E+00  3.85020E+01  1.270E-01  2.000E+01  2.000E+04 -1.000E-02
   1   14   22     2     9    5.8373E+04  1.8366E+03   5.6536E+04  0.000E+00  0.000E+00  0.000E+00  3.82509E+01  1.259E-01  2.000E+01  2.000E+04  9.183E-02
   1   14   22     3     1    1.7289E+05 -8.6870E+03   1.8157E+05  0.000E+00  0.000E+00  0.000E+00  3.77248E+01  1.692E-01  2.000E+01  2.000E+04 -4.343E-01
   1   15   23     3     2    1.8157E+05 -6.6466E+02   1.8224E+05  0.000E+00  0.000E+00  0.000E+00  3.68385E+01  1.719E-01  2.000E+01  2.000E+04 -3.323E-02
   1   15   24     3     3    1.8224E+05 -3.8216E+02   1.8262E+05  0.000E+00  0.000E+00  0.000E+00  3.59499E+01  1.722E-01  2.000E+01  2.000E+04 -1.911E-02
   1   15   25     3     4    1.8262E+05 -3.7681E+02   1.8300E+05  0.000E+00  0.000E+00  0.000E+00  3.50613E+01  1.724E-01  2.000E+01  2.000E+04 -1.884E-02
   1   15   26     3     5    1.8300E+05 -4.5034E+02   1.8345E+05  0.000E+00  0.000E+00  0.000E+00  3.41726E+01  1.726E-01  2.000E+01  2.000E+04 -2.252E-02
   1   16   27     3     6    1.8345E+05 -4.9938E+02   1.8395E+05  0.000E+00  0.000E+00  0.000E+00  3.32840E+01  1.729E-01  2.000E+01  2.000E+04 -2.497E-02
   1   17   28     3     7    1.8395E+05 -1.9375E+03   1.8588E+05  0.000E+00  0.000E+00  0.000E+00  3.23958E+01  1.736E-01  2.000E+01  2.000E+04 -9.688E-02
   1   18   29     3     8    1.8588E+05 -3.3055E+03   1.8919E+05  0.000E+00  0.000E+00  0.000E+00  3.15084E+01  1.750E-01  2.000E+01  2.000E+04 -1.653E-01
   1   18   30     3     9    1.8919E+05 -3.4890E+03   1.9268E+05  0.000E+00  0.000E+00  0.000E+00  3.06214E+01  1.769E-01  2.000E+01  2.000E+04 -1.745E-01



1
              HEAD IN LAYER   1 AT END OF TIME STEP   1 IN STRESS PERIOD   10
  ---------------------------------------------------------------------------

          1      2      3      4      5      6      7      8      9     10
         11     12     13     14     15     16     17     18     19     20
         21     22     23     24     25     26     27     28     29     30
 .........................................................................
   1  ****** ****** ****** ****** ****** ****** ****** ****** ****** ******
      ****** ****** ****** ****** ****** ****** ****** ****** ****** ******
      ****** ****** ****** ****** ****** ****** ****** ****** ****** ******
   2  ****** ****** ****** ****** ****** ****** ****** ****** ****** ******
      ****** ****** ****** ****** ****** ****** ****** ****** ****** ******
      ****** ****** ****** ****** ****** ****** ****** ****** ****** ******
   3  ****** ****** ****** ****** ****** ****** ****** ****** ****** ******
      ****** ****** ****** ****** ****** ****** ****** ****** ****** ******
      ****** ****** ****** ****** ****** ****** ****** ****** ****** ******
   4  ****** ****** ****** ****** ****** ****** ****** ****** ****** ******
      ****** ****** ****** ****** ****** ****** ****** ****** ****** ******
      ****** ****** ****** ****** ****** ****** ****** ****** ****** ******
   5  ****** ****** ****** ****** ****** ****** ****** ****** ****** ******
      ****** ****** ****** ****** ****** ****** ****** ****** ****** ******
      ****** ****** ****** ****** ****** ****** ****** ****** ****** ******
   6  ****** ****** ****** ****** ****** ****** ****** ****** ****** ******
      ****** ****** ****** ****** ****** ****** ****** ****** ****** ******
      ****** ****** ****** ****** ****** ****** ****** ****** ****** ******
   7  ****** ****** ****** ****** ****** ****** ****** ****** ****** ******
      ****** ****** ****** ****** ****** ****** ****** ****** ****** ******
      ****** ****** ****** ****** ****** ****** ****** ****** ****** ******
   8  ****** ****** ****** ****** ****** ****** ****** ****** ****** ******
      ****** ****** ****** ****** ****** ****** ****** ****** ****** ******
      ****** ****** ****** ****** ****** ****** ****** ****** ****** ******
   9  ****** ****** ****** ****** ****** ****** ****** ****** ****** ******
      ****** ****** ****** ****** ****** ****** ****** ****** ****** ******
      ****** ****** ****** ****** ****** ****** ****** ****** ****** ******
  10  ****** ****** ****** ****** ****** ****** ****** ****** ****** ******
      ****** ****** ****** ****** ****** ****** ****** ****** ****** ******
      ****** ****** ****** ****** ****** ****** ****** ****** ****** ******
  11  ****** ****** ****** ****** ****** ****** ****** ****** ****** ******
      ****** ****** ****** ****** ****** ****** ****** ****** ****** ******
      ****** ****** ****** ****** ****** ****** ****** ****** ****** ******
  12  ****** ****** ****** ****** ****** ****** ****** ****** ****** ******
      ****** ****** ****** ****** ****** ****** ****** ****** ****** ******
      ****** ****** ****** ****** ****** ****** ****** ****** ****** ******
  13  ****** ****** ****** ****** ****** ****** ****** ****** ****** ******
      ****** ****** ****** ****** ****** ****** ****** ****** ****** ******
      ****** ****** ****** ****** ****** ****** ****** ****** ****** ******
  14  ****** ****** ****** ****** ****** ****** ****** ****** ****** ******
      ****** ****** ****** ****** ****** ****** ****** ****** ****** ******
      ****** ****** ****** ****** ****** ****** ****** ****** ****** ******
  15  ****** ****** ****** ****** ****** ****** ****** ****** ****** ******
      ****** ****** ****** ****** ****** ****** ****** ****** ****** ******
      ****** ****** ****** ****** ****** ****** ****** ****** ****** ******
  16  ****** ****** ****** ****** ****** ****** ****** ****** ****** ******
      ****** ****** ****** ****** ****** ****** ****** ****** ****** ******
      ****** ****** ****** ****** ****** ****** ****** ****** ****** ******
  17  ****** ****** ****** ****** ****** ****** ****** ****** ****** ******
      ****** ****** ****** ****** ****** ****** ****** ****** ****** ******
      ****** ****** ****** ****** ****** ****** ****** ****** ****** ******
  18  ****** ****** ****** ****** ****** ****** ****** ****** ****** ******
      ****** ****** ****** ****** ****** ****** ****** ****** ****** ******
      ****** ****** ****** ****** ****** ****** ****** ****** ****** ******
  19  ****** ****** ****** ****** ****** ****** ****** ****** ****** ******
      ****** ****** ****** ****** ****** ****** ****** ****** ****** ******
      ****** ****** ****** ****** ****** ****** ****** ****** ****** ******
  20  ****** ****** ****** ****** ****** ****** ****** ****** ****** ******
      ****** ****** ****** ****** ****** ****** ****** ****** ****** ******
      ****** ****** ****** ****** ****** ****** ****** ****** ****** ******
  21  ****** ****** ****** ****** ****** ****** ****** ****** ****** ******
      ****** ****** ****** ****** ****** ****** ****** ****** ****** ******
      ****** ****** ****** ****** ****** ****** ****** ****** ****** ******
  22  ****** ****** ****** ****** ****** ****** ****** ****** ****** ******
      ****** ****** ****** ****** ****** ****** ****** ****** ****** ******
      ****** ****** ****** ****** ****** ****** ****** ****** ****** ******
  23  ****** ****** ****** ****** ****** ****** ****** ****** ****** ******
      ****** ****** ****** ****** ****** ****** ****** ****** ****** ******
      ****** ****** ****** ****** ****** ****** ****** ****** ****** ******
  24  ****** ****** ****** ****** ****** ****** ****** ****** ****** ******
      ****** ****** ****** ****** ****** ****** ****** ****** ****** ******
      ****** ****** ****** ****** ****** ****** ****** ****** ****** ******
  25  ****** ****** ****** ****** ****** ****** ****** ****** ****** ******
      ****** ****** ****** ****** ****** ****** ****** ****** ****** ******
      ****** ****** ****** ****** ****** ****** ****** ****** ****** ******

 HEAD WILL BE SAVED ON UNIT   51 AT END OF TIME STEP    1, STRESS PERIOD   10
1
  VOLUMETRIC BUDGET FOR ENTIRE MODEL AT END OF TIME STEP    1, STRESS PERIOD  10
  ------------------------------------------------------------------------------

     CUMULATIVE VOLUMES      L**3       RATES FOR THIS TIME STEP      L**3/T
     ------------------                 ------------------------

           IN:                                      IN:
           ---                                      ---
             STORAGE =    33382646.5024               STORAGE =           0.0000
       CONSTANT HEAD =    24879883.0980         CONSTANT HEAD =       30803.4531
               WELLS =           0.0000                 WELLS =           0.0000
            RECHARGE =    23901600.0000              RECHARGE =       55200.0000
      STREAM LEAKAGE =    11158965.8073        STREAM LEAKAGE =       13519.4343

            TOTAL IN =    93323095.4077              TOTAL IN =       99522.8873

          OUT:                                     OUT:
          ----                                     ----
             STORAGE =     2370922.0474               STORAGE =       15675.3914
       CONSTANT HEAD =           0.0000         CONSTANT HEAD =           0.0000
               WELLS =    25243493.7907                 WELLS =       27648.9527
            RECHARGE =           0.0000              RECHARGE =           0.0000
      STREAM LEAKAGE =    65708681.0243        STREAM LEAKAGE =       56198.5396

           TOTAL OUT =    93323096.8624             TOTAL OUT =       99522.8837

            IN - OUT =          -1.4547              IN - OUT =       3.6959E-03

 PERCENT DISCREPANCY =          -0.00     PERCENT DISCREPANCY =           0.00






         TIME SUMMARY AT END OF TIME STEP    1 IN STRESS PERIOD   10
                    SECONDS     MINUTES      HOURS       DAYS        YEARS
                    -----------------------------------------------------------
   TIME STEP LENGTH 7.86240E+06 1.31040E+05  2184.0      91.000     0.24914    
 STRESS PERIOD TIME 7.86240E+06 1.31040E+05  2184.0      91.000     0.24914    
         TOTAL TIME 7.88832E+07 1.31472E+06  21912.      913.00      2.4997    
1
1
                            STRESS PERIOD NO.   11, LENGTH =   91.00000    
                            -----------------------------------------------

                              NUMBER OF TIME STEPS =     1

                               MULTIPLIER FOR DELT =     1.500

                            INITIAL TIME STEP SIZE =   91.00000    

 WELL NO.  LAYER   ROW   COL   STRESS RATE         
 --------------------------------------------------
      1      1     11     18      -9961.    
      2      1      5     20      -7658.    
      3      1     11     16      -434.0    
      4      1     11     19      -9596.    

      4 WELLS

                 RECHARGE =   0.00000    

 REUSING STREAM SEGMENT DATA FROM LAST STRESS PERIOD
 
 SOLVING FOR HEAD 


     7 CALLS TO PCG ROUTINE FOR TIME STEP   1 IN STRESS PERIOD   11
    26 TOTAL ITERATIONS

 OUTPUT CONTROL FOR STRESS PERIOD   11   TIME STEP    1
    SAVE BUDGET
    SAVE HEAD FOR ALL LAYERS
    PRINT HEAD FOR ALL LAYERS
 UBDSV2 SAVING "STREAMFLOW OUT  " ON UNIT  50 AT TIME STEP  1, STRESS PERIOD  11



 STREAM LISTING     PERIOD     11   STEP        1

 LAYER ROW COL. STREAM  RCH.  FLOW INTO     FLOW TO   FLOW OUT OF   OVRLND.     DIRECT     STREAM       STREAM     STREAM     STREAM   STREAMBED  STREAMBED
                SEG.NO.  NO.  STRM. RCH.    AQUIFER    STRM. RCH.    RUNOFF     PRECIP       ET          HEAD       DEPTH      WIDTH   CONDCTNC.   GRADIENT

   1   13    1     1     1    1.0000E+05 -1.4638E+03   1.0146E+05  0.000E+00  0.000E+00  0.000E+00  4.84066E+01  1.453E-01  2.000E+01  2.000E+04 -7.319E-02
   1   13    2     1     2    1.0146E+05 -2.3823E+03   1.0385E+05  0.000E+00  0.000E+00  0.000E+00  4.79310E+01  1.469E-01  2.000E+01  2.000E+04 -1.191E-01
   1   14    3     1     3    1.0385E+05 -3.5504E+02   1.0420E+05  0.000E+00  0.000E+00  0.000E+00  4.74549E+01  1.481E-01  2.000E+01  2.000E+04 -1.775E-02
   1   15    4     1     4    1.0420E+05 -3.3115E+02   1.0453E+05  0.000E+00  0.000E+00  0.000E+00  4.69780E+01  1.484E-01  2.000E+01  2.000E+04 -1.656E-02
   1   16    5     1     5    1.0453E+05 -1.4140E+03   1.0595E+05  0.000E+00  0.000E+00  0.000E+00  4.65014E+01  1.492E-01  2.000E+01  2.000E+04 -7.070E-02
   1   16    6     1     6    1.0595E+05 -8.9440E+02   1.0684E+05  0.000E+00  0.000E+00  0.000E+00  4.60251E+01  1.501E-01  2.000E+01  2.000E+04 -4.472E-02
   1   16    7     1     7    1.0684E+05 -8.8258E+02   1.0772E+05  0.000E+00  0.000E+00  0.000E+00  4.55486E+01  1.509E-01  2.000E+01  2.000E+04 -4.413E-02
   1   16    8     1     8    1.0772E+05 -8.8401E+02   1.0861E+05  0.000E+00  0.000E+00  0.000E+00  4.50721E+01  1.516E-01  2.000E+01  2.000E+04 -4.420E-02
   1   16    9     1     9    1.0861E+05 -8.8350E+02   1.0949E+05  0.000E+00  0.000E+00  0.000E+00  4.45956E+01  1.524E-01  2.000E+01  2.000E+04 -4.418E-02
   1   16   10     1    10    1.0949E+05 -8.8180E+02   1.1037E+05  0.000E+00  0.000E+00  0.000E+00  4.41190E+01  1.531E-01  2.000E+01  2.000E+04 -4.409E-02
   1   16   11     1    11    1.1037E+05 -8.9808E+02   1.1127E+05  0.000E+00  0.000E+00  0.000E+00  4.36425E+01  1.539E-01  2.000E+01  2.000E+04 -4.490E-02
   1   16   12     1    12    1.1127E+05 -1.5159E+03   1.1279E+05  0.000E+00  0.000E+00  0.000E+00  4.31662E+01  1.549E-01  2.000E+01  2.000E+04 -7.579E-02
   1   15   13     1    13    1.1279E+05 -1.2516E+03   1.1404E+05  0.000E+00  0.000E+00  0.000E+00  4.26901E+01  1.560E-01  2.000E+01  2.000E+04 -6.258E-02
   1   14   14     1    14    1.1404E+05 -1.3306E+03   1.1537E+05  0.000E+00  0.000E+00  0.000E+00  4.22139E+01  1.571E-01  2.000E+01  2.000E+04 -6.653E-02
   1   13   15     1    15    1.1537E+05 -1.3024E+03   1.1667E+05  0.000E+00  0.000E+00  0.000E+00  4.17377E+01  1.581E-01  2.000E+01  2.000E+04 -6.512E-02
   1   12   16     1    16    1.1667E+05 -6.5546E+02   1.1733E+05  0.000E+00  0.000E+00  0.000E+00  4.12612E+01  1.589E-01  2.000E+01  2.000E+04 -3.277E-02
   1   12   17     1    17    1.1733E+05  7.9176E+02   1.1653E+05  0.000E+00  0.000E+00  0.000E+00  4.07839E+01  1.589E-01  2.000E+01  2.000E+04  3.959E-02
   1   12   18     1    18    1.1653E+05  3.6651E+03   1.1287E+05  0.000E+00  0.000E+00  0.000E+00  4.03048E+01  1.571E-01  2.000E+01  2.000E+04  1.833E-01
   1   12   19     1    19    1.1287E+05  4.0475E+03   1.0882E+05  0.000E+00  0.000E+00  0.000E+00  3.98243E+01  1.539E-01  2.000E+01  2.000E+04  2.024E-01
   1   13   20     1    20    1.0882E+05 -2.4150E+02   1.0906E+05  0.000E+00  0.000E+00  0.000E+00  3.93455E+01  1.523E-01  2.000E+01  2.000E+04 -1.208E-02
   1   14   21     1    21    1.0906E+05 -1.1071E+03   1.1017E+05  0.000E+00  0.000E+00  0.000E+00  3.88688E+01  1.528E-01  2.000E+01  2.000E+04 -5.535E-02
   1   14   22     1    22    1.1017E+05  4.9420E+03   1.0523E+05  0.000E+00  0.000E+00  0.000E+00  3.83899E+01  1.512E-01  2.000E+01  2.000E+04  2.471E-01
   1    9   30     2     1    5.0000E+04 -2.4181E+02   5.0242E+04  0.000E+00  0.000E+00  0.000E+00  4.02410E+01  1.160E-01  2.000E+01  2.000E+04 -1.209E-02
   1    9   29     2     2    5.0242E+04 -5.1134E+02   5.0753E+04  0.000E+00  0.000E+00  0.000E+00  3.99916E+01  1.166E-01  2.000E+01  2.000E+04 -2.557E-02
   1    9   28     2     3    5.0753E+04 -6.8680E+02   5.1440E+04  0.000E+00  0.000E+00  0.000E+00  3.97424E+01  1.174E-01  2.000E+01  2.000E+04 -3.434E-02
   1    9   27     2     4    5.1440E+04 -1.3955E+03   5.2835E+04  0.000E+00  0.000E+00  0.000E+00  3.94938E+01  1.188E-01  2.000E+01  2.000E+04 -6.977E-02
   1   10   26     2     5    5.2835E+04 -6.3905E+02   5.3474E+04  0.000E+00  0.000E+00  0.000E+00  3.92452E+01  1.202E-01  2.000E+01  2.000E+04 -3.195E-02
   1   11   25     2     6    5.3474E+04 -3.9280E+02   5.3867E+04  0.000E+00  0.000E+00  0.000E+00  3.89959E+01  1.209E-01  2.000E+01  2.000E+04 -1.964E-02
   1   12   24     2     7    5.3867E+04 -3.5044E+02   5.4218E+04  0.000E+00  0.000E+00  0.000E+00  3.87464E+01  1.214E-01  2.000E+01  2.000E+04 -1.752E-02
   1   13   23     2     8    5.4218E+04 -1.4102E+01   5.4232E+04  0.000E+00  0.000E+00  0.000E+00  3.84966E+01  1.216E-01  2.000E+01  2.000E+04 -7.051E-04
   1   14   22     2     9    5.4232E+04  2.0500E+03   5.2182E+04  0.000E+00  0.000E+00  0.000E+00  3.82453E+01  1.203E-01  2.000E+01  2.000E+04  1.025E-01
   1   14   22     3     1    1.5741E+05 -8.5415E+03   1.6595E+05  0.000E+00  0.000E+00  0.000E+00  3.77157E+01  1.601E-01  2.000E+01  2.000E+04 -4.271E-01
   1   15   23     3     2    1.6595E+05 -4.7278E+02   1.6642E+05  0.000E+00  0.000E+00  0.000E+00  3.68295E+01  1.628E-01  2.000E+01  2.000E+04 -2.364E-02
   1   15   24     3     3    1.6642E+05 -2.1714E+02   1.6664E+05  0.000E+00  0.000E+00  0.000E+00  3.59408E+01  1.630E-01  2.000E+01  2.000E+04 -1.086E-02
   1   15   25     3     4    1.6664E+05 -2.0794E+02   1.6685E+05  0.000E+00  0.000E+00  0.000E+00  3.50520E+01  1.631E-01  2.000E+01  2.000E+04 -1.040E-02
   1   15   26     3     5    1.6685E+05 -2.5472E+02   1.6710E+05  0.000E+00  0.000E+00  0.000E+00  3.41633E+01  1.633E-01  2.000E+01  2.000E+04 -1.274E-02
   1   16   27     3     6    1.6710E+05 -2.7649E+02   1.6738E+05  0.000E+00  0.000E+00  0.000E+00  3.32745E+01  1.634E-01  2.000E+01  2.000E+04 -1.382E-02
   1   17   28     3     7    1.6738E+05 -1.3282E+03   1.6871E+05  0.000E+00  0.000E+00  0.000E+00  3.23861E+01  1.639E-01  2.000E+01  2.000E+04 -6.641E-02
   1   18   29     3     8    1.6871E+05 -2.6844E+03   1.7139E+05  0.000E+00  0.000E+00  0.000E+00  3.14984E+01  1.651E-01  2.000E+01  2.000E+04 -1.342E-01
   1   18   30     3     9    1.7139E+05 -3.0003E+03   1.7439E+05  0.000E+00  0.000E+00  0.000E+00  3.06112E+01  1.667E-01  2.000E+01  2.000E+04 -1.500E-01



1
              HEAD IN LAYER   1 AT END OF TIME STEP   1 IN STRESS PERIOD   11
  ---------------------------------------------------------------------------

          1      2      3      4      5      6      7      8      9     10
         11     12     13     14     15     16     17     18     19     20
         21     22     23     24     25     26     27     28     29     30
 .........................................................................
   1  ****** ****** ****** ****** ****** ****** ****** ****** ****** ******
      ****** ****** ****** ****** ****** ****** ****** ****** ****** ******
      ****** ****** ****** ****** ****** ****** ****** ****** ****** ******
   2  ****** ****** ****** ****** ****** ****** ****** ****** ****** ******
      ****** ****** ****** ****** ****** ****** ****** ****** ****** ******
      ****** ****** ****** ****** ****** ****** ****** ****** ****** ******
   3  ****** ****** ****** ****** ****** ****** ****** ****** ****** ******
      ****** ****** ****** ****** ****** ****** ****** ****** ****** ******
      ****** ****** ****** ****** ****** ****** ****** ****** ****** ******
   4  ****** ****** ****** ****** ****** ****** ****** ****** ****** ******
      ****** ****** ****** ****** ****** ****** ****** ****** ****** ******
      ****** ****** ****** ****** ****** ****** ****** ****** ****** ******
   5  ****** ****** ****** ****** ****** ****** ****** ****** ****** ******
      ****** ****** ****** ****** ****** ****** ****** ****** ****** ******
      ****** ****** ****** ****** ****** ****** ****** ****** ****** ******
   6  ****** ****** ****** ****** ****** ****** ****** ****** ****** ******
      ****** ****** ****** ****** ****** ****** ****** ****** ****** ******
      ****** ****** ****** ****** ****** ****** ****** ****** ****** ******
   7  ****** ****** ****** ****** ****** ****** ****** ****** ****** ******
      ****** ****** ****** ****** ****** ****** ****** ****** ****** ******
      ****** ****** ****** ****** ****** ****** ****** ****** ****** ******
   8  ****** ****** ****** ****** ****** ****** ****** ****** ****** ******
      ****** ****** ****** ****** ****** ****** ****** ****** ****** ******
      ****** ****** ****** ****** ****** ****** ****** ****** ****** ******
   9  ****** ****** ****** ****** ****** ****** ****** ****** ****** ******
      ****** ****** ****** ****** ****** ****** ****** ****** ****** ******
      ****** ****** ****** ****** ****** ****** ****** ****** ****** ******
  10  ****** ****** ****** ****** ****** ****** ****** ****** ****** ******
      ****** ****** ****** ****** ****** ****** ****** ****** ****** ******
      ****** ****** ****** ****** ****** ****** ****** ****** ****** ******
  11  ****** ****** ****** ****** ****** ****** ****** ****** ****** ******
      ****** ****** ****** ****** ****** ****** ****** ****** ****** ******
      ****** ****** ****** ****** ****** ****** ****** ****** ****** ******
  12  ****** ****** ****** ****** ****** ****** ****** ****** ****** ******
      ****** ****** ****** ****** ****** ****** ****** ****** ****** ******
      ****** ****** ****** ****** ****** ****** ****** ****** ****** ******
  13  ****** ****** ****** ****** ****** ****** ****** ****** ****** ******
      ****** ****** ****** ****** ****** ****** ****** ****** ****** ******
      ****** ****** ****** ****** ****** ****** ****** ****** ****** ******
  14  ****** ****** ****** ****** ****** ****** ****** ****** ****** ******
      ****** ****** ****** ****** ****** ****** ****** ****** ****** ******
      ****** ****** ****** ****** ****** ****** ****** ****** ****** ******
  15  ****** ****** ****** ****** ****** ****** ****** ****** ****** ******
      ****** ****** ****** ****** ****** ****** ****** ****** ****** ******
      ****** ****** ****** ****** ****** ****** ****** ****** ****** ******
  16  ****** ****** ****** ****** ****** ****** ****** ****** ****** ******
      ****** ****** ****** ****** ****** ****** ****** ****** ****** ******
      ****** ****** ****** ****** ****** ****** ****** ****** ****** ******
  17  ****** ****** ****** ****** ****** ****** ****** ****** ****** ******
      ****** ****** ****** ****** ****** ****** ****** ****** ****** ******
      ****** ****** ****** ****** ****** ****** ****** ****** ****** ******
  18  ****** ****** ****** ****** ****** ****** ****** ****** ****** ******
      ****** ****** ****** ****** ****** ****** ****** ****** ****** ******
      ****** ****** ****** ****** ****** ****** ****** ****** ****** ******
  19  ****** ****** ****** ****** ****** ****** ****** ****** ****** ******
      ****** ****** ****** ****** ****** ****** ****** ****** ****** ******
      ****** ****** ****** ****** ****** ****** ****** ****** ****** ******
  20  ****** ****** ****** ****** ****** ****** ****** ****** ****** ******
      ****** ****** ****** ****** ****** ****** ****** ****** ****** ******
      ****** ****** ****** ****** ****** ****** ****** ****** ****** ******
  21  ****** ****** ****** ****** ****** ****** ****** ****** ****** ******
      ****** ****** ****** ****** ****** ****** ****** ****** ****** ******
      ****** ****** ****** ****** ****** ****** ****** ****** ****** ******
  22  ****** ****** ****** ****** ****** ****** ****** ****** ****** ******
      ****** ****** ****** ****** ****** ****** ****** ****** ****** ******
      ****** ****** ****** ****** ****** ****** ****** ****** ****** ******
  23  ****** ****** ****** ****** ****** ****** ****** ****** ****** ******
      ****** ****** ****** ****** ****** ****** ****** ****** ****** ******
      ****** ****** ****** ****** ****** ****** ****** ****** ****** ******
  24  ****** ****** ****** ****** ****** ****** ****** ****** ****** ******
      ****** ****** ****** ****** ****** ****** ****** ****** ****** ******
      ****** ****** ****** ****** ****** ****** ****** ****** ****** ******
  25  ****** ****** ****** ****** ****** ****** ****** ****** ****** ******
      ****** ****** ****** ****** ****** ****** ****** ****** ****** ******
      ****** ****** ****** ****** ****** ****** ****** ****** ****** ******

 HEAD WILL BE SAVED ON UNIT   51 AT END OF TIME STEP    1, STRESS PERIOD   11
1
  VOLUMETRIC BUDGET FOR ENTIRE MODEL AT END OF TIME STEP    1, STRESS PERIOD  11
  ------------------------------------------------------------------------------

     CUMULATIVE VOLUMES      L**3       RATES FOR THIS TIME STEP      L**3/T
     ------------------                 ------------------------

           IN:                                      IN:
           ---                                      ---
             STORAGE =    35016366.0374               STORAGE =       17952.9619
       CONSTANT HEAD =    27982078.6883         CONSTANT HEAD =       34090.0614
               WELLS =           0.0000                 WELLS =           0.0000
            RECHARGE =    23901600.0000              RECHARGE =           0.0000
      STREAM LEAKAGE =    12569133.7052        STREAM LEAKAGE =       15496.3505

            TOTAL IN =    99469178.4308              TOTAL IN =       67539.3739

          OUT:                                     OUT:
          ----                                     ----
             STORAGE =     2370922.0474               STORAGE =           0.0000
       CONSTANT HEAD =           0.0000         CONSTANT HEAD =           0.0000
               WELLS =    27759548.4840                 WELLS =       27648.9527
            RECHARGE =           0.0000              RECHARGE =           0.0000
      STREAM LEAKAGE =    69338709.7932        STREAM LEAKAGE =       39890.4260

           TOTAL OUT =    99469180.3246             TOTAL OUT =       67539.3787

            IN - OUT =          -1.8937              IN - OUT =      -4.8248E-03

 PERCENT DISCREPANCY =          -0.00     PERCENT DISCREPANCY =          -0.00






         TIME SUMMARY AT END OF TIME STEP    1 IN STRESS PERIOD   11
                    SECONDS     MINUTES      HOURS       DAYS        YEARS
                    -----------------------------------------------------------
   TIME STEP LENGTH 7.86240E+06 1.31040E+05  2184.0      91.000     0.24914    
 STRESS PERIOD TIME 7.86240E+06 1.31040E+05  2184.0      91.000     0.24914    
         TOTAL TIME 8.67456E+07 1.44576E+06  24096.      1004.0      2.7488    
1
1
                            STRESS PERIOD NO.   12, LENGTH =   91.00000    
                            -----------------------------------------------

                              NUMBER OF TIME STEPS =     1

                               MULTIPLIER FOR DELT =     1.500

                            INITIAL TIME STEP SIZE =   91.00000    

 WELL NO.  LAYER   ROW   COL   STRESS RATE         
 --------------------------------------------------
      1      1     11     18      -9961.    
      2      1      5     20      -7658.    
      3      1     11     16      -434.0    
      4      1     11     19      -9596.    

      4 WELLS

                 RECHARGE =  1.000000E-03

 REUSING STREAM SEGMENT DATA FROM LAST STRESS PERIOD
 
 SOLVING FOR HEAD 


     7 CALLS TO PCG ROUTINE FOR TIME STEP   1 IN STRESS PERIOD   12
    24 TOTAL ITERATIONS

 OUTPUT CONTROL FOR STRESS PERIOD   12   TIME STEP    1
    SAVE BUDGET
    SAVE HEAD FOR ALL LAYERS
    PRINT HEAD FOR ALL LAYERS
 UBDSV2 SAVING "STREAMFLOW OUT  " ON UNIT  50 AT TIME STEP  1, STRESS PERIOD  12



 STREAM LISTING     PERIOD     12   STEP        1

 LAYER ROW COL. STREAM  RCH.  FLOW INTO     FLOW TO   FLOW OUT OF   OVRLND.     DIRECT     STREAM       STREAM     STREAM     STREAM   STREAMBED  STREAMBED
                SEG.NO.  NO.  STRM. RCH.    AQUIFER    STRM. RCH.    RUNOFF     PRECIP       ET          HEAD       DEPTH      WIDTH   CONDCTNC.   GRADIENT

   1   13    1     1     1    1.0000E+05 -1.6074E+03   1.0161E+05  0.000E+00  0.000E+00  0.000E+00  4.84067E+01  1.453E-01  2.000E+01  2.000E+04 -8.037E-02
   1   13    2     1     2    1.0161E+05 -2.5366E+03   1.0414E+05  0.000E+00  0.000E+00  0.000E+00  4.79312E+01  1.471E-01  2.000E+01  2.000E+04 -1.268E-01
   1   14    3     1     3    1.0414E+05 -4.3349E+02   1.0458E+05  0.000E+00  0.000E+00  0.000E+00  4.74552E+01  1.484E-01  2.000E+01  2.000E+04 -2.167E-02
   1   15    4     1     4    1.0458E+05 -4.1344E+02   1.0499E+05  0.000E+00  0.000E+00  0.000E+00  4.69783E+01  1.488E-01  2.000E+01  2.000E+04 -2.067E-02
   1   16    5     1     5    1.0499E+05 -1.6239E+03   1.0661E+05  0.000E+00  0.000E+00  0.000E+00  4.65019E+01  1.496E-01  2.000E+01  2.000E+04 -8.120E-02
   1   16    6     1     6    1.0661E+05 -1.0249E+03   1.0764E+05  0.000E+00  0.000E+00  0.000E+00  4.60258E+01  1.508E-01  2.000E+01  2.000E+04 -5.124E-02
   1   16    7     1     7    1.0764E+05 -1.0080E+03   1.0865E+05  0.000E+00  0.000E+00  0.000E+00  4.55493E+01  1.516E-01  2.000E+01  2.000E+04 -5.040E-02
   1   16    8     1     8    1.0865E+05 -1.0083E+03   1.0966E+05  0.000E+00  0.000E+00  0.000E+00  4.50729E+01  1.525E-01  2.000E+01  2.000E+04 -5.042E-02
   1   16    9     1     9    1.0966E+05 -1.0083E+03   1.1066E+05  0.000E+00  0.000E+00  0.000E+00  4.45965E+01  1.533E-01  2.000E+01  2.000E+04 -5.041E-02
   1   16   10     1    10    1.1066E+05 -1.0079E+03   1.1167E+05  0.000E+00  0.000E+00  0.000E+00  4.41200E+01  1.541E-01  2.000E+01  2.000E+04 -5.040E-02
   1   16   11     1    11    1.1167E+05 -1.0265E+03   1.1270E+05  0.000E+00  0.000E+00  0.000E+00  4.36436E+01  1.550E-01  2.000E+01  2.000E+04 -5.132E-02
   1   16   12     1    12    1.1270E+05 -1.7177E+03   1.1442E+05  0.000E+00  0.000E+00  0.000E+00  4.31675E+01  1.561E-01  2.000E+01  2.000E+04 -8.588E-02
   1   15   13     1    13    1.1442E+05 -1.4685E+03   1.1588E+05  0.000E+00  0.000E+00  0.000E+00  4.26915E+01  1.574E-01  2.000E+01  2.000E+04 -7.342E-02
   1   14   14     1    14    1.1588E+05 -1.5479E+03   1.1743E+05  0.000E+00  0.000E+00  0.000E+00  4.22155E+01  1.587E-01  2.000E+01  2.000E+04 -7.740E-02
   1   13   15     1    15    1.1743E+05 -1.5124E+03   1.1895E+05  0.000E+00  0.000E+00  0.000E+00  4.17395E+01  1.599E-01  2.000E+01  2.000E+04 -7.562E-02
   1   12   16     1    16    1.1895E+05 -8.3876E+02   1.1978E+05  0.000E+00  0.000E+00  0.000E+00  4.12631E+01  1.609E-01  2.000E+01  2.000E+04 -4.194E-02
   1   12   17     1    17    1.1978E+05  6.3832E+02   1.1915E+05  0.000E+00  0.000E+00  0.000E+00  4.07859E+01  1.609E-01  2.000E+01  2.000E+04  3.192E-02
   1   12   18     1    18    1.1915E+05  3.5094E+03   1.1564E+05  0.000E+00  0.000E+00  0.000E+00  4.03070E+01  1.593E-01  2.000E+01  2.000E+04  1.755E-01
   1   12   19     1    19    1.1564E+05  3.8552E+03   1.1178E+05  0.000E+00  0.000E+00  0.000E+00  3.98267E+01  1.562E-01  2.000E+01  2.000E+04  1.928E-01
   1   13   20     1    20    1.1178E+05 -4.5193E+02   1.1223E+05  0.000E+00  0.000E+00  0.000E+00  3.93480E+01  1.548E-01  2.000E+01  2.000E+04 -2.260E-02
   1   14   21     1    21    1.1223E+05 -1.3014E+03   1.1353E+05  0.000E+00  0.000E+00  0.000E+00  3.88715E+01  1.556E-01  2.000E+01  2.000E+04 -6.507E-02
   1   14   22     1    22    1.1353E+05  4.8896E+03   1.0864E+05  0.000E+00  0.000E+00  0.000E+00  3.83927E+01  1.541E-01  2.000E+01  2.000E+04  2.445E-01
   1    9   30     2     1    5.0000E+04 -4.1817E+02   5.0418E+04  0.000E+00  0.000E+00  0.000E+00  4.02412E+01  1.162E-01  2.000E+01  2.000E+04 -2.091E-02
   1    9   29     2     2    5.0418E+04 -6.8565E+02   5.1104E+04  0.000E+00  0.000E+00  0.000E+00  3.99919E+01  1.169E-01  2.000E+01  2.000E+04 -3.428E-02
   1    9   28     2     3    5.1104E+04 -8.5758E+02   5.1961E+04  0.000E+00  0.000E+00  0.000E+00  3.97430E+01  1.180E-01  2.000E+01  2.000E+04 -4.288E-02
   1    9   27     2     4    5.1961E+04 -1.6045E+03   5.3566E+04  0.000E+00  0.000E+00  0.000E+00  3.94947E+01  1.197E-01  2.000E+01  2.000E+04 -8.022E-02
   1   10   26     2     5    5.3566E+04 -8.6877E+02   5.4435E+04  0.000E+00  0.000E+00  0.000E+00  3.92463E+01  1.213E-01  2.000E+01  2.000E+04 -4.344E-02
   1   11   25     2     6    5.4435E+04 -6.1863E+02   5.5053E+04  0.000E+00  0.000E+00  0.000E+00  3.89973E+01  1.223E-01  2.000E+01  2.000E+04 -3.093E-02
   1   12   24     2     7    5.5053E+04 -5.5656E+02   5.5610E+04  0.000E+00  0.000E+00  0.000E+00  3.87481E+01  1.231E-01  2.000E+01  2.000E+04 -2.783E-02
   1   13   23     2     8    5.5610E+04 -9.1729E+01   5.5702E+04  0.000E+00  0.000E+00  0.000E+00  3.84986E+01  1.236E-01  2.000E+01  2.000E+04 -4.586E-03
   1   14   22     2     9    5.5702E+04  1.9814E+03   5.3720E+04  0.000E+00  0.000E+00  0.000E+00  3.82473E+01  1.223E-01  2.000E+01  2.000E+04  9.907E-02
   1   14   22     3     1    1.6236E+05 -8.5919E+03   1.7096E+05  0.000E+00  0.000E+00  0.000E+00  3.77186E+01  1.631E-01  2.000E+01  2.000E+04 -4.296E-01
   1   15   23     3     2    1.7096E+05 -5.4489E+02   1.7150E+05  0.000E+00  0.000E+00  0.000E+00  3.68324E+01  1.657E-01  2.000E+01  2.000E+04 -2.724E-02
   1   15   24     3     3    1.7150E+05 -2.8227E+02   1.7178E+05  0.000E+00  0.000E+00  0.000E+00  3.59438E+01  1.660E-01  2.000E+01  2.000E+04 -1.411E-02
   1   15   25     3     4    1.7178E+05 -2.7434E+02   1.7206E+05  0.000E+00  0.000E+00  0.000E+00  3.50550E+01  1.661E-01  2.000E+01  2.000E+04 -1.372E-02
   1   15   26     3     5    1.7206E+05 -3.3223E+02   1.7239E+05  0.000E+00  0.000E+00  0.000E+00  3.41663E+01  1.663E-01  2.000E+01  2.000E+04 -1.661E-02
   1   16   27     3     6    1.7239E+05 -3.6332E+02   1.7275E+05  0.000E+00  0.000E+00  0.000E+00  3.32776E+01  1.665E-01  2.000E+01  2.000E+04 -1.817E-02
   1   17   28     3     7    1.7275E+05 -1.5491E+03   1.7430E+05  0.000E+00  0.000E+00  0.000E+00  3.23893E+01  1.671E-01  2.000E+01  2.000E+04 -7.745E-02
   1   18   29     3     8    1.7430E+05 -2.8855E+03   1.7719E+05  0.000E+00  0.000E+00  0.000E+00  3.15017E+01  1.684E-01  2.000E+01  2.000E+04 -1.443E-01
   1   18   30     3     9    1.7719E+05 -3.1687E+03   1.8036E+05  0.000E+00  0.000E+00  0.000E+00  3.06145E+01  1.701E-01  2.000E+01  2.000E+04 -1.584E-01



1
              HEAD IN LAYER   1 AT END OF TIME STEP   1 IN STRESS PERIOD   12
  ---------------------------------------------------------------------------

          1      2      3      4      5      6      7      8      9     10
         11     12     13     14     15     16     17     18     19     20
         21     22     23     24     25     26     27     28     29     30
 .........................................................................
   1  ****** ****** ****** ****** ****** ****** ****** ****** ****** ******
      ****** ****** ****** ****** ****** ****** ****** ****** ****** ******
      ****** ****** ****** ****** ****** ****** ****** ****** ****** ******
   2  ****** ****** ****** ****** ****** ****** ****** ****** ****** ******
      ****** ****** ****** ****** ****** ****** ****** ****** ****** ******
      ****** ****** ****** ****** ****** ****** ****** ****** ****** ******
   3  ****** ****** ****** ****** ****** ****** ****** ****** ****** ******
      ****** ****** ****** ****** ****** ****** ****** ****** ****** ******
      ****** ****** ****** ****** ****** ****** ****** ****** ****** ******
   4  ****** ****** ****** ****** ****** ****** ****** ****** ****** ******
      ****** ****** ****** ****** ****** ****** ****** ****** ****** ******
      ****** ****** ****** ****** ****** ****** ****** ****** ****** ******
   5  ****** ****** ****** ****** ****** ****** ****** ****** ****** ******
      ****** ****** ****** ****** ****** ****** ****** ****** ****** ******
      ****** ****** ****** ****** ****** ****** ****** ****** ****** ******
   6  ****** ****** ****** ****** ****** ****** ****** ****** ****** ******
      ****** ****** ****** ****** ****** ****** ****** ****** ****** ******
      ****** ****** ****** ****** ****** ****** ****** ****** ****** ******
   7  ****** ****** ****** ****** ****** ****** ****** ****** ****** ******
      ****** ****** ****** ****** ****** ****** ****** ****** ****** ******
      ****** ****** ****** ****** ****** ****** ****** ****** ****** ******
   8  ****** ****** ****** ****** ****** ****** ****** ****** ****** ******
      ****** ****** ****** ****** ****** ****** ****** ****** ****** ******
      ****** ****** ****** ****** ****** ****** ****** ****** ****** ******
   9  ****** ****** ****** ****** ****** ****** ****** ****** ****** ******
      ****** ****** ****** ****** ****** ****** ****** ****** ****** ******
      ****** ****** ****** ****** ****** ****** ****** ****** ****** ******
  10  ****** ****** ****** ****** ****** ****** ****** ****** ****** ******
      ****** ****** ****** ****** ****** ****** ****** ****** ****** ******
      ****** ****** ****** ****** ****** ****** ****** ****** ****** ******
  11  ****** ****** ****** ****** ****** ****** ****** ****** ****** ******
      ****** ****** ****** ****** ****** ****** ****** ****** ****** ******
      ****** ****** ****** ****** ****** ****** ****** ****** ****** ******
  12  ****** ****** ****** ****** ****** ****** ****** ****** ****** ******
      ****** ****** ****** ****** ****** ****** ****** ****** ****** ******
      ****** ****** ****** ****** ****** ****** ****** ****** ****** ******
  13  ****** ****** ****** ****** ****** ****** ****** ****** ****** ******
      ****** ****** ****** ****** ****** ****** ****** ****** ****** ******
      ****** ****** ****** ****** ****** ****** ****** ****** ****** ******
  14  ****** ****** ****** ****** ****** ****** ****** ****** ****** ******
      ****** ****** ****** ****** ****** ****** ****** ****** ****** ******
      ****** ****** ****** ****** ****** ****** ****** ****** ****** ******
  15  ****** ****** ****** ****** ****** ****** ****** ****** ****** ******
      ****** ****** ****** ****** ****** ****** ****** ****** ****** ******
      ****** ****** ****** ****** ****** ****** ****** ****** ****** ******
  16  ****** ****** ****** ****** ****** ****** ****** ****** ****** ******
      ****** ****** ****** ****** ****** ****** ****** ****** ****** ******
      ****** ****** ****** ****** ****** ****** ****** ****** ****** ******
  17  ****** ****** ****** ****** ****** ****** ****** ****** ****** ******
      ****** ****** ****** ****** ****** ****** ****** ****** ****** ******
      ****** ****** ****** ****** ****** ****** ****** ****** ****** ******
  18  ****** ****** ****** ****** ****** ****** ****** ****** ****** ******
      ****** ****** ****** ****** ****** ****** ****** ****** ****** ******
      ****** ****** ****** ****** ****** ****** ****** ****** ****** ******
  19  ****** ****** ****** ****** ****** ****** ****** ****** ****** ******
      ****** ****** ****** ****** ****** ****** ****** ****** ****** ******
      ****** ****** ****** ****** ****** ****** ****** ****** ****** ******
  20  ****** ****** ****** ****** ****** ****** ****** ****** ****** ******
      ****** ****** ****** ****** ****** ****** ****** ****** ****** ******
      ****** ****** ****** ****** ****** ****** ****** ****** ****** ******
  21  ****** ****** ****** ****** ****** ****** ****** ****** ****** ******
      ****** ****** ****** ****** ****** ****** ****** ****** ****** ******
      ****** ****** ****** ****** ****** ****** ****** ****** ****** ******
  22  ****** ****** ****** ****** ****** ****** ****** ****** ****** ******
      ****** ****** ****** ****** ****** ****** ****** ****** ****** ******
      ****** ****** ****** ****** ****** ****** ****** ****** ****** ******
  23  ****** ****** ****** ****** ****** ****** ****** ****** ****** ******
      ****** ****** ****** ****** ****** ****** ****** ****** ****** ******
      ****** ****** ****** ****** ****** ****** ****** ****** ****** ******
  24  ****** ****** ****** ****** ****** ****** ****** ****** ****** ******
      ****** ****** ****** ****** ****** ****** ****** ****** ****** ******
      ****** ****** ****** ****** ****** ****** ****** ****** ****** ******
  25  ****** ****** ****** ****** ****** ****** ****** ****** ****** ******
      ****** ****** ****** ****** ****** ****** ****** ****** ****** ******
      ****** ****** ****** ****** ****** ****** ****** ****** ****** ******

 HEAD WILL BE SAVED ON UNIT   51 AT END OF TIME STEP    1, STRESS PERIOD   12
1
  VOLUMETRIC BUDGET FOR ENTIRE MODEL AT END OF TIME STEP    1, STRESS PERIOD  12
  ------------------------------------------------------------------------------

     CUMULATIVE VOLUMES      L**3       RATES FOR THIS TIME STEP      L**3/T
     ------------------                 ------------------------

           IN:                                      IN:
           ---                                      ---
             STORAGE =    35017524.3558               STORAGE =          12.7288
       CONSTANT HEAD =    31021005.7898         CONSTANT HEAD =       33394.8033
               WELLS =           0.0000                 WELLS =           0.0000
            RECHARGE =    26413200.0000              RECHARGE =       27600.0000
      STREAM LEAKAGE =    13922664.8169        STREAM LEAKAGE =       14873.9683

            TOTAL IN =   106374394.9626              TOTAL IN =       75881.5003

          OUT:                                     OUT:
          ----                                     ----
             STORAGE =     2644066.5778               STORAGE =        3001.5882
       CONSTANT HEAD =           0.0000         CONSTANT HEAD =           0.0000
               WELLS =    30275603.1773                 WELLS =       27648.9527
            RECHARGE =           0.0000              RECHARGE =           0.0000
      STREAM LEAKAGE =    73454727.0138        STREAM LEAKAGE =       45230.9585

           TOTAL OUT =   106374396.7688             TOTAL OUT =       75881.4994

            IN - OUT =          -1.8063              IN - OUT =       9.6114E-04

 PERCENT DISCREPANCY =          -0.00     PERCENT DISCREPANCY =           0.00






         TIME SUMMARY AT END OF TIME STEP    1 IN STRESS PERIOD   12
                    SECONDS     MINUTES      HOURS       DAYS        YEARS
                    -----------------------------------------------------------
   TIME STEP LENGTH 7.86240E+06 1.31040E+05  2184.0      91.000     0.24914    
 STRESS PERIOD TIME 7.86240E+06 1.31040E+05  2184.0      91.000     0.24914    
         TOTAL TIME 9.46080E+07 1.57680E+06  26280.      1095.0      2.9979    
1

 Run end date and time (yyyy/mm/dd hh:mm:ss): 2019/08/04 17:44:22
 Elapsed run time:  0.035 Seconds

