                                  MODFLOW-2005     
      U.S. GEOLOGICAL SURVEY MODULAR FINITE-DIFFERENCE GROUND-WATER FLOW MODEL
                            VERSION 1.11.00 8/8/2013

 LIST FILE: supply2.lst
                         UNIT   10

 OPENING ..\data\supply.dis
 FILE TYPE:DIS   UNIT   11   STATUS:OLD    
 FORMAT:FORMATTED              ACCESS:SEQUENTIAL          

 OPENING ..\data\supply.ba6
 FILE TYPE:BAS6   UNIT   12   STATUS:OLD    
 FORMAT:FORMATTED              ACCESS:SEQUENTIAL          

 OPENING ..\data\supply_het.bc6
 FILE TYPE:BCF6   UNIT   13   STATUS:OLD    
 FORMAT:FORMATTED              ACCESS:SEQUENTIAL          

 OPENING ..\data\supply.rch
 FILE TYPE:RCH   UNIT   15   STATUS:OLD    
 FORMAT:FORMATTED              ACCESS:SEQUENTIAL          

 OPENING ..\data\supply2.sfr
 FILE TYPE:SFR   UNIT   16   STATUS:OLD    
 FORMAT:FORMATTED              ACCESS:SEQUENTIAL          

 OPENING ..\data\supply.oc
 FILE TYPE:OC   UNIT   17   STATUS:OLD    
 FORMAT:FORMATTED              ACCESS:SEQUENTIAL          

 OPENING ..\data\supply.pcg
 FILE TYPE:PCG   UNIT   18   STATUS:OLD    
 FORMAT:FORMATTED              ACCESS:SEQUENTIAL          

 OPENING supply2.wel
 FILE TYPE:WEL   UNIT   19   STATUS:OLD    
 FORMAT:FORMATTED              ACCESS:SEQUENTIAL          

 OPENING supply2sf.cbc
 FILE TYPE:DATA(BINARY)   UNIT   50   STATUS:UNKNOWN
 FORMAT:BINARY                 ACCESS:SEQUENTIAL          

 OPENING supply2hd.bhd
 FILE TYPE:DATA(BINARY)   UNIT   51   STATUS:UNKNOWN
 FORMAT:BINARY                 ACCESS:SEQUENTIAL          

 BAS -- BASIC PACKAGE, VERSION 7, 5/2/2005 INPUT READ FROM UNIT   12
 
 MODFLOW was compiled using uniform precision
 Precision of REAL and DOUBLE PRECISION variables:          15

 DISCRETIZATION INPUT DATA READ FROM UNIT   11
    1 LAYERS        25 ROWS        30 COLUMNS
   12 STRESS PERIOD(S) IN SIMULATION
 MODEL TIME UNIT IS DAYS
 MODEL LENGTH UNIT IS UNDEFINED
  Confining bed flag for each layer:
   0

                     DELR =   200.000    

                     DELC =   200.000    

 TOP ELEVATION OF LAYER 1 =  100.0000    

   MODEL LAYER BOTTOM EL. =   0.00000     FOR LAYER   1


 STRESS PERIOD     LENGTH       TIME STEPS     MULTIPLIER FOR DELT    SS FLAG
 ----------------------------------------------------------------------------
        1         92.00000          1                    1.500         TR
        2         91.00000          1                    1.500         TR
        3         91.00000          1                    1.500         TR
        4         91.00000          1                    1.500         TR
        5         92.00000          1                    1.500         TR
        6         91.00000          1                    1.500         TR
        7         91.00000          1                    1.500         TR
        8         91.00000          1                    1.500         TR
        9         92.00000          1                    1.500         TR
       10         91.00000          1                    1.500         TR
       11         91.00000          1                    1.500         TR
       12         91.00000          1                    1.500         TR

 TRANSIENT SIMULATION



 
 #MODOFC transient water supply sample problem                                   
 #                                                                               
 THE FREE FORMAT OPTION HAS BEEN SELECTED



                     BOUNDARY ARRAY FOR LAYER   1
 READING ON UNIT   12 WITH FORMAT: (20I4)              

 AQUIFER HEAD WILL BE SET TO   0.0000     AT ALL NO-FLOW NODES (IBOUND=0).



                       INITIAL HEAD FOR LAYER   1
 READING ON UNIT   12 WITH FORMAT: (10F13.0)           

 OUTPUT CONTROL IS SPECIFIED ONLY AT TIME STEPS FOR WHICH OUTPUT IS DESIRED
 COMPACT CELL-BY-CELL BUDGET FILES WILL BE WRITTEN
 HEAD PRINT FORMAT CODE IS  18    DRAWDOWN PRINT FORMAT CODE IS   0
 HEADS WILL BE SAVED ON UNIT   51    DRAWDOWNS WILL BE SAVED ON UNIT    0

 BCF -- BLOCK-CENTERED FLOW PACKAGE, VERSION 7, 5/2/2005
         INPUT READ FROM UNIT 13
 TRANSIENT SIMULATION
 HEAD AT CELLS THAT CONVERT TO DRY=   0.0000    
 WETTING CAPABILITY IS NOT ACTIVE
      LAYER  LAYER-TYPE CODE     INTERBLOCK T
      --------------------------------------------
         1            0          0 -- HARMONIC    

 COLUMN TO ROW ANISOTROPY =  1.000000    

     PRIMARY STORAGE COEF =  5.000000E-02 FOR LAYER   1



               TRANSMIS. ALONG ROWS FOR LAYER   1
 READING ON UNIT   13 WITH FORMAT: (FREE)              

 WEL -- WELL PACKAGE, VERSION 7, 5/2/2005 INPUT READ FROM UNIT   19
 # Well package input file written by MMProc
 No named parameters
 MAXIMUM OF      4 ACTIVE WELLS AT ONE TIME


     0 Well parameters

 RCH -- RECHARGE PACKAGE, VERSION 7, 5/2/2005 INPUT READ FROM UNIT   15
 No named parameters
 OPTION 1 -- RECHARGE TO TOP LAYER


     0 Recharge parameters

 SFR7 -- STREAMFLOW ROUTING PACKAGE, VERSION 1.0.7, 2013-01-15
         INPUT READ FROM UNIT  16
 #  Supply2 test problem for GWM-VI
 #  The eighth entry in the first data line is ISTCB2 -
 #    Setting this to a negative number indicates that
 #    streamflows out of the reach will be saved to a
 #    binary file.  The absolute value of ISTCB2 is the
 #    unit to which unformatted flows will be written.
 #
 No named parameters
 Segment information will not be 
 read by reach
 No named parameters
 No specifed inflow files


 NUMBER OF STREAM REACHES IS   40

 NUMBER OF STREAM SEGMENTS IS    3

 NUMBER OF STREAM PARAMETERS IS    0

 NUMBER OF STREAM SEGMENTS DEFINED USING PARAMETERS IS              0

 MAXIMUM ERROR FOR STREAM LEAKAGE RATES IS  1.00E-04

 CONSTANT FOR MANNINGS EQUATION IS  1.2839E+05





   STREAM NETWORK DESCRIPTION: 

   LAYER    ROW    COL   SEGMENT   REACH     LENGTH
                          NUMBER   NUMBER    IN CELL        
   --------------------------------------------------
      1     13      1       1        1    2.0000E+02
      1     13      2       1        2    2.0000E+02
      1     14      3       1        3    2.0000E+02
      1     15      4       1        4    2.0000E+02
      1     16      5       1        5    2.0000E+02
      1     16      6       1        6    2.0000E+02
      1     16      7       1        7    2.0000E+02
      1     16      8       1        8    2.0000E+02
      1     16      9       1        9    2.0000E+02
      1     16     10       1       10    2.0000E+02
      1     16     11       1       11    2.0000E+02
      1     16     12       1       12    2.0000E+02
      1     15     13       1       13    2.0000E+02
      1     14     14       1       14    2.0000E+02
      1     13     15       1       15    2.0000E+02
      1     12     16       1       16    2.0000E+02
      1     12     17       1       17    2.0000E+02
      1     12     18       1       18    2.0000E+02
      1     12     19       1       19    2.0000E+02
      1     13     20       1       20    2.0000E+02
      1     14     21       1       21    2.0000E+02
      1     14     22       1       22    2.0000E+02
      1      9     30       2        1    2.0000E+02
      1      9     29       2        2    2.0000E+02
      1      9     28       2        3    2.0000E+02
      1      9     27       2        4    2.0000E+02
      1     10     26       2        5    2.0000E+02
      1     11     25       2        6    2.0000E+02
      1     12     24       2        7    2.0000E+02
      1     13     23       2        8    2.0000E+02
      1     14     22       2        9    2.0000E+02
      1     14     22       3        1    2.0000E+02
      1     15     23       3        2    2.0000E+02
      1     15     24       3        3    2.0000E+02
      1     15     25       3        4    2.0000E+02
      1     15     26       3        5    2.0000E+02
      1     16     27       3        6    2.0000E+02
      1     17     28       3        7    2.0000E+02
      1     18     29       3        8    2.0000E+02
      1     18     30       3        9    2.0000E+02




 PCG -- CONJUGATE-GRADIENT SOLUTION PACKAGE, VERSION 7, 5/2/2005
 MAXIMUM OF    500 CALLS OF SOLUTION ROUTINE
 MAXIMUM OF      5 INTERNAL ITERATIONS PER CALL TO SOLUTION ROUTINE
 MATRIX PRECONDITIONING TYPE :    1



                                    SOLUTION BY THE CONJUGATE-GRADIENT METHOD
                                   -------------------------------------------
                    MAXIMUM NUMBER OF CALLS TO PCG ROUTINE =      500
                        MAXIMUM ITERATIONS PER CALL TO PCG =        5
                               MATRIX PRECONDITIONING TYPE =        1
        RELAXATION FACTOR (ONLY USED WITH PRECOND. TYPE 1) =    0.10000E+01
 PARAMETER OF POLYNOMIAL PRECOND. = 2 (2) OR IS CALCULATED :        0
                         HEAD CHANGE CRITERION FOR CLOSURE =    0.10000E-05
                     RESIDUAL CHANGE CRITERION FOR CLOSURE =    0.10000E+01
            PCG HEAD AND RESIDUAL CHANGE PRINTOUT INTERVAL =        1
     PRINTING FROM SOLVER IS LIMITED(1) OR SUPPRESSED (>1) =        1
                            STEADY-STATE DAMPING PARAMETER =    0.10000E+01
                               TRANSIENT DAMPING PARAMETER =    0.10000E+01
1
                            STRESS PERIOD NO.    1, LENGTH =   92.00000    
                            -----------------------------------------------

                              NUMBER OF TIME STEPS =     1

                               MULTIPLIER FOR DELT =     1.500

                            INITIAL TIME STEP SIZE =   92.00000    

 WELL NO.  LAYER   ROW   COL   STRESS RATE         
 --------------------------------------------------
      1      1     17     29     -0.1404E+05
      2      1     18     28     -0.1091E+05
      3      1     12     29      -8101.    
      4      1     19     29      -9959.    

      4 WELLS

                 RECHARGE =  5.000000E-04



 CLASSIFICATION & COUNT OF STREAM SEGMENTS BASED ON SOURCE OF INFLOW:

                HEADWATER     DIVERSION     RECEIVES TRIBUTARY FLOW
                ---------     ---------     -----------------------
                     2              0               1



                    INPUT DATA FOR EACH STREAM SEGMENT
 ---------------------------------------------------------------------------------------------

 SEGMENT    SEG.     INFLOW   OVERLAND   STREAM    STREAM   ICALC  OUTFLOW  DIVERSION PRIORITY
    NO.    LENGTH     RATE     RUNOFF      ET       PPT.    METH.  TO SEG.  FROM SEG.    NO.

      1  4.400E+03 1.000E+05 0.000E+00 0.000E+00 0.000E+00    1        3        0        0
      2  1.800E+03 5.000E+04 0.000E+00 0.000E+00 0.000E+00    1        3        0        0
      3  1.800E+03 0.000E+00 0.000E+00 0.000E+00 0.000E+00    1        0        0        0


         STREAMBED PROPERTIES AND STREAM DIMENSIONS

 SEGMENT     BED HYD. COND.      BED THICKNESS     ELEV.-TOP OF BED     WIDTH OF STREAM     DEPTH OF STREAM    STREAM ROUGHNESS
    No.     UPPER     LOWER     UPPER     LOWER     UPPER     LOWER     UPPER     LOWER     UPPER     LOWER   CHANNEL      BANK

     1  5.000E+00 5.000E+00 1.000E+00 1.000E+00 4.850E+01 3.800E+01 2.000E+01 2.000E+01                     5.000E-02
     2  5.000E+00 5.000E+00 1.000E+00 1.000E+00 4.025E+01 3.800E+01 2.000E+01 2.000E+01                     5.000E-02
     3  5.000E+00 5.000E+00 1.000E+00 1.000E+00 3.800E+01 3.000E+01 2.000E+01 2.000E+01                     5.000E-02



 
 SOLVING FOR HEAD 


     9 CALLS TO PCG ROUTINE FOR TIME STEP   1 IN STRESS PERIOD    1
    36 TOTAL ITERATIONS

 OUTPUT CONTROL FOR STRESS PERIOD    1   TIME STEP    1
    SAVE BUDGET
    SAVE HEAD FOR ALL LAYERS
    PRINT HEAD FOR ALL LAYERS
 UBDSV2 SAVING "STREAMFLOW OUT  " ON UNIT  50 AT TIME STEP  1, STRESS PERIOD   1



 STREAM LISTING     PERIOD      1   STEP        1

 LAYER ROW COL. STREAM  RCH.  FLOW INTO     FLOW TO   FLOW OUT OF   OVRLND.     DIRECT     STREAM       STREAM     STREAM     STREAM   STREAMBED  STREAMBED
                SEG.NO.  NO.  STRM. RCH.    AQUIFER    STRM. RCH.    RUNOFF     PRECIP       ET          HEAD       DEPTH      WIDTH   CONDCTNC.   GRADIENT

   1   13    1     1     1    1.0000E+05 -6.1249E+03   1.0612E+05  0.000E+00  0.000E+00  0.000E+00  4.84087E+01  1.473E-01  2.000E+01  2.000E+04 -3.062E-01
   1   13    2     1     2    1.0612E+05 -7.5946E+03   1.1372E+05  0.000E+00  0.000E+00  0.000E+00  4.79372E+01  1.531E-01  2.000E+01  2.000E+04 -3.797E-01
   1   14    3     1     3    1.1372E+05 -2.1992E+03   1.1592E+05  0.000E+00  0.000E+00  0.000E+00  4.74640E+01  1.572E-01  2.000E+01  2.000E+04 -1.100E-01
   1   15    4     1     4    1.1592E+05 -2.2706E+03   1.1819E+05  0.000E+00  0.000E+00  0.000E+00  4.69885E+01  1.590E-01  2.000E+01  2.000E+04 -1.135E-01
   1   16    5     1     5    1.1819E+05 -7.1866E+03   1.2538E+05  0.000E+00  0.000E+00  0.000E+00  4.65151E+01  1.628E-01  2.000E+01  2.000E+04 -3.593E-01
   1   16    6     1     6    1.2538E+05 -4.3049E+03   1.2968E+05  0.000E+00  0.000E+00  0.000E+00  4.60424E+01  1.674E-01  2.000E+01  2.000E+04 -2.152E-01
   1   16    7     1     7    1.2968E+05 -4.1401E+03   1.3382E+05  0.000E+00  0.000E+00  0.000E+00  4.55684E+01  1.707E-01  2.000E+01  2.000E+04 -2.070E-01
   1   16    8     1     8    1.3382E+05 -4.0998E+03   1.3792E+05  0.000E+00  0.000E+00  0.000E+00  4.50943E+01  1.739E-01  2.000E+01  2.000E+04 -2.050E-01
   1   16    9     1     9    1.3792E+05 -4.0899E+03   1.4201E+05  0.000E+00  0.000E+00  0.000E+00  4.46202E+01  1.770E-01  2.000E+01  2.000E+04 -2.045E-01
   1   16   10     1    10    1.4201E+05 -4.0883E+03   1.4610E+05  0.000E+00  0.000E+00  0.000E+00  4.41460E+01  1.801E-01  2.000E+01  2.000E+04 -2.044E-01
   1   16   11     1    11    1.4610E+05 -4.1255E+03   1.5022E+05  0.000E+00  0.000E+00  0.000E+00  4.36718E+01  1.831E-01  2.000E+01  2.000E+04 -2.063E-01
   1   16   12     1    12    1.5022E+05 -7.0171E+03   1.5724E+05  0.000E+00  0.000E+00  0.000E+00  4.31986E+01  1.872E-01  2.000E+01  2.000E+04 -3.509E-01
   1   15   13     1    13    1.5724E+05 -7.3460E+03   1.6459E+05  0.000E+00  0.000E+00  0.000E+00  4.27265E+01  1.924E-01  2.000E+01  2.000E+04 -3.673E-01
   1   14   14     1    14    1.6459E+05 -7.8546E+03   1.7244E+05  0.000E+00  0.000E+00  0.000E+00  4.22547E+01  1.978E-01  2.000E+01  2.000E+04 -3.927E-01
   1   13   15     1    15    1.7244E+05 -8.2139E+03   1.8066E+05  0.000E+00  0.000E+00  0.000E+00  4.17830E+01  2.034E-01  2.000E+01  2.000E+04 -4.107E-01
   1   12   16     1    16    1.8066E+05 -8.8970E+03   1.8955E+05  0.000E+00  0.000E+00  0.000E+00  4.13116E+01  2.093E-01  2.000E+01  2.000E+04 -4.448E-01
   1   12   17     1    17    1.8955E+05 -6.3313E+03   1.9588E+05  0.000E+00  0.000E+00  0.000E+00  4.08394E+01  2.144E-01  2.000E+01  2.000E+04 -3.166E-01
   1   12   18     1    18    1.9588E+05 -6.1776E+03   2.0206E+05  0.000E+00  0.000E+00  0.000E+00  4.03663E+01  2.186E-01  2.000E+01  2.000E+04 -3.089E-01
   1   12   19     1    19    2.0206E+05 -7.7799E+03   2.0984E+05  0.000E+00  0.000E+00  0.000E+00  3.98936E+01  2.231E-01  2.000E+01  2.000E+04 -3.890E-01
   1   13   20     1    20    2.0984E+05 -6.8677E+03   2.1671E+05  0.000E+00  0.000E+00  0.000E+00  3.94211E+01  2.279E-01  2.000E+01  2.000E+04 -3.434E-01
   1   14   21     1    21    2.1671E+05 -6.4192E+03   2.2313E+05  0.000E+00  0.000E+00  0.000E+00  3.89480E+01  2.321E-01  2.000E+01  2.000E+04 -3.210E-01
   1   14   22     1    22    2.2313E+05  3.6974E+03   2.1943E+05  0.000E+00  0.000E+00  0.000E+00  3.84716E+01  2.330E-01  2.000E+01  2.000E+04  1.849E-01
   1    9   30     2     1    5.0000E+04 -3.7470E+03   5.3747E+04  0.000E+00  0.000E+00  0.000E+00  4.02435E+01  1.185E-01  2.000E+01  2.000E+04 -1.874E-01
   1    9   29     2     2    5.3747E+04 -4.0767E+03   5.7824E+04  0.000E+00  0.000E+00  0.000E+00  3.99987E+01  1.237E-01  2.000E+01  2.000E+04 -2.038E-01
   1    9   28     2     3    5.7824E+04 -4.6391E+03   6.2463E+04  0.000E+00  0.000E+00  0.000E+00  3.97544E+01  1.294E-01  2.000E+01  2.000E+04 -2.320E-01
   1    9   27     2     4    6.2463E+04 -7.8467E+03   7.0309E+04  0.000E+00  0.000E+00  0.000E+00  3.95123E+01  1.373E-01  2.000E+01  2.000E+04 -3.923E-01
   1   10   26     2     5    7.0309E+04 -6.5083E+03   7.6818E+04  0.000E+00  0.000E+00  0.000E+00  3.92711E+01  1.461E-01  2.000E+01  2.000E+04 -3.254E-01
   1   11   25     2     6    7.6818E+04 -6.1762E+03   8.2994E+04  0.000E+00  0.000E+00  0.000E+00  3.90285E+01  1.535E-01  2.000E+01  2.000E+04 -3.088E-01
   1   12   24     2     7    8.2994E+04 -6.0824E+03   8.9076E+04  0.000E+00  0.000E+00  0.000E+00  3.87855E+01  1.605E-01  2.000E+01  2.000E+04 -3.041E-01
   1   13   23     2     8    8.9076E+04 -1.6498E+03   9.0726E+04  0.000E+00  0.000E+00  0.000E+00  3.85398E+01  1.648E-01  2.000E+01  2.000E+04 -8.249E-02
   1   14   22     2     9    9.0726E+04  7.7652E+01   9.0649E+04  0.000E+00  0.000E+00  0.000E+00  3.82906E+01  1.656E-01  2.000E+01  2.000E+04  3.883E-03
   1   14   22     3     1    3.1008E+05 -9.8447E+03   3.1992E+05  0.000E+00  0.000E+00  0.000E+00  3.77945E+01  2.389E-01  2.000E+01  2.000E+04 -4.922E-01
   1   15   23     3     2    3.1992E+05 -1.9770E+03   3.2190E+05  0.000E+00  0.000E+00  0.000E+00  3.69083E+01  2.416E-01  2.000E+01  2.000E+04 -9.885E-02
   1   15   24     3     3    3.2190E+05 -1.5152E+03   3.2342E+05  0.000E+00  0.000E+00  0.000E+00  3.60202E+01  2.424E-01  2.000E+01  2.000E+04 -7.576E-02
   1   15   25     3     4    3.2342E+05 -1.5473E+03   3.2496E+05  0.000E+00  0.000E+00  0.000E+00  3.51320E+01  2.431E-01  2.000E+01  2.000E+04 -7.736E-02
   1   15   26     3     5    3.2496E+05 -1.7133E+03   3.2668E+05  0.000E+00  0.000E+00  0.000E+00  3.42438E+01  2.438E-01  2.000E+01  2.000E+04 -8.566E-02
   1   16   27     3     6    3.2668E+05 -1.6798E+03   3.2836E+05  0.000E+00  0.000E+00  0.000E+00  3.33557E+01  2.446E-01  2.000E+01  2.000E+04 -8.399E-02
   1   17   28     3     7    3.2836E+05  4.3352E+03   3.2402E+05  0.000E+00  0.000E+00  0.000E+00  3.24662E+01  2.440E-01  2.000E+01  2.000E+04  2.168E-01
   1   18   29     3     8    3.2402E+05  5.7316E+03   3.1829E+05  0.000E+00  0.000E+00  0.000E+00  3.15751E+01  2.417E-01  2.000E+01  2.000E+04  2.866E-01
   1   18   30     3     9    3.1829E+05 -2.0905E+03   3.2038E+05  0.000E+00  0.000E+00  0.000E+00  3.06854E+01  2.409E-01  2.000E+01  2.000E+04 -1.045E-01



1
              HEAD IN LAYER   1 AT END OF TIME STEP   1 IN STRESS PERIOD    1
  ---------------------------------------------------------------------------

          1      2      3      4      5      6      7      8      9     10
         11     12     13     14     15     16     17     18     19     20
         21     22     23     24     25     26     27     28     29     30
 .........................................................................
   1  ****** ****** ****** ****** ****** ****** ****** ****** ****** ******
      ****** ****** ****** ****** ****** ****** ****** ****** ****** ******
      ****** ****** ****** ****** ****** ****** ****** ****** ****** ******
   2  ****** ****** ****** ****** ****** ****** ****** ****** ****** ******
      ****** ****** ****** ****** ****** ****** ****** ****** ****** ******
      ****** ****** ****** ****** ****** ****** ****** ****** ****** ******
   3  ****** ****** ****** ****** ****** ****** ****** ****** ****** ******
      ****** ****** ****** ****** ****** ****** ****** ****** ****** ******
      ****** ****** ****** ****** ****** ****** ****** ****** ****** ******
   4  ****** ****** ****** ****** ****** ****** ****** ****** ****** ******
      ****** ****** ****** ****** ****** ****** ****** ****** ****** ******
      ****** ****** ****** ****** ****** ****** ****** ****** ****** ******
   5  ****** ****** ****** ****** ****** ****** ****** ****** ****** ******
      ****** ****** ****** ****** ****** ****** ****** ****** ****** ******
      ****** ****** ****** ****** ****** ****** ****** ****** ****** ******
   6  ****** ****** ****** ****** ****** ****** ****** ****** ****** ******
      ****** ****** ****** ****** ****** ****** ****** ****** ****** ******
      ****** ****** ****** ****** ****** ****** ****** ****** ****** ******
   7  ****** ****** ****** ****** ****** ****** ****** ****** ****** ******
      ****** ****** ****** ****** ****** ****** ****** ****** ****** ******
      ****** ****** ****** ****** ****** ****** ****** ****** ****** ******
   8  ****** ****** ****** ****** ****** ****** ****** ****** ****** ******
      ****** ****** ****** ****** ****** ****** ****** ****** ****** ******
      ****** ****** ****** ****** ****** ****** ****** ****** ****** ******
   9  ****** ****** ****** ****** ****** ****** ****** ****** ****** ******
      ****** ****** ****** ****** ****** ****** ****** ****** ****** ******
      ****** ****** ****** ****** ****** ****** ****** ****** ****** ******
  10  ****** ****** ****** ****** ****** ****** ****** ****** ****** ******
      ****** ****** ****** ****** ****** ****** ****** ****** ****** ******
      ****** ****** ****** ****** ****** ****** ****** ****** ****** ******
  11  ****** ****** ****** ****** ****** ****** ****** ****** ****** ******
      ****** ****** ****** ****** ****** ****** ****** ****** ****** ******
      ****** ****** ****** ****** ****** ****** ****** ****** ****** ******
  12  ****** ****** ****** ****** ****** ****** ****** ****** ****** ******
      ****** ****** ****** ****** ****** ****** ****** ****** ****** ******
      ****** ****** ****** ****** ****** ****** ****** ****** ****** ******
  13  ****** ****** ****** ****** ****** ****** ****** ****** ****** ******
      ****** ****** ****** ****** ****** ****** ****** ****** ****** ******
      ****** ****** ****** ****** ****** ****** ****** ****** ****** ******
  14  ****** ****** ****** ****** ****** ****** ****** ****** ****** ******
      ****** ****** ****** ****** ****** ****** ****** ****** ****** ******
      ****** ****** ****** ****** ****** ****** ****** ****** ****** ******
  15  ****** ****** ****** ****** ****** ****** ****** ****** ****** ******
      ****** ****** ****** ****** ****** ****** ****** ****** ****** ******
      ****** ****** ****** ****** ****** ****** ****** ****** ****** ******
  16  ****** ****** ****** ****** ****** ****** ****** ****** ****** ******
      ****** ****** ****** ****** ****** ****** ****** ****** ****** ******
      ****** ****** ****** ****** ****** ****** ****** ****** ****** ******
  17  ****** ****** ****** ****** ****** ****** ****** ****** ****** ******
      ****** ****** ****** ****** ****** ****** ****** ****** ****** ******
      ****** ****** ****** ****** ****** ****** ****** ****** ****** ******
  18  ****** ****** ****** ****** ****** ****** ****** ****** ****** ******
      ****** ****** ****** ****** ****** ****** ****** ****** ****** ******
      ****** ****** ****** ****** ****** ****** ****** ****** ****** ******
  19  ****** ****** ****** ****** ****** ****** ****** ****** ****** ******
      ****** ****** ****** ****** ****** ****** ****** ****** ****** ******
      ****** ****** ****** ****** ****** ****** ****** ****** ****** ******
  20  ****** ****** ****** ****** ****** ****** ****** ****** ****** ******
      ****** ****** ****** ****** ****** ****** ****** ****** ****** ******
      ****** ****** ****** ****** ****** ****** ****** ****** ****** ******
  21  ****** ****** ****** ****** ****** ****** ****** ****** ****** ******
      ****** ****** ****** ****** ****** ****** ****** ****** ****** ******
      ****** ****** ****** ****** ****** ****** ****** ****** ****** ******
  22  ****** ****** ****** ****** ****** ****** ****** ****** ****** ******
      ****** ****** ****** ****** ****** ****** ****** ****** ****** ******
      ****** ****** ****** ****** ****** ****** ****** ****** ****** ******
  23  ****** ****** ****** ****** ****** ****** ****** ****** ****** ******
      ****** ****** ****** ****** ****** ****** ****** ****** ****** ******
      ****** ****** ****** ****** ****** ****** ****** ****** ****** ******
  24  ****** ****** ****** ****** ****** ****** ****** ****** ****** ******
      ****** ****** ****** ****** ****** ****** ****** ****** ****** ******
      ****** ****** ****** ****** ****** ****** ****** ****** ****** ******
  25  ****** ****** ****** ****** ****** ****** ****** ****** ****** ******
      ****** ****** ****** ****** ****** ****** ****** ****** ****** ******
      ****** ****** ****** ****** ****** ****** ****** ****** ****** ******

 HEAD WILL BE SAVED ON UNIT   51 AT END OF TIME STEP    1, STRESS PERIOD    1
1
  VOLUMETRIC BUDGET FOR ENTIRE MODEL AT END OF TIME STEP    1, STRESS PERIOD   1
  ------------------------------------------------------------------------------

     CUMULATIVE VOLUMES      L**3       RATES FOR THIS TIME STEP      L**3/T
     ------------------                 ------------------------

           IN:                                      IN:
           ---                                      ---
             STORAGE =    17245870.6877               STORAGE =      187455.1162
       CONSTANT HEAD =     1116634.8112         CONSTANT HEAD =       12137.3349
               WELLS =           0.0000                 WELLS =           0.0000
            RECHARGE =     1269600.0000              RECHARGE =       13800.0000
      STREAM LEAKAGE =     1273444.9978        STREAM LEAKAGE =       13841.7935

            TOTAL IN =    20905550.4966              TOTAL IN =      227234.2445

          OUT:                                     OUT:
          ----                                     ----
             STORAGE =           0.0000               STORAGE =           0.0000
       CONSTANT HEAD =           0.0000         CONSTANT HEAD =           0.0000
               WELLS =     3957051.2047                 WELLS =       43011.4261
            RECHARGE =           0.0000              RECHARGE =           0.0000
      STREAM LEAKAGE =    16948499.5707        STREAM LEAKAGE =      184222.8214

           TOTAL OUT =    20905550.7754             TOTAL OUT =      227234.2476

            IN - OUT =          -0.2788              IN - OUT =      -3.0303E-03

 PERCENT DISCREPANCY =          -0.00     PERCENT DISCREPANCY =          -0.00






         TIME SUMMARY AT END OF TIME STEP    1 IN STRESS PERIOD    1
                    SECONDS     MINUTES      HOURS       DAYS        YEARS
                    -----------------------------------------------------------
   TIME STEP LENGTH 7.94880E+06 1.32480E+05  2208.0      92.000     0.25188    
 STRESS PERIOD TIME 7.94880E+06 1.32480E+05  2208.0      92.000     0.25188    
         TOTAL TIME 7.94880E+06 1.32480E+05  2208.0      92.000     0.25188    
1
1
                            STRESS PERIOD NO.    2, LENGTH =   91.00000    
                            -----------------------------------------------

                              NUMBER OF TIME STEPS =     1

                               MULTIPLIER FOR DELT =     1.500

                            INITIAL TIME STEP SIZE =   91.00000    

 WELL NO.  LAYER   ROW   COL   STRESS RATE         
 --------------------------------------------------
      1      1     17     29     -0.1404E+05
      2      1     18     28     -0.1091E+05
      3      1     12     29      -8101.    
      4      1     19     29      -9959.    

      4 WELLS

                 RECHARGE =  2.000000E-03

 REUSING STREAM SEGMENT DATA FROM LAST STRESS PERIOD
 
 SOLVING FOR HEAD 


     7 CALLS TO PCG ROUTINE FOR TIME STEP   1 IN STRESS PERIOD    2
    27 TOTAL ITERATIONS

 OUTPUT CONTROL FOR STRESS PERIOD    2   TIME STEP    1
    SAVE BUDGET
    SAVE HEAD FOR ALL LAYERS
    PRINT HEAD FOR ALL LAYERS
 UBDSV2 SAVING "STREAMFLOW OUT  " ON UNIT  50 AT TIME STEP  1, STRESS PERIOD   2



 STREAM LISTING     PERIOD      2   STEP        1

 LAYER ROW COL. STREAM  RCH.  FLOW INTO     FLOW TO   FLOW OUT OF   OVRLND.     DIRECT     STREAM       STREAM     STREAM     STREAM   STREAMBED  STREAMBED
                SEG.NO.  NO.  STRM. RCH.    AQUIFER    STRM. RCH.    RUNOFF     PRECIP       ET          HEAD       DEPTH      WIDTH   CONDCTNC.   GRADIENT

   1   13    1     1     1    1.0000E+05 -4.0170E+03   1.0402E+05  0.000E+00  0.000E+00  0.000E+00  4.84078E+01  1.464E-01  2.000E+01  2.000E+04 -2.009E-01
   1   13    2     1     2    1.0402E+05 -5.2797E+03   1.0930E+05  0.000E+00  0.000E+00  0.000E+00  4.79344E+01  1.504E-01  2.000E+01  2.000E+04 -2.640E-01
   1   14    3     1     3    1.0930E+05 -1.1172E+03   1.1041E+05  0.000E+00  0.000E+00  0.000E+00  4.74599E+01  1.530E-01  2.000E+01  2.000E+04 -5.586E-02
   1   15    4     1     4    1.1041E+05 -1.1450E+03   1.1156E+05  0.000E+00  0.000E+00  0.000E+00  4.69835E+01  1.540E-01  2.000E+01  2.000E+04 -5.725E-02
   1   16    5     1     5    1.1156E+05 -4.2587E+03   1.1582E+05  0.000E+00  0.000E+00  0.000E+00  4.65085E+01  1.562E-01  2.000E+01  2.000E+04 -2.129E-01
   1   16    6     1     6    1.1582E+05 -2.5115E+03   1.1833E+05  0.000E+00  0.000E+00  0.000E+00  4.60340E+01  1.590E-01  2.000E+01  2.000E+04 -1.256E-01
   1   16    7     1     7    1.1833E+05 -2.4180E+03   1.2075E+05  0.000E+00  0.000E+00  0.000E+00  4.55587E+01  1.610E-01  2.000E+01  2.000E+04 -1.209E-01
   1   16    8     1     8    1.2075E+05 -2.3899E+03   1.2314E+05  0.000E+00  0.000E+00  0.000E+00  4.50834E+01  1.629E-01  2.000E+01  2.000E+04 -1.195E-01
   1   16    9     1     9    1.2314E+05 -2.3706E+03   1.2551E+05  0.000E+00  0.000E+00  0.000E+00  4.46080E+01  1.648E-01  2.000E+01  2.000E+04 -1.185E-01
   1   16   10     1    10    1.2551E+05 -2.3480E+03   1.2786E+05  0.000E+00  0.000E+00  0.000E+00  4.41326E+01  1.667E-01  2.000E+01  2.000E+04 -1.174E-01
   1   16   11     1    11    1.2786E+05 -2.3566E+03   1.3021E+05  0.000E+00  0.000E+00  0.000E+00  4.36572E+01  1.686E-01  2.000E+01  2.000E+04 -1.178E-01
   1   16   12     1    12    1.3021E+05 -4.1545E+03   1.3437E+05  0.000E+00  0.000E+00  0.000E+00  4.31825E+01  1.711E-01  2.000E+01  2.000E+04 -2.077E-01
   1   15   13     1    13    1.3437E+05 -4.1527E+03   1.3852E+05  0.000E+00  0.000E+00  0.000E+00  4.27084E+01  1.743E-01  2.000E+01  2.000E+04 -2.076E-01
   1   14   14     1    14    1.3852E+05 -4.5590E+03   1.4308E+05  0.000E+00  0.000E+00  0.000E+00  4.22344E+01  1.776E-01  2.000E+01  2.000E+04 -2.279E-01
   1   13   15     1    15    1.4308E+05 -4.9403E+03   1.4802E+05  0.000E+00  0.000E+00  0.000E+00  4.17607E+01  1.812E-01  2.000E+01  2.000E+04 -2.470E-01
   1   12   16     1    16    1.4802E+05 -5.8463E+03   1.5387E+05  0.000E+00  0.000E+00  0.000E+00  4.12875E+01  1.852E-01  2.000E+01  2.000E+04 -2.923E-01
   1   12   17     1    17    1.5387E+05 -3.9006E+03   1.5777E+05  0.000E+00  0.000E+00  0.000E+00  4.08138E+01  1.888E-01  2.000E+01  2.000E+04 -1.950E-01
   1   12   18     1    18    1.5777E+05 -3.7413E+03   1.6151E+05  0.000E+00  0.000E+00  0.000E+00  4.03392E+01  1.915E-01  2.000E+01  2.000E+04 -1.871E-01
   1   12   19     1    19    1.6151E+05 -4.7494E+03   1.6626E+05  0.000E+00  0.000E+00  0.000E+00  3.98650E+01  1.946E-01  2.000E+01  2.000E+04 -2.375E-01
   1   13   20     1    20    1.6626E+05 -3.8127E+03   1.7007E+05  0.000E+00  0.000E+00  0.000E+00  3.93908E+01  1.976E-01  2.000E+01  2.000E+04 -1.906E-01
   1   14   21     1    21    1.7007E+05 -3.7111E+03   1.7378E+05  0.000E+00  0.000E+00  0.000E+00  3.89161E+01  2.002E-01  2.000E+01  2.000E+04 -1.856E-01
   1   14   22     1    22    1.7378E+05  4.4697E+03   1.6931E+05  0.000E+00  0.000E+00  0.000E+00  3.84386E+01  2.000E-01  2.000E+01  2.000E+04  2.235E-01
   1    9   30     2     1    5.0000E+04 -8.0122E+02   5.0801E+04  0.000E+00  0.000E+00  0.000E+00  4.02414E+01  1.164E-01  2.000E+01  2.000E+04 -4.006E-02
   1    9   29     2     2    5.0801E+04 -1.1652E+03   5.1966E+04  0.000E+00  0.000E+00  0.000E+00  3.99928E+01  1.178E-01  2.000E+01  2.000E+04 -5.826E-02
   1    9   28     2     3    5.1966E+04 -1.7947E+03   5.3761E+04  0.000E+00  0.000E+00  0.000E+00  3.97448E+01  1.198E-01  2.000E+01  2.000E+04 -8.974E-02
   1    9   27     2     4    5.3761E+04 -4.3261E+03   5.8087E+04  0.000E+00  0.000E+00  0.000E+00  3.94989E+01  1.239E-01  2.000E+01  2.000E+04 -2.163E-01
   1   10   26     2     5    5.8087E+04 -2.7466E+03   6.0834E+04  0.000E+00  0.000E+00  0.000E+00  3.92536E+01  1.286E-01  2.000E+01  2.000E+04 -1.373E-01
   1   11   25     2     6    6.0834E+04 -2.6096E+03   6.3443E+04  0.000E+00  0.000E+00  0.000E+00  3.90070E+01  1.320E-01  2.000E+01  2.000E+04 -1.305E-01
   1   12   24     2     7    6.3443E+04 -2.9716E+03   6.6415E+04  0.000E+00  0.000E+00  0.000E+00  3.87605E+01  1.355E-01  2.000E+01  2.000E+04 -1.486E-01
   1   13   23     2     8    6.6415E+04 -6.1139E+02   6.7027E+04  0.000E+00  0.000E+00  0.000E+00  3.85128E+01  1.378E-01  2.000E+01  2.000E+04 -3.057E-02
   1   14   22     2     9    6.7027E+04  9.4873E+02   6.6078E+04  0.000E+00  0.000E+00  0.000E+00  3.82626E+01  1.376E-01  2.000E+01  2.000E+04  4.744E-02
   1   14   22     3     1    2.3539E+05 -9.1323E+03   2.4452E+05  0.000E+00  0.000E+00  0.000E+00  3.77585E+01  2.029E-01  2.000E+01  2.000E+04 -4.566E-01
   1   15   23     3     2    2.4452E+05 -1.0288E+03   2.4555E+05  0.000E+00  0.000E+00  0.000E+00  3.68722E+01  2.055E-01  2.000E+01  2.000E+04 -5.144E-02
   1   15   24     3     3    2.4555E+05 -6.3591E+02   2.4619E+05  0.000E+00  0.000E+00  0.000E+00  3.59837E+01  2.059E-01  2.000E+01  2.000E+04 -3.180E-02
   1   15   25     3     4    2.4619E+05 -6.1430E+02   2.4680E+05  0.000E+00  0.000E+00  0.000E+00  3.50951E+01  2.062E-01  2.000E+01  2.000E+04 -3.072E-02
   1   15   26     3     5    2.4680E+05 -5.2616E+02   2.4733E+05  0.000E+00  0.000E+00  0.000E+00  3.42065E+01  2.065E-01  2.000E+01  2.000E+04 -2.631E-02
   1   16   27     3     6    2.4733E+05 -2.8054E+02   2.4761E+05  0.000E+00  0.000E+00  0.000E+00  3.33178E+01  2.067E-01  2.000E+01  2.000E+04 -1.403E-02
   1   17   28     3     7    2.4761E+05  8.5028E+03   2.3910E+05  0.000E+00  0.000E+00  0.000E+00  3.24269E+01  2.047E-01  2.000E+01  2.000E+04  4.251E-01
   1   18   29     3     8    2.3910E+05  9.5900E+03   2.2951E+05  0.000E+00  0.000E+00  0.000E+00  3.15334E+01  2.001E-01  2.000E+01  2.000E+04  4.795E-01
   1   18   30     3     9    2.2951E+05  1.0553E+03   2.2846E+05  0.000E+00  0.000E+00  0.000E+00  3.06418E+01  1.973E-01  2.000E+01  2.000E+04  5.276E-02



1
              HEAD IN LAYER   1 AT END OF TIME STEP   1 IN STRESS PERIOD    2
  ---------------------------------------------------------------------------

          1      2      3      4      5      6      7      8      9     10
         11     12     13     14     15     16     17     18     19     20
         21     22     23     24     25     26     27     28     29     30
 .........................................................................
   1  ****** ****** ****** ****** ****** ****** ****** ****** ****** ******
      ****** ****** ****** ****** ****** ****** ****** ****** ****** ******
      ****** ****** ****** ****** ****** ****** ****** ****** ****** ******
   2  ****** ****** ****** ****** ****** ****** ****** ****** ****** ******
      ****** ****** ****** ****** ****** ****** ****** ****** ****** ******
      ****** ****** ****** ****** ****** ****** ****** ****** ****** ******
   3  ****** ****** ****** ****** ****** ****** ****** ****** ****** ******
      ****** ****** ****** ****** ****** ****** ****** ****** ****** ******
      ****** ****** ****** ****** ****** ****** ****** ****** ****** ******
   4  ****** ****** ****** ****** ****** ****** ****** ****** ****** ******
      ****** ****** ****** ****** ****** ****** ****** ****** ****** ******
      ****** ****** ****** ****** ****** ****** ****** ****** ****** ******
   5  ****** ****** ****** ****** ****** ****** ****** ****** ****** ******
      ****** ****** ****** ****** ****** ****** ****** ****** ****** ******
      ****** ****** ****** ****** ****** ****** ****** ****** ****** ******
   6  ****** ****** ****** ****** ****** ****** ****** ****** ****** ******
      ****** ****** ****** ****** ****** ****** ****** ****** ****** ******
      ****** ****** ****** ****** ****** ****** ****** ****** ****** ******
   7  ****** ****** ****** ****** ****** ****** ****** ****** ****** ******
      ****** ****** ****** ****** ****** ****** ****** ****** ****** ******
      ****** ****** ****** ****** ****** ****** ****** ****** ****** ******
   8  ****** ****** ****** ****** ****** ****** ****** ****** ****** ******
      ****** ****** ****** ****** ****** ****** ****** ****** ****** ******
      ****** ****** ****** ****** ****** ****** ****** ****** ****** ******
   9  ****** ****** ****** ****** ****** ****** ****** ****** ****** ******
      ****** ****** ****** ****** ****** ****** ****** ****** ****** ******
      ****** ****** ****** ****** ****** ****** ****** ****** ****** ******
  10  ****** ****** ****** ****** ****** ****** ****** ****** ****** ******
      ****** ****** ****** ****** ****** ****** ****** ****** ****** ******
      ****** ****** ****** ****** ****** ****** ****** ****** ****** ******
  11  ****** ****** ****** ****** ****** ****** ****** ****** ****** ******
      ****** ****** ****** ****** ****** ****** ****** ****** ****** ******
      ****** ****** ****** ****** ****** ****** ****** ****** ****** ******
  12  ****** ****** ****** ****** ****** ****** ****** ****** ****** ******
      ****** ****** ****** ****** ****** ****** ****** ****** ****** ******
      ****** ****** ****** ****** ****** ****** ****** ****** ****** ******
  13  ****** ****** ****** ****** ****** ****** ****** ****** ****** ******
      ****** ****** ****** ****** ****** ****** ****** ****** ****** ******
      ****** ****** ****** ****** ****** ****** ****** ****** ****** ******
  14  ****** ****** ****** ****** ****** ****** ****** ****** ****** ******
      ****** ****** ****** ****** ****** ****** ****** ****** ****** ******
      ****** ****** ****** ****** ****** ****** ****** ****** ****** ******
  15  ****** ****** ****** ****** ****** ****** ****** ****** ****** ******
      ****** ****** ****** ****** ****** ****** ****** ****** ****** ******
      ****** ****** ****** ****** ****** ****** ****** ****** ****** ******
  16  ****** ****** ****** ****** ****** ****** ****** ****** ****** ******
      ****** ****** ****** ****** ****** ****** ****** ****** ****** ******
      ****** ****** ****** ****** ****** ****** ****** ****** ****** ******
  17  ****** ****** ****** ****** ****** ****** ****** ****** ****** ******
      ****** ****** ****** ****** ****** ****** ****** ****** ****** ******
      ****** ****** ****** ****** ****** ****** ****** ****** ****** ******
  18  ****** ****** ****** ****** ****** ****** ****** ****** ****** ******
      ****** ****** ****** ****** ****** ****** ****** ****** ****** ******
      ****** ****** ****** ****** ****** ****** ****** ****** ****** ******
  19  ****** ****** ****** ****** ****** ****** ****** ****** ****** ******
      ****** ****** ****** ****** ****** ****** ****** ****** ****** ******
      ****** ****** ****** ****** ****** ****** ****** ****** ****** ******
  20  ****** ****** ****** ****** ****** ****** ****** ****** ****** ******
      ****** ****** ****** ****** ****** ****** ****** ****** ****** ******
      ****** ****** ****** ****** ****** ****** ****** ****** ****** ******
  21  ****** ****** ****** ****** ****** ****** ****** ****** ****** ******
      ****** ****** ****** ****** ****** ****** ****** ****** ****** ******
      ****** ****** ****** ****** ****** ****** ****** ****** ****** ******
  22  ****** ****** ****** ****** ****** ****** ****** ****** ****** ******
      ****** ****** ****** ****** ****** ****** ****** ****** ****** ******
      ****** ****** ****** ****** ****** ****** ****** ****** ****** ******
  23  ****** ****** ****** ****** ****** ****** ****** ****** ****** ******
      ****** ****** ****** ****** ****** ****** ****** ****** ****** ******
      ****** ****** ****** ****** ****** ****** ****** ****** ****** ******
  24  ****** ****** ****** ****** ****** ****** ****** ****** ****** ******
      ****** ****** ****** ****** ****** ****** ****** ****** ****** ******
      ****** ****** ****** ****** ****** ****** ****** ****** ****** ******
  25  ****** ****** ****** ****** ****** ****** ****** ****** ****** ******
      ****** ****** ****** ****** ****** ****** ****** ****** ****** ******
      ****** ****** ****** ****** ****** ****** ****** ****** ****** ******

 HEAD WILL BE SAVED ON UNIT   51 AT END OF TIME STEP    1, STRESS PERIOD    2
1
  VOLUMETRIC BUDGET FOR ENTIRE MODEL AT END OF TIME STEP    1, STRESS PERIOD   2
  ------------------------------------------------------------------------------

     CUMULATIVE VOLUMES      L**3       RATES FOR THIS TIME STEP      L**3/T
     ------------------                 ------------------------

           IN:                                      IN:
           ---                                      ---
             STORAGE =    21799472.5101               STORAGE =       50039.5805
       CONSTANT HEAD =     2593575.4919         CONSTANT HEAD =       16230.1174
               WELLS =           0.0000                 WELLS =           0.0000
            RECHARGE =     6292800.0000              RECHARGE =       55200.0000
      STREAM LEAKAGE =     3508994.1619        STREAM LEAKAGE =       24566.4743

            TOTAL IN =    34194842.1640              TOTAL IN =      146036.1722

          OUT:                                     OUT:
          ----                                     ----
             STORAGE =           0.0000               STORAGE =           0.0000
       CONSTANT HEAD =           0.0000         CONSTANT HEAD =           0.0000
               WELLS =     7871090.9833                 WELLS =       43011.4261
            RECHARGE =           0.0000              RECHARGE =           0.0000
      STREAM LEAKAGE =    26323752.3496        STREAM LEAKAGE =      103024.7558

           TOTAL OUT =    34194843.3329             TOTAL OUT =      146036.1820

            IN - OUT =          -1.1690              IN - OUT =      -9.7825E-03

 PERCENT DISCREPANCY =          -0.00     PERCENT DISCREPANCY =          -0.00






         TIME SUMMARY AT END OF TIME STEP    1 IN STRESS PERIOD    2
                    SECONDS     MINUTES      HOURS       DAYS        YEARS
                    -----------------------------------------------------------
   TIME STEP LENGTH 7.86240E+06 1.31040E+05  2184.0      91.000     0.24914    
 STRESS PERIOD TIME 7.86240E+06 1.31040E+05  2184.0      91.000     0.24914    
         TOTAL TIME 1.58112E+07 2.63520E+05  4392.0      183.00     0.50103    
1
1
                            STRESS PERIOD NO.    3, LENGTH =   91.00000    
                            -----------------------------------------------

                              NUMBER OF TIME STEPS =     1

                               MULTIPLIER FOR DELT =     1.500

                            INITIAL TIME STEP SIZE =   91.00000    

 WELL NO.  LAYER   ROW   COL   STRESS RATE         
 --------------------------------------------------
      1      1     17     29     -0.1404E+05
      2      1     18     28     -0.1091E+05
      3      1     12     29      -8101.    
      4      1     19     29      -9959.    

      4 WELLS

                 RECHARGE =   0.00000    

 REUSING STREAM SEGMENT DATA FROM LAST STRESS PERIOD
 
 SOLVING FOR HEAD 


     7 CALLS TO PCG ROUTINE FOR TIME STEP   1 IN STRESS PERIOD    3
    27 TOTAL ITERATIONS

 OUTPUT CONTROL FOR STRESS PERIOD    3   TIME STEP    1
    SAVE BUDGET
    SAVE HEAD FOR ALL LAYERS
    PRINT HEAD FOR ALL LAYERS
 UBDSV2 SAVING "STREAMFLOW OUT  " ON UNIT  50 AT TIME STEP  1, STRESS PERIOD   3



 STREAM LISTING     PERIOD      3   STEP        1

 LAYER ROW COL. STREAM  RCH.  FLOW INTO     FLOW TO   FLOW OUT OF   OVRLND.     DIRECT     STREAM       STREAM     STREAM     STREAM   STREAMBED  STREAMBED
                SEG.NO.  NO.  STRM. RCH.    AQUIFER    STRM. RCH.    RUNOFF     PRECIP       ET          HEAD       DEPTH      WIDTH   CONDCTNC.   GRADIENT

   1   13    1     1     1    1.0000E+05 -2.7803E+03   1.0278E+05  0.000E+00  0.000E+00  0.000E+00  4.84072E+01  1.459E-01  2.000E+01  2.000E+04 -1.390E-01
   1   13    2     1     2    1.0278E+05 -3.8906E+03   1.0667E+05  0.000E+00  0.000E+00  0.000E+00  4.79328E+01  1.487E-01  2.000E+01  2.000E+04 -1.945E-01
   1   14    3     1     3    1.0667E+05 -6.5796E+02   1.0733E+05  0.000E+00  0.000E+00  0.000E+00  4.74575E+01  1.506E-01  2.000E+01  2.000E+04 -3.290E-02
   1   15    4     1     4    1.0733E+05 -6.4138E+02   1.0797E+05  0.000E+00  0.000E+00  0.000E+00  4.69807E+01  1.512E-01  2.000E+01  2.000E+04 -3.207E-02
   1   16    5     1     5    1.0797E+05 -2.4690E+03   1.1044E+05  0.000E+00  0.000E+00  0.000E+00  4.65048E+01  1.525E-01  2.000E+01  2.000E+04 -1.234E-01
   1   16    6     1     6    1.1044E+05 -1.5120E+03   1.1195E+05  0.000E+00  0.000E+00  0.000E+00  4.60292E+01  1.542E-01  2.000E+01  2.000E+04 -7.560E-02
   1   16    7     1     7    1.1195E+05 -1.4768E+03   1.1343E+05  0.000E+00  0.000E+00  0.000E+00  4.55531E+01  1.554E-01  2.000E+01  2.000E+04 -7.384E-02
   1   16    8     1     8    1.1343E+05 -1.4670E+03   1.1490E+05  0.000E+00  0.000E+00  0.000E+00  4.50771E+01  1.566E-01  2.000E+01  2.000E+04 -7.335E-02
   1   16    9     1     9    1.1490E+05 -1.4524E+03   1.1635E+05  0.000E+00  0.000E+00  0.000E+00  4.46010E+01  1.578E-01  2.000E+01  2.000E+04 -7.262E-02
   1   16   10     1    10    1.1635E+05 -1.4303E+03   1.1778E+05  0.000E+00  0.000E+00  0.000E+00  4.41249E+01  1.590E-01  2.000E+01  2.000E+04 -7.152E-02
   1   16   11     1    11    1.1778E+05 -1.4332E+03   1.1921E+05  0.000E+00  0.000E+00  0.000E+00  4.36488E+01  1.602E-01  2.000E+01  2.000E+04 -7.166E-02
   1   16   12     1    12    1.1921E+05 -2.5527E+03   1.2176E+05  0.000E+00  0.000E+00  0.000E+00  4.31731E+01  1.618E-01  2.000E+01  2.000E+04 -1.276E-01
   1   15   13     1    13    1.2176E+05 -2.5204E+03   1.2428E+05  0.000E+00  0.000E+00  0.000E+00  4.26979E+01  1.638E-01  2.000E+01  2.000E+04 -1.260E-01
   1   14   14     1    14    1.2428E+05 -2.8884E+03   1.2717E+05  0.000E+00  0.000E+00  0.000E+00  4.22228E+01  1.660E-01  2.000E+01  2.000E+04 -1.444E-01
   1   13   15     1    15    1.2717E+05 -3.2745E+03   1.3045E+05  0.000E+00  0.000E+00  0.000E+00  4.17479E+01  1.684E-01  2.000E+01  2.000E+04 -1.637E-01
   1   12   16     1    16    1.3045E+05 -4.1379E+03   1.3458E+05  0.000E+00  0.000E+00  0.000E+00  4.12735E+01  1.713E-01  2.000E+01  2.000E+04 -2.069E-01
   1   12   17     1    17    1.3458E+05 -2.6594E+03   1.3724E+05  0.000E+00  0.000E+00  0.000E+00  4.07989E+01  1.739E-01  2.000E+01  2.000E+04 -1.330E-01
   1   12   18     1    18    1.3724E+05 -2.5171E+03   1.3976E+05  0.000E+00  0.000E+00  0.000E+00  4.03236E+01  1.759E-01  2.000E+01  2.000E+04 -1.259E-01
   1   12   19     1    19    1.3976E+05 -3.2148E+03   1.4298E+05  0.000E+00  0.000E+00  0.000E+00  3.98485E+01  1.780E-01  2.000E+01  2.000E+04 -1.607E-01
   1   13   20     1    20    1.4298E+05 -2.3859E+03   1.4536E+05  0.000E+00  0.000E+00  0.000E+00  3.93733E+01  1.802E-01  2.000E+01  2.000E+04 -1.193E-01
   1   14   21     1    21    1.4536E+05 -2.2403E+03   1.4760E+05  0.000E+00  0.000E+00  0.000E+00  3.88978E+01  1.819E-01  2.000E+01  2.000E+04 -1.120E-01
   1   14   22     1    22    1.4760E+05  4.8320E+03   1.4277E+05  0.000E+00  0.000E+00  0.000E+00  3.84196E+01  1.809E-01  2.000E+01  2.000E+04  2.416E-01
   1    9   30     2     1    5.0000E+04  4.3496E+02   4.9565E+04  0.000E+00  0.000E+00  0.000E+00  4.02406E+01  1.156E-01  2.000E+01  2.000E+04  2.175E-02
   1    9   29     2     2    4.9565E+04  6.4254E+01   4.9501E+04  0.000E+00  0.000E+00  0.000E+00  3.99902E+01  1.152E-01  2.000E+01  2.000E+04  3.213E-03
   1    9   28     2     3    4.9501E+04 -5.6326E+02   5.0064E+04  0.000E+00  0.000E+00  0.000E+00  3.97406E+01  1.156E-01  2.000E+01  2.000E+04 -2.816E-02
   1    9   27     2     4    5.0064E+04 -2.5949E+03   5.2659E+04  0.000E+00  0.000E+00  0.000E+00  3.94927E+01  1.177E-01  2.000E+01  2.000E+04 -1.297E-01
   1   10   26     2     5    5.2659E+04 -1.1032E+03   5.3762E+04  0.000E+00  0.000E+00  0.000E+00  3.92453E+01  1.203E-01  2.000E+01  2.000E+04 -5.516E-02
   1   11   25     2     6    5.3762E+04 -1.0815E+03   5.4844E+04  0.000E+00  0.000E+00  0.000E+00  3.89967E+01  1.217E-01  2.000E+01  2.000E+04 -5.408E-02
   1   12   24     2     7    5.4844E+04 -1.6250E+03   5.6469E+04  0.000E+00  0.000E+00  0.000E+00  3.87486E+01  1.236E-01  2.000E+01  2.000E+04 -8.125E-02
   1   13   23     2     8    5.6469E+04 -2.7802E+02   5.6747E+04  0.000E+00  0.000E+00  0.000E+00  3.84998E+01  1.248E-01  2.000E+01  2.000E+04 -1.390E-02
   1   14   22     2     9    5.6747E+04  1.4222E+03   5.5324E+04  0.000E+00  0.000E+00  0.000E+00  3.82491E+01  1.241E-01  2.000E+01  2.000E+04  7.111E-02
   1   14   22     3     1    1.9809E+05 -8.7822E+03   2.0688E+05  0.000E+00  0.000E+00  0.000E+00  3.77388E+01  1.833E-01  2.000E+01  2.000E+04 -4.391E-01
   1   15   23     3     2    2.0688E+05 -6.3200E+02   2.0751E+05  0.000E+00  0.000E+00  0.000E+00  3.68525E+01  1.858E-01  2.000E+01  2.000E+04 -3.160E-02
   1   15   24     3     3    2.0751E+05 -3.0603E+02   2.0782E+05  0.000E+00  0.000E+00  0.000E+00  3.59639E+01  1.861E-01  2.000E+01  2.000E+04 -1.530E-02
   1   15   25     3     4    2.0782E+05 -2.6347E+02   2.0808E+05  0.000E+00  0.000E+00  0.000E+00  3.50751E+01  1.862E-01  2.000E+01  2.000E+04 -1.317E-02
   1   15   26     3     5    2.0808E+05 -9.6339E+01   2.0817E+05  0.000E+00  0.000E+00  0.000E+00  3.41863E+01  1.863E-01  2.000E+01  2.000E+04 -4.817E-03
   1   16   27     3     6    2.0817E+05  2.2218E+02   2.0795E+05  0.000E+00  0.000E+00  0.000E+00  3.32974E+01  1.863E-01  2.000E+01  2.000E+04  1.111E-02
   1   17   28     3     7    2.0795E+05  1.0087E+04   1.9787E+05  0.000E+00  0.000E+00  0.000E+00  3.24057E+01  1.835E-01  2.000E+01  2.000E+04  5.044E-01
   1   18   29     3     8    1.9787E+05  1.1310E+04   1.8656E+05  0.000E+00  0.000E+00  0.000E+00  3.15110E+01  1.777E-01  2.000E+01  2.000E+04  5.655E-01
   1   18   30     3     9    1.8656E+05  2.3427E+03   1.8421E+05  0.000E+00  0.000E+00  0.000E+00  3.06183E+01  1.738E-01  2.000E+01  2.000E+04  1.171E-01



1
              HEAD IN LAYER   1 AT END OF TIME STEP   1 IN STRESS PERIOD    3
  ---------------------------------------------------------------------------

          1      2      3      4      5      6      7      8      9     10
         11     12     13     14     15     16     17     18     19     20
         21     22     23     24     25     26     27     28     29     30
 .........................................................................
   1  ****** ****** ****** ****** ****** ****** ****** ****** ****** ******
      ****** ****** ****** ****** ****** ****** ****** ****** ****** ******
      ****** ****** ****** ****** ****** ****** ****** ****** ****** ******
   2  ****** ****** ****** ****** ****** ****** ****** ****** ****** ******
      ****** ****** ****** ****** ****** ****** ****** ****** ****** ******
      ****** ****** ****** ****** ****** ****** ****** ****** ****** ******
   3  ****** ****** ****** ****** ****** ****** ****** ****** ****** ******
      ****** ****** ****** ****** ****** ****** ****** ****** ****** ******
      ****** ****** ****** ****** ****** ****** ****** ****** ****** ******
   4  ****** ****** ****** ****** ****** ****** ****** ****** ****** ******
      ****** ****** ****** ****** ****** ****** ****** ****** ****** ******
      ****** ****** ****** ****** ****** ****** ****** ****** ****** ******
   5  ****** ****** ****** ****** ****** ****** ****** ****** ****** ******
      ****** ****** ****** ****** ****** ****** ****** ****** ****** ******
      ****** ****** ****** ****** ****** ****** ****** ****** ****** ******
   6  ****** ****** ****** ****** ****** ****** ****** ****** ****** ******
      ****** ****** ****** ****** ****** ****** ****** ****** ****** ******
      ****** ****** ****** ****** ****** ****** ****** ****** ****** ******
   7  ****** ****** ****** ****** ****** ****** ****** ****** ****** ******
      ****** ****** ****** ****** ****** ****** ****** ****** ****** ******
      ****** ****** ****** ****** ****** ****** ****** ****** ****** ******
   8  ****** ****** ****** ****** ****** ****** ****** ****** ****** ******
      ****** ****** ****** ****** ****** ****** ****** ****** ****** ******
      ****** ****** ****** ****** ****** ****** ****** ****** ****** ******
   9  ****** ****** ****** ****** ****** ****** ****** ****** ****** ******
      ****** ****** ****** ****** ****** ****** ****** ****** ****** ******
      ****** ****** ****** ****** ****** ****** ****** ****** ****** ******
  10  ****** ****** ****** ****** ****** ****** ****** ****** ****** ******
      ****** ****** ****** ****** ****** ****** ****** ****** ****** ******
      ****** ****** ****** ****** ****** ****** ****** ****** ****** ******
  11  ****** ****** ****** ****** ****** ****** ****** ****** ****** ******
      ****** ****** ****** ****** ****** ****** ****** ****** ****** ******
      ****** ****** ****** ****** ****** ****** ****** ****** ****** ******
  12  ****** ****** ****** ****** ****** ****** ****** ****** ****** ******
      ****** ****** ****** ****** ****** ****** ****** ****** ****** ******
      ****** ****** ****** ****** ****** ****** ****** ****** ****** ******
  13  ****** ****** ****** ****** ****** ****** ****** ****** ****** ******
      ****** ****** ****** ****** ****** ****** ****** ****** ****** ******
      ****** ****** ****** ****** ****** ****** ****** ****** ****** ******
  14  ****** ****** ****** ****** ****** ****** ****** ****** ****** ******
      ****** ****** ****** ****** ****** ****** ****** ****** ****** ******
      ****** ****** ****** ****** ****** ****** ****** ****** ****** ******
  15  ****** ****** ****** ****** ****** ****** ****** ****** ****** ******
      ****** ****** ****** ****** ****** ****** ****** ****** ****** ******
      ****** ****** ****** ****** ****** ****** ****** ****** ****** ******
  16  ****** ****** ****** ****** ****** ****** ****** ****** ****** ******
      ****** ****** ****** ****** ****** ****** ****** ****** ****** ******
      ****** ****** ****** ****** ****** ****** ****** ****** ****** ******
  17  ****** ****** ****** ****** ****** ****** ****** ****** ****** ******
      ****** ****** ****** ****** ****** ****** ****** ****** ****** ******
      ****** ****** ****** ****** ****** ****** ****** ****** ****** ******
  18  ****** ****** ****** ****** ****** ****** ****** ****** ****** ******
      ****** ****** ****** ****** ****** ****** ****** ****** ****** ******
      ****** ****** ****** ****** ****** ****** ****** ****** ****** ******
  19  ****** ****** ****** ****** ****** ****** ****** ****** ****** ******
      ****** ****** ****** ****** ****** ****** ****** ****** ****** ******
      ****** ****** ****** ****** ****** ****** ****** ****** ****** ******
  20  ****** ****** ****** ****** ****** ****** ****** ****** ****** ******
      ****** ****** ****** ****** ****** ****** ****** ****** ****** ******
      ****** ****** ****** ****** ****** ****** ****** ****** ****** ******
  21  ****** ****** ****** ****** ****** ****** ****** ****** ****** ******
      ****** ****** ****** ****** ****** ****** ****** ****** ****** ******
      ****** ****** ****** ****** ****** ****** ****** ****** ****** ******
  22  ****** ****** ****** ****** ****** ****** ****** ****** ****** ******
      ****** ****** ****** ****** ****** ****** ****** ****** ****** ******
      ****** ****** ****** ****** ****** ****** ****** ****** ****** ******
  23  ****** ****** ****** ****** ****** ****** ****** ****** ****** ******
      ****** ****** ****** ****** ****** ****** ****** ****** ****** ******
      ****** ****** ****** ****** ****** ****** ****** ****** ****** ******
  24  ****** ****** ****** ****** ****** ****** ****** ****** ****** ******
      ****** ****** ****** ****** ****** ****** ****** ****** ****** ******
      ****** ****** ****** ****** ****** ****** ****** ****** ****** ******
  25  ****** ****** ****** ****** ****** ****** ****** ****** ****** ******
      ****** ****** ****** ****** ****** ****** ****** ****** ****** ******
      ****** ****** ****** ****** ****** ****** ****** ****** ****** ******

 HEAD WILL BE SAVED ON UNIT   51 AT END OF TIME STEP    1, STRESS PERIOD    3
1
  VOLUMETRIC BUDGET FOR ENTIRE MODEL AT END OF TIME STEP    1, STRESS PERIOD   3
  ------------------------------------------------------------------------------

     CUMULATIVE VOLUMES      L**3       RATES FOR THIS TIME STEP      L**3/T
     ------------------                 ------------------------

           IN:                                      IN:
           ---                                      ---
             STORAGE =    26599663.7245               STORAGE =       52749.3540
       CONSTANT HEAD =     4820792.1422         CONSTANT HEAD =       24474.9082
               WELLS =           0.0000                 WELLS =           0.0000
            RECHARGE =     6292800.0000              RECHARGE =           0.0000
      STREAM LEAKAGE =     6304102.0879        STREAM LEAKAGE =       30715.4717

            TOTAL IN =    44017357.9546              TOTAL IN =      107939.7340

          OUT:                                     OUT:
          ----                                     ----
             STORAGE =           0.0000               STORAGE =           0.0000
       CONSTANT HEAD =           0.0000         CONSTANT HEAD =           0.0000
               WELLS =    11785130.7619                 WELLS =       43011.4261
            RECHARGE =           0.0000              RECHARGE =           0.0000
      STREAM LEAKAGE =    32232228.9876        STREAM LEAKAGE =       64928.3147

           TOTAL OUT =    44017359.7495             TOTAL OUT =      107939.7408

            IN - OUT =          -1.7949              IN - OUT =      -6.8783E-03

 PERCENT DISCREPANCY =          -0.00     PERCENT DISCREPANCY =          -0.00






         TIME SUMMARY AT END OF TIME STEP    1 IN STRESS PERIOD    3
                    SECONDS     MINUTES      HOURS       DAYS        YEARS
                    -----------------------------------------------------------
   TIME STEP LENGTH 7.86240E+06 1.31040E+05  2184.0      91.000     0.24914    
 STRESS PERIOD TIME 7.86240E+06 1.31040E+05  2184.0      91.000     0.24914    
         TOTAL TIME 2.36736E+07 3.94560E+05  6576.0      274.00     0.75017    
1
1
                            STRESS PERIOD NO.    4, LENGTH =   91.00000    
                            -----------------------------------------------

                              NUMBER OF TIME STEPS =     1

                               MULTIPLIER FOR DELT =     1.500

                            INITIAL TIME STEP SIZE =   91.00000    

 WELL NO.  LAYER   ROW   COL   STRESS RATE         
 --------------------------------------------------
      1      1     17     29     -0.1404E+05
      2      1     18     28     -0.1091E+05
      3      1     12     29      -8101.    
      4      1     19     29      -9959.    

      4 WELLS

                 RECHARGE =  1.000000E-03

 REUSING STREAM SEGMENT DATA FROM LAST STRESS PERIOD
 
 SOLVING FOR HEAD 


     7 CALLS TO PCG ROUTINE FOR TIME STEP   1 IN STRESS PERIOD    4
    24 TOTAL ITERATIONS

 OUTPUT CONTROL FOR STRESS PERIOD    4   TIME STEP    1
    SAVE BUDGET
    SAVE HEAD FOR ALL LAYERS
    PRINT HEAD FOR ALL LAYERS
 UBDSV2 SAVING "STREAMFLOW OUT  " ON UNIT  50 AT TIME STEP  1, STRESS PERIOD   4



 STREAM LISTING     PERIOD      4   STEP        1

 LAYER ROW COL. STREAM  RCH.  FLOW INTO     FLOW TO   FLOW OUT OF   OVRLND.     DIRECT     STREAM       STREAM     STREAM     STREAM   STREAMBED  STREAMBED
                SEG.NO.  NO.  STRM. RCH.    AQUIFER    STRM. RCH.    RUNOFF     PRECIP       ET          HEAD       DEPTH      WIDTH   CONDCTNC.   GRADIENT

   1   13    1     1     1    1.0000E+05 -2.5598E+03   1.0256E+05  0.000E+00  0.000E+00  0.000E+00  4.84071E+01  1.458E-01  2.000E+01  2.000E+04 -1.280E-01
   1   13    2     1     2    1.0256E+05 -3.6334E+03   1.0619E+05  0.000E+00  0.000E+00  0.000E+00  4.79325E+01  1.484E-01  2.000E+01  2.000E+04 -1.817E-01
   1   14    3     1     3    1.0619E+05 -6.3144E+02   1.0682E+05  0.000E+00  0.000E+00  0.000E+00  4.74570E+01  1.502E-01  2.000E+01  2.000E+04 -3.157E-02
   1   15    4     1     4    1.0682E+05 -6.0483E+02   1.0743E+05  0.000E+00  0.000E+00  0.000E+00  4.69803E+01  1.508E-01  2.000E+01  2.000E+04 -3.024E-02
   1   16    5     1     5    1.0743E+05 -2.1729E+03   1.0960E+05  0.000E+00  0.000E+00  0.000E+00  4.65042E+01  1.519E-01  2.000E+01  2.000E+04 -1.086E-01
   1   16    6     1     6    1.0960E+05 -1.3675E+03   1.1097E+05  0.000E+00  0.000E+00  0.000E+00  4.60284E+01  1.534E-01  2.000E+01  2.000E+04 -6.838E-02
   1   16    7     1     7    1.1097E+05 -1.3439E+03   1.1231E+05  0.000E+00  0.000E+00  0.000E+00  4.55523E+01  1.545E-01  2.000E+01  2.000E+04 -6.719E-02
   1   16    8     1     8    1.1231E+05 -1.3387E+03   1.1365E+05  0.000E+00  0.000E+00  0.000E+00  4.50761E+01  1.556E-01  2.000E+01  2.000E+04 -6.694E-02
   1   16    9     1     9    1.1365E+05 -1.3272E+03   1.1498E+05  0.000E+00  0.000E+00  0.000E+00  4.45999E+01  1.567E-01  2.000E+01  2.000E+04 -6.636E-02
   1   16   10     1    10    1.1498E+05 -1.3089E+03   1.1629E+05  0.000E+00  0.000E+00  0.000E+00  4.41237E+01  1.578E-01  2.000E+01  2.000E+04 -6.544E-02
   1   16   11     1    11    1.1629E+05 -1.3120E+03   1.1760E+05  0.000E+00  0.000E+00  0.000E+00  4.36475E+01  1.589E-01  2.000E+01  2.000E+04 -6.560E-02
   1   16   12     1    12    1.1760E+05 -2.2984E+03   1.1990E+05  0.000E+00  0.000E+00  0.000E+00  4.31717E+01  1.604E-01  2.000E+01  2.000E+04 -1.149E-01
   1   15   13     1    13    1.1990E+05 -2.2910E+03   1.2219E+05  0.000E+00  0.000E+00  0.000E+00  4.26963E+01  1.622E-01  2.000E+01  2.000E+04 -1.146E-01
   1   14   14     1    14    1.2219E+05 -2.6428E+03   1.2483E+05  0.000E+00  0.000E+00  0.000E+00  4.22210E+01  1.642E-01  2.000E+01  2.000E+04 -1.321E-01
   1   13   15     1    15    1.2483E+05 -3.0101E+03   1.2784E+05  0.000E+00  0.000E+00  0.000E+00  4.17460E+01  1.664E-01  2.000E+01  2.000E+04 -1.505E-01
   1   12   16     1    16    1.2784E+05 -3.7898E+03   1.3163E+05  0.000E+00  0.000E+00  0.000E+00  4.12714E+01  1.691E-01  2.000E+01  2.000E+04 -1.895E-01
   1   12   17     1    17    1.3163E+05 -2.4519E+03   1.3408E+05  0.000E+00  0.000E+00  0.000E+00  4.07965E+01  1.715E-01  2.000E+01  2.000E+04 -1.226E-01
   1   12   18     1    18    1.3408E+05 -2.3244E+03   1.3641E+05  0.000E+00  0.000E+00  0.000E+00  4.03211E+01  1.734E-01  2.000E+01  2.000E+04 -1.162E-01
   1   12   19     1    19    1.3641E+05 -2.9770E+03   1.3939E+05  0.000E+00  0.000E+00  0.000E+00  3.98459E+01  1.754E-01  2.000E+01  2.000E+04 -1.489E-01
   1   13   20     1    20    1.3939E+05 -2.2303E+03   1.4162E+05  0.000E+00  0.000E+00  0.000E+00  3.93706E+01  1.774E-01  2.000E+01  2.000E+04 -1.115E-01
   1   14   21     1    21    1.4162E+05 -2.0140E+03   1.4363E+05  0.000E+00  0.000E+00  0.000E+00  3.88949E+01  1.790E-01  2.000E+01  2.000E+04 -1.007E-01
   1   14   22     1    22    1.4363E+05  4.8676E+03   1.3876E+05  0.000E+00  0.000E+00  0.000E+00  3.84166E+01  1.779E-01  2.000E+01  2.000E+04  2.434E-01
   1    9   30     2     1    5.0000E+04  5.2429E+02   4.9476E+04  0.000E+00  0.000E+00  0.000E+00  4.02405E+01  1.155E-01  2.000E+01  2.000E+04  2.621E-02
   1    9   29     2     2    4.9476E+04  1.5923E+02   4.9316E+04  0.000E+00  0.000E+00  0.000E+00  3.99900E+01  1.150E-01  2.000E+01  2.000E+04  7.961E-03
   1    9   28     2     3    4.9316E+04 -4.5130E+02   4.9768E+04  0.000E+00  0.000E+00  0.000E+00  3.97402E+01  1.152E-01  2.000E+01  2.000E+04 -2.256E-02
   1    9   27     2     4    4.9768E+04 -2.3465E+03   5.2114E+04  0.000E+00  0.000E+00  0.000E+00  3.94922E+01  1.172E-01  2.000E+01  2.000E+04 -1.173E-01
   1   10   26     2     5    5.2114E+04 -9.5599E+02   5.3070E+04  0.000E+00  0.000E+00  0.000E+00  3.92444E+01  1.194E-01  2.000E+01  2.000E+04 -4.780E-02
   1   11   25     2     6    5.3070E+04 -9.7349E+02   5.4044E+04  0.000E+00  0.000E+00  0.000E+00  3.89957E+01  1.207E-01  2.000E+01  2.000E+04 -4.867E-02
   1   12   24     2     7    5.4044E+04 -1.5378E+03   5.5581E+04  0.000E+00  0.000E+00  0.000E+00  3.87474E+01  1.224E-01  2.000E+01  2.000E+04 -7.689E-02
   1   13   23     2     8    5.5581E+04 -3.0537E+02   5.5887E+04  0.000E+00  0.000E+00  0.000E+00  3.84987E+01  1.237E-01  2.000E+01  2.000E+04 -1.527E-02
   1   14   22     2     9    5.5887E+04  1.4940E+03   5.4393E+04  0.000E+00  0.000E+00  0.000E+00  3.82479E+01  1.229E-01  2.000E+01  2.000E+04  7.470E-02
   1   14   22     3     1    1.9316E+05 -8.7407E+03   2.0190E+05  0.000E+00  0.000E+00  0.000E+00  3.77361E+01  1.806E-01  2.000E+01  2.000E+04 -4.370E-01
   1   15   23     3     2    2.0190E+05 -6.0631E+02   2.0250E+05  0.000E+00  0.000E+00  0.000E+00  3.68498E+01  1.831E-01  2.000E+01  2.000E+04 -3.032E-02
   1   15   24     3     3    2.0250E+05 -3.0193E+02   2.0280E+05  0.000E+00  0.000E+00  0.000E+00  3.59612E+01  1.834E-01  2.000E+01  2.000E+04 -1.510E-02
   1   15   25     3     4    2.0280E+05 -2.5770E+02   2.0306E+05  0.000E+00  0.000E+00  0.000E+00  3.50724E+01  1.835E-01  2.000E+01  2.000E+04 -1.288E-02
   1   15   26     3     5    2.0306E+05 -9.7241E+01   2.0316E+05  0.000E+00  0.000E+00  0.000E+00  3.41836E+01  1.836E-01  2.000E+01  2.000E+04 -4.862E-03
   1   16   27     3     6    2.0316E+05  2.3304E+02   2.0293E+05  0.000E+00  0.000E+00  0.000E+00  3.32947E+01  1.836E-01  2.000E+01  2.000E+04  1.165E-02
   1   17   28     3     7    2.0293E+05  1.0197E+04   1.9273E+05  0.000E+00  0.000E+00  0.000E+00  3.24030E+01  1.807E-01  2.000E+01  2.000E+04  5.099E-01
   1   18   29     3     8    1.9273E+05  1.1592E+04   1.8114E+05  0.000E+00  0.000E+00  0.000E+00  3.15080E+01  1.747E-01  2.000E+01  2.000E+04  5.796E-01
   1   18   30     3     9    1.8114E+05  2.4965E+03   1.7864E+05  0.000E+00  0.000E+00  0.000E+00  3.06152E+01  1.707E-01  2.000E+01  2.000E+04  1.248E-01



1
              HEAD IN LAYER   1 AT END OF TIME STEP   1 IN STRESS PERIOD    4
  ---------------------------------------------------------------------------

          1      2      3      4      5      6      7      8      9     10
         11     12     13     14     15     16     17     18     19     20
         21     22     23     24     25     26     27     28     29     30
 .........................................................................
   1  ****** ****** ****** ****** ****** ****** ****** ****** ****** ******
      ****** ****** ****** ****** ****** ****** ****** ****** ****** ******
      ****** ****** ****** ****** ****** ****** ****** ****** ****** ******
   2  ****** ****** ****** ****** ****** ****** ****** ****** ****** ******
      ****** ****** ****** ****** ****** ****** ****** ****** ****** ******
      ****** ****** ****** ****** ****** ****** ****** ****** ****** ******
   3  ****** ****** ****** ****** ****** ****** ****** ****** ****** ******
      ****** ****** ****** ****** ****** ****** ****** ****** ****** ******
      ****** ****** ****** ****** ****** ****** ****** ****** ****** ******
   4  ****** ****** ****** ****** ****** ****** ****** ****** ****** ******
      ****** ****** ****** ****** ****** ****** ****** ****** ****** ******
      ****** ****** ****** ****** ****** ****** ****** ****** ****** ******
   5  ****** ****** ****** ****** ****** ****** ****** ****** ****** ******
      ****** ****** ****** ****** ****** ****** ****** ****** ****** ******
      ****** ****** ****** ****** ****** ****** ****** ****** ****** ******
   6  ****** ****** ****** ****** ****** ****** ****** ****** ****** ******
      ****** ****** ****** ****** ****** ****** ****** ****** ****** ******
      ****** ****** ****** ****** ****** ****** ****** ****** ****** ******
   7  ****** ****** ****** ****** ****** ****** ****** ****** ****** ******
      ****** ****** ****** ****** ****** ****** ****** ****** ****** ******
      ****** ****** ****** ****** ****** ****** ****** ****** ****** ******
   8  ****** ****** ****** ****** ****** ****** ****** ****** ****** ******
      ****** ****** ****** ****** ****** ****** ****** ****** ****** ******
      ****** ****** ****** ****** ****** ****** ****** ****** ****** ******
   9  ****** ****** ****** ****** ****** ****** ****** ****** ****** ******
      ****** ****** ****** ****** ****** ****** ****** ****** ****** ******
      ****** ****** ****** ****** ****** ****** ****** ****** ****** ******
  10  ****** ****** ****** ****** ****** ****** ****** ****** ****** ******
      ****** ****** ****** ****** ****** ****** ****** ****** ****** ******
      ****** ****** ****** ****** ****** ****** ****** ****** ****** ******
  11  ****** ****** ****** ****** ****** ****** ****** ****** ****** ******
      ****** ****** ****** ****** ****** ****** ****** ****** ****** ******
      ****** ****** ****** ****** ****** ****** ****** ****** ****** ******
  12  ****** ****** ****** ****** ****** ****** ****** ****** ****** ******
      ****** ****** ****** ****** ****** ****** ****** ****** ****** ******
      ****** ****** ****** ****** ****** ****** ****** ****** ****** ******
  13  ****** ****** ****** ****** ****** ****** ****** ****** ****** ******
      ****** ****** ****** ****** ****** ****** ****** ****** ****** ******
      ****** ****** ****** ****** ****** ****** ****** ****** ****** ******
  14  ****** ****** ****** ****** ****** ****** ****** ****** ****** ******
      ****** ****** ****** ****** ****** ****** ****** ****** ****** ******
      ****** ****** ****** ****** ****** ****** ****** ****** ****** ******
  15  ****** ****** ****** ****** ****** ****** ****** ****** ****** ******
      ****** ****** ****** ****** ****** ****** ****** ****** ****** ******
      ****** ****** ****** ****** ****** ****** ****** ****** ****** ******
  16  ****** ****** ****** ****** ****** ****** ****** ****** ****** ******
      ****** ****** ****** ****** ****** ****** ****** ****** ****** ******
      ****** ****** ****** ****** ****** ****** ****** ****** ****** ******
  17  ****** ****** ****** ****** ****** ****** ****** ****** ****** ******
      ****** ****** ****** ****** ****** ****** ****** ****** ****** ******
      ****** ****** ****** ****** ****** ****** ****** ****** ****** ******
  18  ****** ****** ****** ****** ****** ****** ****** ****** ****** ******
      ****** ****** ****** ****** ****** ****** ****** ****** ****** ******
      ****** ****** ****** ****** ****** ****** ****** ****** ****** ******
  19  ****** ****** ****** ****** ****** ****** ****** ****** ****** ******
      ****** ****** ****** ****** ****** ****** ****** ****** ****** ******
      ****** ****** ****** ****** ****** ****** ****** ****** ****** ******
  20  ****** ****** ****** ****** ****** ****** ****** ****** ****** ******
      ****** ****** ****** ****** ****** ****** ****** ****** ****** ******
      ****** ****** ****** ****** ****** ****** ****** ****** ****** ******
  21  ****** ****** ****** ****** ****** ****** ****** ****** ****** ******
      ****** ****** ****** ****** ****** ****** ****** ****** ****** ******
      ****** ****** ****** ****** ****** ****** ****** ****** ****** ******
  22  ****** ****** ****** ****** ****** ****** ****** ****** ****** ******
      ****** ****** ****** ****** ****** ****** ****** ****** ****** ******
      ****** ****** ****** ****** ****** ****** ****** ****** ****** ******
  23  ****** ****** ****** ****** ****** ****** ****** ****** ****** ******
      ****** ****** ****** ****** ****** ****** ****** ****** ****** ******
      ****** ****** ****** ****** ****** ****** ****** ****** ****** ******
  24  ****** ****** ****** ****** ****** ****** ****** ****** ****** ******
      ****** ****** ****** ****** ****** ****** ****** ****** ****** ******
      ****** ****** ****** ****** ****** ****** ****** ****** ****** ******
  25  ****** ****** ****** ****** ****** ****** ****** ****** ****** ******
      ****** ****** ****** ****** ****** ****** ****** ****** ****** ******
      ****** ****** ****** ****** ****** ****** ****** ****** ****** ******

 HEAD WILL BE SAVED ON UNIT   51 AT END OF TIME STEP    1, STRESS PERIOD    4
1
  VOLUMETRIC BUDGET FOR ENTIRE MODEL AT END OF TIME STEP    1, STRESS PERIOD   4
  ------------------------------------------------------------------------------

     CUMULATIVE VOLUMES      L**3       RATES FOR THIS TIME STEP      L**3/T
     ------------------                 ------------------------

           IN:                                      IN:
           ---                                      ---
             STORAGE =    28162391.2277               STORAGE =       17172.8297
       CONSTANT HEAD =     7267222.4588         CONSTANT HEAD =       26883.8496
               WELLS =           0.0000                 WELLS =           0.0000
            RECHARGE =     8804400.0000              RECHARGE =       27600.0000
      STREAM LEAKAGE =     9176447.8869        STREAM LEAKAGE =       31564.2395

            TOTAL IN =    53410461.5734              TOTAL IN =      103220.9189

          OUT:                                     OUT:
          ----                                     ----
             STORAGE =         444.8307               STORAGE =           4.8882
       CONSTANT HEAD =           0.0000         CONSTANT HEAD =           0.0000
               WELLS =    15699170.5405                 WELLS =       43011.4261
            RECHARGE =           0.0000              RECHARGE =           0.0000
      STREAM LEAKAGE =    37710848.0966        STREAM LEAKAGE =       60204.6056

           TOTAL OUT =    53410463.4678             TOTAL OUT =      103220.9200

            IN - OUT =          -1.8945              IN - OUT =      -1.0938E-03

 PERCENT DISCREPANCY =          -0.00     PERCENT DISCREPANCY =          -0.00






         TIME SUMMARY AT END OF TIME STEP    1 IN STRESS PERIOD    4
                    SECONDS     MINUTES      HOURS       DAYS        YEARS
                    -----------------------------------------------------------
   TIME STEP LENGTH 7.86240E+06 1.31040E+05  2184.0      91.000     0.24914    
 STRESS PERIOD TIME 7.86240E+06 1.31040E+05  2184.0      91.000     0.24914    
         TOTAL TIME 3.15360E+07 5.25600E+05  8760.0      365.00     0.99932    
1
1
                            STRESS PERIOD NO.    5, LENGTH =   92.00000    
                            -----------------------------------------------

                              NUMBER OF TIME STEPS =     1

                               MULTIPLIER FOR DELT =     1.500

                            INITIAL TIME STEP SIZE =   92.00000    

 WELL NO.  LAYER   ROW   COL   STRESS RATE         
 --------------------------------------------------
      1      1     17     29     -0.1404E+05
      2      1     18     28     -0.1091E+05
      3      1     12     29      -8101.    
      4      1     19     29      -9959.    

      4 WELLS

                 RECHARGE =  5.000000E-04

 REUSING STREAM SEGMENT DATA FROM LAST STRESS PERIOD
 
 SOLVING FOR HEAD 


     7 CALLS TO PCG ROUTINE FOR TIME STEP   1 IN STRESS PERIOD    5
    26 TOTAL ITERATIONS

 OUTPUT CONTROL FOR STRESS PERIOD    5   TIME STEP    1
    SAVE BUDGET
    SAVE HEAD FOR ALL LAYERS
    PRINT HEAD FOR ALL LAYERS
 UBDSV2 SAVING "STREAMFLOW OUT  " ON UNIT  50 AT TIME STEP  1, STRESS PERIOD   5



 STREAM LISTING     PERIOD      5   STEP        1

 LAYER ROW COL. STREAM  RCH.  FLOW INTO     FLOW TO   FLOW OUT OF   OVRLND.     DIRECT     STREAM       STREAM     STREAM     STREAM   STREAMBED  STREAMBED
                SEG.NO.  NO.  STRM. RCH.    AQUIFER    STRM. RCH.    RUNOFF     PRECIP       ET          HEAD       DEPTH      WIDTH   CONDCTNC.   GRADIENT

   1   13    1     1     1    1.0000E+05 -2.1580E+03   1.0216E+05  0.000E+00  0.000E+00  0.000E+00  4.84070E+01  1.456E-01  2.000E+01  2.000E+04 -1.079E-01
   1   13    2     1     2    1.0216E+05 -3.1791E+03   1.0534E+05  0.000E+00  0.000E+00  0.000E+00  4.79320E+01  1.479E-01  2.000E+01  2.000E+04 -1.590E-01
   1   14    3     1     3    1.0534E+05 -5.1113E+02   1.0585E+05  0.000E+00  0.000E+00  0.000E+00  4.74563E+01  1.495E-01  2.000E+01  2.000E+04 -2.556E-02
   1   15    4     1     4    1.0585E+05 -4.7774E+02   1.0633E+05  0.000E+00  0.000E+00  0.000E+00  4.69794E+01  1.499E-01  2.000E+01  2.000E+04 -2.389E-02
   1   16    5     1     5    1.0633E+05 -1.7466E+03   1.0807E+05  0.000E+00  0.000E+00  0.000E+00  4.65031E+01  1.508E-01  2.000E+01  2.000E+04 -8.733E-02
   1   16    6     1     6    1.0807E+05 -1.1185E+03   1.0919E+05  0.000E+00  0.000E+00  0.000E+00  4.60270E+01  1.520E-01  2.000E+01  2.000E+04 -5.592E-02
   1   16    7     1     7    1.0919E+05 -1.1054E+03   1.1030E+05  0.000E+00  0.000E+00  0.000E+00  4.55507E+01  1.530E-01  2.000E+01  2.000E+04 -5.527E-02
   1   16    8     1     8    1.1030E+05 -1.1040E+03   1.1140E+05  0.000E+00  0.000E+00  0.000E+00  4.50743E+01  1.539E-01  2.000E+01  2.000E+04 -5.520E-02
   1   16    9     1     9    1.1140E+05 -1.0956E+03   1.1250E+05  0.000E+00  0.000E+00  0.000E+00  4.45980E+01  1.548E-01  2.000E+01  2.000E+04 -5.478E-02
   1   16   10     1    10    1.1250E+05 -1.0807E+03   1.1358E+05  0.000E+00  0.000E+00  0.000E+00  4.41216E+01  1.557E-01  2.000E+01  2.000E+04 -5.403E-02
   1   16   11     1    11    1.1358E+05 -1.0833E+03   1.1466E+05  0.000E+00  0.000E+00  0.000E+00  4.36452E+01  1.566E-01  2.000E+01  2.000E+04 -5.417E-02
   1   16   12     1    12    1.1466E+05 -1.8899E+03   1.1655E+05  0.000E+00  0.000E+00  0.000E+00  4.31692E+01  1.578E-01  2.000E+01  2.000E+04 -9.450E-02
   1   15   13     1    13    1.1655E+05 -1.8646E+03   1.1841E+05  0.000E+00  0.000E+00  0.000E+00  4.26934E+01  1.593E-01  2.000E+01  2.000E+04 -9.323E-02
   1   14   14     1    14    1.1841E+05 -2.1925E+03   1.2061E+05  0.000E+00  0.000E+00  0.000E+00  4.22178E+01  1.610E-01  2.000E+01  2.000E+04 -1.096E-01
   1   13   15     1    15    1.2061E+05 -2.5463E+03   1.2315E+05  0.000E+00  0.000E+00  0.000E+00  4.17424E+01  1.629E-01  2.000E+01  2.000E+04 -1.273E-01
   1   12   16     1    16    1.2315E+05 -3.2876E+03   1.2644E+05  0.000E+00  0.000E+00  0.000E+00  4.12675E+01  1.652E-01  2.000E+01  2.000E+04 -1.644E-01
   1   12   17     1    17    1.2644E+05 -2.1126E+03   1.2855E+05  0.000E+00  0.000E+00  0.000E+00  4.07923E+01  1.673E-01  2.000E+01  2.000E+04 -1.056E-01
   1   12   18     1    18    1.2855E+05 -2.0008E+03   1.3055E+05  0.000E+00  0.000E+00  0.000E+00  4.03167E+01  1.690E-01  2.000E+01  2.000E+04 -1.000E-01
   1   12   19     1    19    1.3055E+05 -2.5859E+03   1.3314E+05  0.000E+00  0.000E+00  0.000E+00  3.98412E+01  1.708E-01  2.000E+01  2.000E+04 -1.293E-01
   1   13   20     1    20    1.3314E+05 -1.8828E+03   1.3502E+05  0.000E+00  0.000E+00  0.000E+00  3.93657E+01  1.725E-01  2.000E+01  2.000E+04 -9.414E-02
   1   14   21     1    21    1.3502E+05 -1.6361E+03   1.3666E+05  0.000E+00  0.000E+00  0.000E+00  3.88897E+01  1.738E-01  2.000E+01  2.000E+04 -8.181E-02
   1   14   22     1    22    1.3666E+05  4.9486E+03   1.3171E+05  0.000E+00  0.000E+00  0.000E+00  3.84112E+01  1.726E-01  2.000E+01  2.000E+04  2.474E-01
   1    9   30     2     1    5.0000E+04  7.5183E+02   4.9248E+04  0.000E+00  0.000E+00  0.000E+00  4.02403E+01  1.153E-01  2.000E+01  2.000E+04  3.759E-02
   1    9   29     2     2    4.9248E+04  3.8976E+02   4.8858E+04  0.000E+00  0.000E+00  0.000E+00  3.99895E+01  1.145E-01  2.000E+01  2.000E+04  1.949E-02
   1    9   28     2     3    4.8858E+04 -2.1027E+02   4.9069E+04  0.000E+00  0.000E+00  0.000E+00  3.97394E+01  1.144E-01  2.000E+01  2.000E+04 -1.051E-02
   1    9   27     2     4    4.9069E+04 -1.9711E+03   5.1040E+04  0.000E+00  0.000E+00  0.000E+00  3.94909E+01  1.159E-01  2.000E+01  2.000E+04 -9.856E-02
   1   10   26     2     5    5.1040E+04 -6.2587E+02   5.1666E+04  0.000E+00  0.000E+00  0.000E+00  3.92427E+01  1.177E-01  2.000E+01  2.000E+04 -3.129E-02
   1   11   25     2     6    5.1666E+04 -6.7016E+02   5.2336E+04  0.000E+00  0.000E+00  0.000E+00  3.89936E+01  1.186E-01  2.000E+01  2.000E+04 -3.351E-02
   1   12   24     2     7    5.2336E+04 -1.2617E+03   5.3598E+04  0.000E+00  0.000E+00  0.000E+00  3.87449E+01  1.199E-01  2.000E+01  2.000E+04 -6.309E-02
   1   13   23     2     8    5.3598E+04 -2.3817E+02   5.3836E+04  0.000E+00  0.000E+00  0.000E+00  3.84960E+01  1.210E-01  2.000E+01  2.000E+04 -1.191E-02
   1   14   22     2     9    5.3836E+04  1.6250E+03   5.2211E+04  0.000E+00  0.000E+00  0.000E+00  3.82450E+01  1.200E-01  2.000E+01  2.000E+04  8.125E-02
   1   14   22     3     1    1.8392E+05 -8.6554E+03   1.9258E+05  0.000E+00  0.000E+00  0.000E+00  3.77310E+01  1.754E-01  2.000E+01  2.000E+04 -4.328E-01
   1   15   23     3     2    1.9258E+05 -5.0604E+02   1.9308E+05  0.000E+00  0.000E+00  0.000E+00  3.68447E+01  1.780E-01  2.000E+01  2.000E+04 -2.530E-02
   1   15   24     3     3    1.9308E+05 -2.2782E+02   1.9331E+05  0.000E+00  0.000E+00  0.000E+00  3.59560E+01  1.782E-01  2.000E+01  2.000E+04 -1.139E-02
   1   15   25     3     4    1.9331E+05 -1.8377E+02   1.9349E+05  0.000E+00  0.000E+00  0.000E+00  3.50672E+01  1.783E-01  2.000E+01  2.000E+04 -9.189E-03
   1   15   26     3     5    1.9349E+05 -2.2126E+01   1.9352E+05  0.000E+00  0.000E+00  0.000E+00  3.41784E+01  1.784E-01  2.000E+01  2.000E+04 -1.106E-03
   1   16   27     3     6    1.9352E+05  3.2796E+02   1.9319E+05  0.000E+00  0.000E+00  0.000E+00  3.32894E+01  1.783E-01  2.000E+01  2.000E+04  1.640E-02
   1   17   28     3     7    1.9319E+05  1.0482E+04   1.8271E+05  0.000E+00  0.000E+00  0.000E+00  3.23975E+01  1.753E-01  2.000E+01  2.000E+04  5.241E-01
   1   18   29     3     8    1.8271E+05  1.1995E+04   1.7071E+05  0.000E+00  0.000E+00  0.000E+00  3.15022E+01  1.689E-01  2.000E+01  2.000E+04  5.997E-01
   1   18   30     3     9    1.7071E+05  2.7728E+03   1.6794E+05  0.000E+00  0.000E+00  0.000E+00  3.06091E+01  1.646E-01  2.000E+01  2.000E+04  1.386E-01



1
              HEAD IN LAYER   1 AT END OF TIME STEP   1 IN STRESS PERIOD    5
  ---------------------------------------------------------------------------

          1      2      3      4      5      6      7      8      9     10
         11     12     13     14     15     16     17     18     19     20
         21     22     23     24     25     26     27     28     29     30
 .........................................................................
   1  ****** ****** ****** ****** ****** ****** ****** ****** ****** ******
      ****** ****** ****** ****** ****** ****** ****** ****** ****** ******
      ****** ****** ****** ****** ****** ****** ****** ****** ****** ******
   2  ****** ****** ****** ****** ****** ****** ****** ****** ****** ******
      ****** ****** ****** ****** ****** ****** ****** ****** ****** ******
      ****** ****** ****** ****** ****** ****** ****** ****** ****** ******
   3  ****** ****** ****** ****** ****** ****** ****** ****** ****** ******
      ****** ****** ****** ****** ****** ****** ****** ****** ****** ******
      ****** ****** ****** ****** ****** ****** ****** ****** ****** ******
   4  ****** ****** ****** ****** ****** ****** ****** ****** ****** ******
      ****** ****** ****** ****** ****** ****** ****** ****** ****** ******
      ****** ****** ****** ****** ****** ****** ****** ****** ****** ******
   5  ****** ****** ****** ****** ****** ****** ****** ****** ****** ******
      ****** ****** ****** ****** ****** ****** ****** ****** ****** ******
      ****** ****** ****** ****** ****** ****** ****** ****** ****** ******
   6  ****** ****** ****** ****** ****** ****** ****** ****** ****** ******
      ****** ****** ****** ****** ****** ****** ****** ****** ****** ******
      ****** ****** ****** ****** ****** ****** ****** ****** ****** ******
   7  ****** ****** ****** ****** ****** ****** ****** ****** ****** ******
      ****** ****** ****** ****** ****** ****** ****** ****** ****** ******
      ****** ****** ****** ****** ****** ****** ****** ****** ****** ******
   8  ****** ****** ****** ****** ****** ****** ****** ****** ****** ******
      ****** ****** ****** ****** ****** ****** ****** ****** ****** ******
      ****** ****** ****** ****** ****** ****** ****** ****** ****** ******
   9  ****** ****** ****** ****** ****** ****** ****** ****** ****** ******
      ****** ****** ****** ****** ****** ****** ****** ****** ****** ******
      ****** ****** ****** ****** ****** ****** ****** ****** ****** ******
  10  ****** ****** ****** ****** ****** ****** ****** ****** ****** ******
      ****** ****** ****** ****** ****** ****** ****** ****** ****** ******
      ****** ****** ****** ****** ****** ****** ****** ****** ****** ******
  11  ****** ****** ****** ****** ****** ****** ****** ****** ****** ******
      ****** ****** ****** ****** ****** ****** ****** ****** ****** ******
      ****** ****** ****** ****** ****** ****** ****** ****** ****** ******
  12  ****** ****** ****** ****** ****** ****** ****** ****** ****** ******
      ****** ****** ****** ****** ****** ****** ****** ****** ****** ******
      ****** ****** ****** ****** ****** ****** ****** ****** ****** ******
  13  ****** ****** ****** ****** ****** ****** ****** ****** ****** ******
      ****** ****** ****** ****** ****** ****** ****** ****** ****** ******
      ****** ****** ****** ****** ****** ****** ****** ****** ****** ******
  14  ****** ****** ****** ****** ****** ****** ****** ****** ****** ******
      ****** ****** ****** ****** ****** ****** ****** ****** ****** ******
      ****** ****** ****** ****** ****** ****** ****** ****** ****** ******
  15  ****** ****** ****** ****** ****** ****** ****** ****** ****** ******
      ****** ****** ****** ****** ****** ****** ****** ****** ****** ******
      ****** ****** ****** ****** ****** ****** ****** ****** ****** ******
  16  ****** ****** ****** ****** ****** ****** ****** ****** ****** ******
      ****** ****** ****** ****** ****** ****** ****** ****** ****** ******
      ****** ****** ****** ****** ****** ****** ****** ****** ****** ******
  17  ****** ****** ****** ****** ****** ****** ****** ****** ****** ******
      ****** ****** ****** ****** ****** ****** ****** ****** ****** ******
      ****** ****** ****** ****** ****** ****** ****** ****** ****** ******
  18  ****** ****** ****** ****** ****** ****** ****** ****** ****** ******
      ****** ****** ****** ****** ****** ****** ****** ****** ****** ******
      ****** ****** ****** ****** ****** ****** ****** ****** ****** ******
  19  ****** ****** ****** ****** ****** ****** ****** ****** ****** ******
      ****** ****** ****** ****** ****** ****** ****** ****** ****** ******
      ****** ****** ****** ****** ****** ****** ****** ****** ****** ******
  20  ****** ****** ****** ****** ****** ****** ****** ****** ****** ******
      ****** ****** ****** ****** ****** ****** ****** ****** ****** ******
      ****** ****** ****** ****** ****** ****** ****** ****** ****** ******
  21  ****** ****** ****** ****** ****** ****** ****** ****** ****** ******
      ****** ****** ****** ****** ****** ****** ****** ****** ****** ******
      ****** ****** ****** ****** ****** ****** ****** ****** ****** ******
  22  ****** ****** ****** ****** ****** ****** ****** ****** ****** ******
      ****** ****** ****** ****** ****** ****** ****** ****** ****** ******
      ****** ****** ****** ****** ****** ****** ****** ****** ****** ******
  23  ****** ****** ****** ****** ****** ****** ****** ****** ****** ******
      ****** ****** ****** ****** ****** ****** ****** ****** ****** ******
      ****** ****** ****** ****** ****** ****** ****** ****** ****** ******
  24  ****** ****** ****** ****** ****** ****** ****** ****** ****** ******
      ****** ****** ****** ****** ****** ****** ****** ****** ****** ******
      ****** ****** ****** ****** ****** ****** ****** ****** ****** ******
  25  ****** ****** ****** ****** ****** ****** ****** ****** ****** ******
      ****** ****** ****** ****** ****** ****** ****** ****** ****** ******
      ****** ****** ****** ****** ****** ****** ****** ****** ****** ******

 HEAD WILL BE SAVED ON UNIT   51 AT END OF TIME STEP    1, STRESS PERIOD    5
1
  VOLUMETRIC BUDGET FOR ENTIRE MODEL AT END OF TIME STEP    1, STRESS PERIOD   5
  ------------------------------------------------------------------------------

     CUMULATIVE VOLUMES      L**3       RATES FOR THIS TIME STEP      L**3/T
     ------------------                 ------------------------

           IN:                                      IN:
           ---                                      ---
             STORAGE =    29769056.0415               STORAGE =       17463.7480
       CONSTANT HEAD =     9998330.8338         CONSTANT HEAD =       29685.9606
               WELLS =           0.0000                 WELLS =           0.0000
            RECHARGE =    10074000.0000              RECHARGE =       13800.0000
      STREAM LEAKAGE =    12239421.8324        STREAM LEAKAGE =       33293.1951

            TOTAL IN =    62080808.7077              TOTAL IN =       94242.9036

          OUT:                                     OUT:
          ----                                     ----
             STORAGE =         444.8307               STORAGE =           0.0000
       CONSTANT HEAD =           0.0000         CONSTANT HEAD =           0.0000
               WELLS =    19656221.7452                 WELLS =       43011.4261
            RECHARGE =           0.0000              RECHARGE =           0.0000
      STREAM LEAKAGE =    42424144.2813        STREAM LEAKAGE =       51231.4803

           TOTAL OUT =    62080810.8573             TOTAL OUT =       94242.9064

            IN - OUT =          -2.1496              IN - OUT =      -2.7730E-03

 PERCENT DISCREPANCY =          -0.00     PERCENT DISCREPANCY =          -0.00






         TIME SUMMARY AT END OF TIME STEP    1 IN STRESS PERIOD    5
                    SECONDS     MINUTES      HOURS       DAYS        YEARS
                    -----------------------------------------------------------
   TIME STEP LENGTH 7.94880E+06 1.32480E+05  2208.0      92.000     0.25188    
 STRESS PERIOD TIME 7.94880E+06 1.32480E+05  2208.0      92.000     0.25188    
         TOTAL TIME 3.94848E+07 6.58080E+05  10968.      457.00      1.2512    
1
1
                            STRESS PERIOD NO.    6, LENGTH =   91.00000    
                            -----------------------------------------------

                              NUMBER OF TIME STEPS =     1

                               MULTIPLIER FOR DELT =     1.500

                            INITIAL TIME STEP SIZE =   91.00000    

 WELL NO.  LAYER   ROW   COL   STRESS RATE         
 --------------------------------------------------
      1      1     17     29     -0.1404E+05
      2      1     18     28     -0.1091E+05
      3      1     12     29      -8101.    
      4      1     19     29      -9959.    

      4 WELLS

                 RECHARGE =  2.000000E-03

 REUSING STREAM SEGMENT DATA FROM LAST STRESS PERIOD
 
 SOLVING FOR HEAD 


     7 CALLS TO PCG ROUTINE FOR TIME STEP   1 IN STRESS PERIOD    6
    26 TOTAL ITERATIONS

 OUTPUT CONTROL FOR STRESS PERIOD    6   TIME STEP    1
    SAVE BUDGET
    SAVE HEAD FOR ALL LAYERS
    PRINT HEAD FOR ALL LAYERS
 UBDSV2 SAVING "STREAMFLOW OUT  " ON UNIT  50 AT TIME STEP  1, STRESS PERIOD   6



 STREAM LISTING     PERIOD      6   STEP        1

 LAYER ROW COL. STREAM  RCH.  FLOW INTO     FLOW TO   FLOW OUT OF   OVRLND.     DIRECT     STREAM       STREAM     STREAM     STREAM   STREAMBED  STREAMBED
                SEG.NO.  NO.  STRM. RCH.    AQUIFER    STRM. RCH.    RUNOFF     PRECIP       ET          HEAD       DEPTH      WIDTH   CONDCTNC.   GRADIENT

   1   13    1     1     1    1.0000E+05 -2.4838E+03   1.0248E+05  0.000E+00  0.000E+00  0.000E+00  4.84071E+01  1.457E-01  2.000E+01  2.000E+04 -1.242E-01
   1   13    2     1     2    1.0248E+05 -3.5363E+03   1.0602E+05  0.000E+00  0.000E+00  0.000E+00  4.79324E+01  1.483E-01  2.000E+01  2.000E+04 -1.768E-01
   1   14    3     1     3    1.0602E+05 -6.6772E+02   1.0669E+05  0.000E+00  0.000E+00  0.000E+00  4.74569E+01  1.501E-01  2.000E+01  2.000E+04 -3.339E-02
   1   15    4     1     4    1.0669E+05 -6.4553E+02   1.0733E+05  0.000E+00  0.000E+00  0.000E+00  4.69802E+01  1.507E-01  2.000E+01  2.000E+04 -3.228E-02
   1   16    5     1     5    1.0733E+05 -2.2460E+03   1.0958E+05  0.000E+00  0.000E+00  0.000E+00  4.65041E+01  1.519E-01  2.000E+01  2.000E+04 -1.123E-01
   1   16    6     1     6    1.0958E+05 -1.4119E+03   1.1099E+05  0.000E+00  0.000E+00  0.000E+00  4.60284E+01  1.534E-01  2.000E+01  2.000E+04 -7.059E-02
   1   16    7     1     7    1.1099E+05 -1.3837E+03   1.1237E+05  0.000E+00  0.000E+00  0.000E+00  4.55523E+01  1.546E-01  2.000E+01  2.000E+04 -6.918E-02
   1   16    8     1     8    1.1237E+05 -1.3778E+03   1.1375E+05  0.000E+00  0.000E+00  0.000E+00  4.50762E+01  1.557E-01  2.000E+01  2.000E+04 -6.889E-02
   1   16    9     1     9    1.1375E+05 -1.3689E+03   1.1512E+05  0.000E+00  0.000E+00  0.000E+00  4.46000E+01  1.568E-01  2.000E+01  2.000E+04 -6.845E-02
   1   16   10     1    10    1.1512E+05 -1.3554E+03   1.1648E+05  0.000E+00  0.000E+00  0.000E+00  4.41239E+01  1.580E-01  2.000E+01  2.000E+04 -6.777E-02
   1   16   11     1    11    1.1648E+05 -1.3611E+03   1.1784E+05  0.000E+00  0.000E+00  0.000E+00  4.36477E+01  1.591E-01  2.000E+01  2.000E+04 -6.806E-02
   1   16   12     1    12    1.1784E+05 -2.3395E+03   1.2018E+05  0.000E+00  0.000E+00  0.000E+00  4.31719E+01  1.606E-01  2.000E+01  2.000E+04 -1.170E-01
   1   15   13     1    13    1.2018E+05 -2.3270E+03   1.2250E+05  0.000E+00  0.000E+00  0.000E+00  4.26965E+01  1.625E-01  2.000E+01  2.000E+04 -1.163E-01
   1   14   14     1    14    1.2250E+05 -2.6525E+03   1.2516E+05  0.000E+00  0.000E+00  0.000E+00  4.22213E+01  1.644E-01  2.000E+01  2.000E+04 -1.326E-01
   1   13   15     1    15    1.2516E+05 -2.9892E+03   1.2815E+05  0.000E+00  0.000E+00  0.000E+00  4.17462E+01  1.667E-01  2.000E+01  2.000E+04 -1.495E-01
   1   12   16     1    16    1.2815E+05 -3.6892E+03   1.3184E+05  0.000E+00  0.000E+00  0.000E+00  4.12716E+01  1.693E-01  2.000E+01  2.000E+04 -1.845E-01
   1   12   17     1    17    1.3184E+05 -2.4358E+03   1.3427E+05  0.000E+00  0.000E+00  0.000E+00  4.07967E+01  1.717E-01  2.000E+01  2.000E+04 -1.218E-01
   1   12   18     1    18    1.3427E+05 -2.3267E+03   1.3660E+05  0.000E+00  0.000E+00  0.000E+00  4.03213E+01  1.735E-01  2.000E+01  2.000E+04 -1.163E-01
   1   12   19     1    19    1.3660E+05 -2.9912E+03   1.3959E+05  0.000E+00  0.000E+00  0.000E+00  3.98460E+01  1.756E-01  2.000E+01  2.000E+04 -1.496E-01
   1   13   20     1    20    1.3959E+05 -2.3098E+03   1.4190E+05  0.000E+00  0.000E+00  0.000E+00  3.93708E+01  1.776E-01  2.000E+01  2.000E+04 -1.155E-01
   1   14   21     1    21    1.4190E+05 -2.0491E+03   1.4395E+05  0.000E+00  0.000E+00  0.000E+00  3.88951E+01  1.792E-01  2.000E+01  2.000E+04 -1.025E-01
   1   14   22     1    22    1.4395E+05  4.8393E+03   1.3911E+05  0.000E+00  0.000E+00  0.000E+00  3.84168E+01  1.782E-01  2.000E+01  2.000E+04  2.420E-01
   1    9   30     2     1    5.0000E+04  3.8478E+02   4.9615E+04  0.000E+00  0.000E+00  0.000E+00  4.02406E+01  1.156E-01  2.000E+01  2.000E+04  1.924E-02
   1    9   29     2     2    4.9615E+04  2.6823E+01   4.9588E+04  0.000E+00  0.000E+00  0.000E+00  3.99903E+01  1.153E-01  2.000E+01  2.000E+04  1.341E-03
   1    9   28     2     3    4.9588E+04 -5.6716E+02   5.0156E+04  0.000E+00  0.000E+00  0.000E+00  3.97407E+01  1.157E-01  2.000E+01  2.000E+04 -2.836E-02
   1    9   27     2     4    5.0156E+04 -2.4259E+03   5.2581E+04  0.000E+00  0.000E+00  0.000E+00  3.94928E+01  1.178E-01  2.000E+01  2.000E+04 -1.213E-01
   1   10   26     2     5    5.2581E+04 -1.1026E+03   5.3684E+04  0.000E+00  0.000E+00  0.000E+00  3.92452E+01  1.202E-01  2.000E+01  2.000E+04 -5.513E-02
   1   11   25     2     6    5.3684E+04 -1.1315E+03   5.4816E+04  0.000E+00  0.000E+00  0.000E+00  3.89967E+01  1.217E-01  2.000E+01  2.000E+04 -5.658E-02
   1   12   24     2     7    5.4816E+04 -1.6781E+03   5.6494E+04  0.000E+00  0.000E+00  0.000E+00  3.87486E+01  1.236E-01  2.000E+01  2.000E+04 -8.391E-02
   1   13   23     2     8    5.6494E+04 -3.7698E+02   5.6871E+04  0.000E+00  0.000E+00  0.000E+00  3.84999E+01  1.249E-01  2.000E+01  2.000E+04 -1.885E-02
   1   14   22     2     9    5.6871E+04  1.4869E+03   5.5384E+04  0.000E+00  0.000E+00  0.000E+00  3.82492E+01  1.242E-01  2.000E+01  2.000E+04  7.435E-02
   1   14   22     3     1    1.9449E+05 -8.7593E+03   2.0325E+05  0.000E+00  0.000E+00  0.000E+00  3.77369E+01  1.813E-01  2.000E+01  2.000E+04 -4.380E-01
   1   15   23     3     2    2.0325E+05 -6.4283E+02   2.0389E+05  0.000E+00  0.000E+00  0.000E+00  3.68505E+01  1.839E-01  2.000E+01  2.000E+04 -3.214E-02
   1   15   24     3     3    2.0389E+05 -3.4911E+02   2.0424E+05  0.000E+00  0.000E+00  0.000E+00  3.59619E+01  1.841E-01  2.000E+01  2.000E+04 -1.746E-02
   1   15   25     3     4    2.0424E+05 -3.0939E+02   2.0455E+05  0.000E+00  0.000E+00  0.000E+00  3.50732E+01  1.843E-01  2.000E+01  2.000E+04 -1.547E-02
   1   15   26     3     5    2.0455E+05 -1.7269E+02   2.0473E+05  0.000E+00  0.000E+00  0.000E+00  3.41845E+01  1.845E-01  2.000E+01  2.000E+04 -8.635E-03
   1   16   27     3     6    2.0473E+05  1.6050E+02   2.0457E+05  0.000E+00  0.000E+00  0.000E+00  3.32956E+01  1.845E-01  2.000E+01  2.000E+04  8.025E-03
   1   17   28     3     7    2.0457E+05  1.0024E+04   1.9454E+05  0.000E+00  0.000E+00  0.000E+00  3.24039E+01  1.817E-01  2.000E+01  2.000E+04  5.012E-01
   1   18   29     3     8    1.9454E+05  1.1564E+04   1.8298E+05  0.000E+00  0.000E+00  0.000E+00  3.15091E+01  1.757E-01  2.000E+01  2.000E+04  5.782E-01
   1   18   30     3     9    1.8298E+05  2.4221E+03   1.8056E+05  0.000E+00  0.000E+00  0.000E+00  3.06162E+01  1.718E-01  2.000E+01  2.000E+04  1.211E-01



1
              HEAD IN LAYER   1 AT END OF TIME STEP   1 IN STRESS PERIOD    6
  ---------------------------------------------------------------------------

          1      2      3      4      5      6      7      8      9     10
         11     12     13     14     15     16     17     18     19     20
         21     22     23     24     25     26     27     28     29     30
 .........................................................................
   1  ****** ****** ****** ****** ****** ****** ****** ****** ****** ******
      ****** ****** ****** ****** ****** ****** ****** ****** ****** ******
      ****** ****** ****** ****** ****** ****** ****** ****** ****** ******
   2  ****** ****** ****** ****** ****** ****** ****** ****** ****** ******
      ****** ****** ****** ****** ****** ****** ****** ****** ****** ******
      ****** ****** ****** ****** ****** ****** ****** ****** ****** ******
   3  ****** ****** ****** ****** ****** ****** ****** ****** ****** ******
      ****** ****** ****** ****** ****** ****** ****** ****** ****** ******
      ****** ****** ****** ****** ****** ****** ****** ****** ****** ******
   4  ****** ****** ****** ****** ****** ****** ****** ****** ****** ******
      ****** ****** ****** ****** ****** ****** ****** ****** ****** ******
      ****** ****** ****** ****** ****** ****** ****** ****** ****** ******
   5  ****** ****** ****** ****** ****** ****** ****** ****** ****** ******
      ****** ****** ****** ****** ****** ****** ****** ****** ****** ******
      ****** ****** ****** ****** ****** ****** ****** ****** ****** ******
   6  ****** ****** ****** ****** ****** ****** ****** ****** ****** ******
      ****** ****** ****** ****** ****** ****** ****** ****** ****** ******
      ****** ****** ****** ****** ****** ****** ****** ****** ****** ******
   7  ****** ****** ****** ****** ****** ****** ****** ****** ****** ******
      ****** ****** ****** ****** ****** ****** ****** ****** ****** ******
      ****** ****** ****** ****** ****** ****** ****** ****** ****** ******
   8  ****** ****** ****** ****** ****** ****** ****** ****** ****** ******
      ****** ****** ****** ****** ****** ****** ****** ****** ****** ******
      ****** ****** ****** ****** ****** ****** ****** ****** ****** ******
   9  ****** ****** ****** ****** ****** ****** ****** ****** ****** ******
      ****** ****** ****** ****** ****** ****** ****** ****** ****** ******
      ****** ****** ****** ****** ****** ****** ****** ****** ****** ******
  10  ****** ****** ****** ****** ****** ****** ****** ****** ****** ******
      ****** ****** ****** ****** ****** ****** ****** ****** ****** ******
      ****** ****** ****** ****** ****** ****** ****** ****** ****** ******
  11  ****** ****** ****** ****** ****** ****** ****** ****** ****** ******
      ****** ****** ****** ****** ****** ****** ****** ****** ****** ******
      ****** ****** ****** ****** ****** ****** ****** ****** ****** ******
  12  ****** ****** ****** ****** ****** ****** ****** ****** ****** ******
      ****** ****** ****** ****** ****** ****** ****** ****** ****** ******
      ****** ****** ****** ****** ****** ****** ****** ****** ****** ******
  13  ****** ****** ****** ****** ****** ****** ****** ****** ****** ******
      ****** ****** ****** ****** ****** ****** ****** ****** ****** ******
      ****** ****** ****** ****** ****** ****** ****** ****** ****** ******
  14  ****** ****** ****** ****** ****** ****** ****** ****** ****** ******
      ****** ****** ****** ****** ****** ****** ****** ****** ****** ******
      ****** ****** ****** ****** ****** ****** ****** ****** ****** ******
  15  ****** ****** ****** ****** ****** ****** ****** ****** ****** ******
      ****** ****** ****** ****** ****** ****** ****** ****** ****** ******
      ****** ****** ****** ****** ****** ****** ****** ****** ****** ******
  16  ****** ****** ****** ****** ****** ****** ****** ****** ****** ******
      ****** ****** ****** ****** ****** ****** ****** ****** ****** ******
      ****** ****** ****** ****** ****** ****** ****** ****** ****** ******
  17  ****** ****** ****** ****** ****** ****** ****** ****** ****** ******
      ****** ****** ****** ****** ****** ****** ****** ****** ****** ******
      ****** ****** ****** ****** ****** ****** ****** ****** ****** ******
  18  ****** ****** ****** ****** ****** ****** ****** ****** ****** ******
      ****** ****** ****** ****** ****** ****** ****** ****** ****** ******
      ****** ****** ****** ****** ****** ****** ****** ****** ****** ******
  19  ****** ****** ****** ****** ****** ****** ****** ****** ****** ******
      ****** ****** ****** ****** ****** ****** ****** ****** ****** ******
      ****** ****** ****** ****** ****** ****** ****** ****** ****** ******
  20  ****** ****** ****** ****** ****** ****** ****** ****** ****** ******
      ****** ****** ****** ****** ****** ****** ****** ****** ****** ******
      ****** ****** ****** ****** ****** ****** ****** ****** ****** ******
  21  ****** ****** ****** ****** ****** ****** ****** ****** ****** ******
      ****** ****** ****** ****** ****** ****** ****** ****** ****** ******
      ****** ****** ****** ****** ****** ****** ****** ****** ****** ******
  22  ****** ****** ****** ****** ****** ****** ****** ****** ****** ******
      ****** ****** ****** ****** ****** ****** ****** ****** ****** ******
      ****** ****** ****** ****** ****** ****** ****** ****** ****** ******
  23  ****** ****** ****** ****** ****** ****** ****** ****** ****** ******
      ****** ****** ****** ****** ****** ****** ****** ****** ****** ******
      ****** ****** ****** ****** ****** ****** ****** ****** ****** ******
  24  ****** ****** ****** ****** ****** ****** ****** ****** ****** ******
      ****** ****** ****** ****** ****** ****** ****** ****** ****** ******
      ****** ****** ****** ****** ****** ****** ****** ****** ****** ******
  25  ****** ****** ****** ****** ****** ****** ****** ****** ****** ******
      ****** ****** ****** ****** ****** ****** ****** ****** ****** ******
      ****** ****** ****** ****** ****** ****** ****** ****** ****** ******

 HEAD WILL BE SAVED ON UNIT   51 AT END OF TIME STEP    1, STRESS PERIOD    6
1
  VOLUMETRIC BUDGET FOR ENTIRE MODEL AT END OF TIME STEP    1, STRESS PERIOD   6
  ------------------------------------------------------------------------------

     CUMULATIVE VOLUMES      L**3       RATES FOR THIS TIME STEP      L**3/T
     ------------------                 ------------------------

           IN:                                      IN:
           ---                                      ---
             STORAGE =    29769056.0415               STORAGE =           0.0000
       CONSTANT HEAD =    12519356.6660         CONSTANT HEAD =       27703.5806
               WELLS =           0.0000                 WELLS =           0.0000
            RECHARGE =    15097200.0000              RECHARGE =       55200.0000
      STREAM LEAKAGE =    15052038.6334        STREAM LEAKAGE =       30907.8769

            TOTAL IN =    72437651.3409              TOTAL IN =      113811.4575

          OUT:                                     OUT:
          ----                                     ----
             STORAGE =      850038.7121               STORAGE =        9336.1965
       CONSTANT HEAD =           0.0000         CONSTANT HEAD =           0.0000
               WELLS =    23570261.5238                 WELLS =       43011.4261
            RECHARGE =           0.0000              RECHARGE =           0.0000
      STREAM LEAKAGE =    48017353.0076        STREAM LEAKAGE =       61463.8322

           TOTAL OUT =    72437653.2436             TOTAL OUT =      113811.4548

            IN - OUT =          -1.9027              IN - OUT =       2.7132E-03

 PERCENT DISCREPANCY =          -0.00     PERCENT DISCREPANCY =           0.00






         TIME SUMMARY AT END OF TIME STEP    1 IN STRESS PERIOD    6
                    SECONDS     MINUTES      HOURS       DAYS        YEARS
                    -----------------------------------------------------------
   TIME STEP LENGTH 7.86240E+06 1.31040E+05  2184.0      91.000     0.24914    
 STRESS PERIOD TIME 7.86240E+06 1.31040E+05  2184.0      91.000     0.24914    
         TOTAL TIME 4.73472E+07 7.89120E+05  13152.      548.00      1.5003    
1
1
                            STRESS PERIOD NO.    7, LENGTH =   91.00000    
                            -----------------------------------------------

                              NUMBER OF TIME STEPS =     1

                               MULTIPLIER FOR DELT =     1.500

                            INITIAL TIME STEP SIZE =   91.00000    

 WELL NO.  LAYER   ROW   COL   STRESS RATE         
 --------------------------------------------------
      1      1     17     29     -0.1404E+05
      2      1     18     28     -0.1091E+05
      3      1     12     29      -8101.    
      4      1     19     29      -9959.    

      4 WELLS

                 RECHARGE =   0.00000    

 REUSING STREAM SEGMENT DATA FROM LAST STRESS PERIOD
 
 SOLVING FOR HEAD 


     7 CALLS TO PCG ROUTINE FOR TIME STEP   1 IN STRESS PERIOD    7
    26 TOTAL ITERATIONS

 OUTPUT CONTROL FOR STRESS PERIOD    7   TIME STEP    1
    SAVE BUDGET
    SAVE HEAD FOR ALL LAYERS
    PRINT HEAD FOR ALL LAYERS
 UBDSV2 SAVING "STREAMFLOW OUT  " ON UNIT  50 AT TIME STEP  1, STRESS PERIOD   7



 STREAM LISTING     PERIOD      7   STEP        1

 LAYER ROW COL. STREAM  RCH.  FLOW INTO     FLOW TO   FLOW OUT OF   OVRLND.     DIRECT     STREAM       STREAM     STREAM     STREAM   STREAMBED  STREAMBED
                SEG.NO.  NO.  STRM. RCH.    AQUIFER    STRM. RCH.    RUNOFF     PRECIP       ET          HEAD       DEPTH      WIDTH   CONDCTNC.   GRADIENT

   1   13    1     1     1    1.0000E+05 -1.8269E+03   1.0183E+05  0.000E+00  0.000E+00  0.000E+00  4.84068E+01  1.454E-01  2.000E+01  2.000E+04 -9.134E-02
   1   13    2     1     2    1.0183E+05 -2.8015E+03   1.0463E+05  0.000E+00  0.000E+00  0.000E+00  4.79315E+01  1.474E-01  2.000E+01  2.000E+04 -1.401E-01
   1   14    3     1     3    1.0463E+05 -4.1722E+02   1.0505E+05  0.000E+00  0.000E+00  0.000E+00  4.74556E+01  1.488E-01  2.000E+01  2.000E+04 -2.086E-02
   1   15    4     1     4    1.0505E+05 -3.8402E+02   1.0543E+05  0.000E+00  0.000E+00  0.000E+00  4.69787E+01  1.492E-01  2.000E+01  2.000E+04 -1.920E-02
   1   16    5     1     5    1.0543E+05 -1.4946E+03   1.0692E+05  0.000E+00  0.000E+00  0.000E+00  4.65022E+01  1.499E-01  2.000E+01  2.000E+04 -7.473E-02
   1   16    6     1     6    1.0692E+05 -9.5904E+02   1.0788E+05  0.000E+00  0.000E+00  0.000E+00  4.60260E+01  1.510E-01  2.000E+01  2.000E+04 -4.795E-02
   1   16    7     1     7    1.0788E+05 -9.4927E+02   1.0883E+05  0.000E+00  0.000E+00  0.000E+00  4.55495E+01  1.518E-01  2.000E+01  2.000E+04 -4.746E-02
   1   16    8     1     8    1.0883E+05 -9.4932E+02   1.0978E+05  0.000E+00  0.000E+00  0.000E+00  4.50730E+01  1.526E-01  2.000E+01  2.000E+04 -4.747E-02
   1   16    9     1     9    1.0978E+05 -9.4348E+02   1.1073E+05  0.000E+00  0.000E+00  0.000E+00  4.45966E+01  1.534E-01  2.000E+01  2.000E+04 -4.717E-02
   1   16   10     1    10    1.1073E+05 -9.3226E+02   1.1166E+05  0.000E+00  0.000E+00  0.000E+00  4.41201E+01  1.542E-01  2.000E+01  2.000E+04 -4.661E-02
   1   16   11     1    11    1.1166E+05 -9.3646E+02   1.1259E+05  0.000E+00  0.000E+00  0.000E+00  4.36436E+01  1.549E-01  2.000E+01  2.000E+04 -4.682E-02
   1   16   12     1    12    1.1259E+05 -1.6263E+03   1.1422E+05  0.000E+00  0.000E+00  0.000E+00  4.31674E+01  1.560E-01  2.000E+01  2.000E+04 -8.131E-02
   1   15   13     1    13    1.1422E+05 -1.5640E+03   1.1578E+05  0.000E+00  0.000E+00  0.000E+00  4.26914E+01  1.573E-01  2.000E+01  2.000E+04 -7.820E-02
   1   14   14     1    14    1.1578E+05 -1.8636E+03   1.1765E+05  0.000E+00  0.000E+00  0.000E+00  4.22155E+01  1.587E-01  2.000E+01  2.000E+04 -9.318E-02
   1   13   15     1    15    1.1765E+05 -2.2001E+03   1.1985E+05  0.000E+00  0.000E+00  0.000E+00  4.17399E+01  1.604E-01  2.000E+01  2.000E+04 -1.100E-01
   1   12   16     1    16    1.1985E+05 -2.9096E+03   1.2276E+05  0.000E+00  0.000E+00  0.000E+00  4.12647E+01  1.624E-01  2.000E+01  2.000E+04 -1.455E-01
   1   12   17     1    17    1.2276E+05 -1.8664E+03   1.2462E+05  0.000E+00  0.000E+00  0.000E+00  4.07893E+01  1.643E-01  2.000E+01  2.000E+04 -9.332E-02
   1   12   18     1    18    1.2462E+05 -1.7706E+03   1.2639E+05  0.000E+00  0.000E+00  0.000E+00  4.03135E+01  1.658E-01  2.000E+01  2.000E+04 -8.853E-02
   1   12   19     1    19    1.2639E+05 -2.3118E+03   1.2871E+05  0.000E+00  0.000E+00  0.000E+00  3.98378E+01  1.674E-01  2.000E+01  2.000E+04 -1.156E-01
   1   13   20     1    20    1.2871E+05 -1.6439E+03   1.3035E+05  0.000E+00  0.000E+00  0.000E+00  3.93621E+01  1.689E-01  2.000E+01  2.000E+04 -8.220E-02
   1   14   21     1    21    1.3035E+05 -1.3893E+03   1.3174E+05  0.000E+00  0.000E+00  0.000E+00  3.88860E+01  1.701E-01  2.000E+01  2.000E+04 -6.947E-02
   1   14   22     1    22    1.3174E+05  5.0005E+03   1.2674E+05  0.000E+00  0.000E+00  0.000E+00  3.84074E+01  1.687E-01  2.000E+01  2.000E+04  2.500E-01
   1    9   30     2     1    5.0000E+04  8.9619E+02   4.9104E+04  0.000E+00  0.000E+00  0.000E+00  4.02402E+01  1.152E-01  2.000E+01  2.000E+04  4.481E-02
   1    9   29     2     2    4.9104E+04  5.3628E+02   4.8568E+04  0.000E+00  0.000E+00  0.000E+00  3.99892E+01  1.142E-01  2.000E+01  2.000E+04  2.681E-02
   1    9   28     2     3    4.8568E+04 -5.6781E+01   4.8624E+04  0.000E+00  0.000E+00  0.000E+00  3.97389E+01  1.139E-01  2.000E+01  2.000E+04 -2.839E-03
   1    9   27     2     4    4.8624E+04 -1.7343E+03   5.0359E+04  0.000E+00  0.000E+00  0.000E+00  3.94902E+01  1.152E-01  2.000E+01  2.000E+04 -8.671E-02
   1   10   26     2     5    5.0359E+04 -4.0801E+02   5.0767E+04  0.000E+00  0.000E+00  0.000E+00  3.92416E+01  1.166E-01  2.000E+01  2.000E+04 -2.040E-02
   1   11   25     2     6    5.0767E+04 -4.6521E+02   5.1232E+04  0.000E+00  0.000E+00  0.000E+00  3.89922E+01  1.172E-01  2.000E+01  2.000E+04 -2.326E-02
   1   12   24     2     7    5.1232E+04 -1.0709E+03   5.2303E+04  0.000E+00  0.000E+00  0.000E+00  3.87433E+01  1.183E-01  2.000E+01  2.000E+04 -5.355E-02
   1   13   23     2     8    5.2303E+04 -1.8579E+02   5.2489E+04  0.000E+00  0.000E+00  0.000E+00  3.84942E+01  1.192E-01  2.000E+01  2.000E+04 -9.290E-03
   1   14   22     2     9    5.2489E+04  1.7158E+03   5.0773E+04  0.000E+00  0.000E+00  0.000E+00  3.82431E+01  1.181E-01  2.000E+01  2.000E+04  8.579E-02
   1   14   22     3     1    1.7751E+05 -8.5991E+03   1.8611E+05  0.000E+00  0.000E+00  0.000E+00  3.77274E+01  1.718E-01  2.000E+01  2.000E+04 -4.300E-01
   1   15   23     3     2    1.8611E+05 -4.3652E+02   1.8655E+05  0.000E+00  0.000E+00  0.000E+00  3.68410E+01  1.744E-01  2.000E+01  2.000E+04 -2.183E-02
   1   15   24     3     3    1.8655E+05 -1.7540E+02   1.8672E+05  0.000E+00  0.000E+00  0.000E+00  3.59523E+01  1.745E-01  2.000E+01  2.000E+04 -8.770E-03
   1   15   25     3     4    1.8672E+05 -1.3254E+02   1.8686E+05  0.000E+00  0.000E+00  0.000E+00  3.50635E+01  1.746E-01  2.000E+01  2.000E+04 -6.627E-03
   1   15   26     3     5    1.8686E+05  2.8692E+01   1.8683E+05  0.000E+00  0.000E+00  0.000E+00  3.41747E+01  1.747E-01  2.000E+01  2.000E+04  1.435E-03
   1   16   27     3     6    1.8683E+05  3.9311E+02   1.8643E+05  0.000E+00  0.000E+00  0.000E+00  3.32856E+01  1.745E-01  2.000E+01  2.000E+04  1.966E-02
   1   17   28     3     7    1.8643E+05  1.0666E+04   1.7577E+05  0.000E+00  0.000E+00  0.000E+00  3.23936E+01  1.714E-01  2.000E+01  2.000E+04  5.333E-01
   1   18   29     3     8    1.7577E+05  1.2251E+04   1.6352E+05  0.000E+00  0.000E+00  0.000E+00  3.14982E+01  1.648E-01  2.000E+01  2.000E+04  6.126E-01
   1   18   30     3     9    1.6352E+05  2.9513E+03   1.6056E+05  0.000E+00  0.000E+00  0.000E+00  3.06048E+01  1.604E-01  2.000E+01  2.000E+04  1.476E-01



1
              HEAD IN LAYER   1 AT END OF TIME STEP   1 IN STRESS PERIOD    7
  ---------------------------------------------------------------------------

          1      2      3      4      5      6      7      8      9     10
         11     12     13     14     15     16     17     18     19     20
         21     22     23     24     25     26     27     28     29     30
 .........................................................................
   1  ****** ****** ****** ****** ****** ****** ****** ****** ****** ******
      ****** ****** ****** ****** ****** ****** ****** ****** ****** ******
      ****** ****** ****** ****** ****** ****** ****** ****** ****** ******
   2  ****** ****** ****** ****** ****** ****** ****** ****** ****** ******
      ****** ****** ****** ****** ****** ****** ****** ****** ****** ******
      ****** ****** ****** ****** ****** ****** ****** ****** ****** ******
   3  ****** ****** ****** ****** ****** ****** ****** ****** ****** ******
      ****** ****** ****** ****** ****** ****** ****** ****** ****** ******
      ****** ****** ****** ****** ****** ****** ****** ****** ****** ******
   4  ****** ****** ****** ****** ****** ****** ****** ****** ****** ******
      ****** ****** ****** ****** ****** ****** ****** ****** ****** ******
      ****** ****** ****** ****** ****** ****** ****** ****** ****** ******
   5  ****** ****** ****** ****** ****** ****** ****** ****** ****** ******
      ****** ****** ****** ****** ****** ****** ****** ****** ****** ******
      ****** ****** ****** ****** ****** ****** ****** ****** ****** ******
   6  ****** ****** ****** ****** ****** ****** ****** ****** ****** ******
      ****** ****** ****** ****** ****** ****** ****** ****** ****** ******
      ****** ****** ****** ****** ****** ****** ****** ****** ****** ******
   7  ****** ****** ****** ****** ****** ****** ****** ****** ****** ******
      ****** ****** ****** ****** ****** ****** ****** ****** ****** ******
      ****** ****** ****** ****** ****** ****** ****** ****** ****** ******
   8  ****** ****** ****** ****** ****** ****** ****** ****** ****** ******
      ****** ****** ****** ****** ****** ****** ****** ****** ****** ******
      ****** ****** ****** ****** ****** ****** ****** ****** ****** ******
   9  ****** ****** ****** ****** ****** ****** ****** ****** ****** ******
      ****** ****** ****** ****** ****** ****** ****** ****** ****** ******
      ****** ****** ****** ****** ****** ****** ****** ****** ****** ******
  10  ****** ****** ****** ****** ****** ****** ****** ****** ****** ******
      ****** ****** ****** ****** ****** ****** ****** ****** ****** ******
      ****** ****** ****** ****** ****** ****** ****** ****** ****** ******
  11  ****** ****** ****** ****** ****** ****** ****** ****** ****** ******
      ****** ****** ****** ****** ****** ****** ****** ****** ****** ******
      ****** ****** ****** ****** ****** ****** ****** ****** ****** ******
  12  ****** ****** ****** ****** ****** ****** ****** ****** ****** ******
      ****** ****** ****** ****** ****** ****** ****** ****** ****** ******
      ****** ****** ****** ****** ****** ****** ****** ****** ****** ******
  13  ****** ****** ****** ****** ****** ****** ****** ****** ****** ******
      ****** ****** ****** ****** ****** ****** ****** ****** ****** ******
      ****** ****** ****** ****** ****** ****** ****** ****** ****** ******
  14  ****** ****** ****** ****** ****** ****** ****** ****** ****** ******
      ****** ****** ****** ****** ****** ****** ****** ****** ****** ******
      ****** ****** ****** ****** ****** ****** ****** ****** ****** ******
  15  ****** ****** ****** ****** ****** ****** ****** ****** ****** ******
      ****** ****** ****** ****** ****** ****** ****** ****** ****** ******
      ****** ****** ****** ****** ****** ****** ****** ****** ****** ******
  16  ****** ****** ****** ****** ****** ****** ****** ****** ****** ******
      ****** ****** ****** ****** ****** ****** ****** ****** ****** ******
      ****** ****** ****** ****** ****** ****** ****** ****** ****** ******
  17  ****** ****** ****** ****** ****** ****** ****** ****** ****** ******
      ****** ****** ****** ****** ****** ****** ****** ****** ****** ******
      ****** ****** ****** ****** ****** ****** ****** ****** ****** ******
  18  ****** ****** ****** ****** ****** ****** ****** ****** ****** ******
      ****** ****** ****** ****** ****** ****** ****** ****** ****** ******
      ****** ****** ****** ****** ****** ****** ****** ****** ****** ******
  19  ****** ****** ****** ****** ****** ****** ****** ****** ****** ******
      ****** ****** ****** ****** ****** ****** ****** ****** ****** ******
      ****** ****** ****** ****** ****** ****** ****** ****** ****** ******
  20  ****** ****** ****** ****** ****** ****** ****** ****** ****** ******
      ****** ****** ****** ****** ****** ****** ****** ****** ****** ******
      ****** ****** ****** ****** ****** ****** ****** ****** ****** ******
  21  ****** ****** ****** ****** ****** ****** ****** ****** ****** ******
      ****** ****** ****** ****** ****** ****** ****** ****** ****** ******
      ****** ****** ****** ****** ****** ****** ****** ****** ****** ******
  22  ****** ****** ****** ****** ****** ****** ****** ****** ****** ******
      ****** ****** ****** ****** ****** ****** ****** ****** ****** ******
      ****** ****** ****** ****** ****** ****** ****** ****** ****** ******
  23  ****** ****** ****** ****** ****** ****** ****** ****** ****** ******
      ****** ****** ****** ****** ****** ****** ****** ****** ****** ******
      ****** ****** ****** ****** ****** ****** ****** ****** ****** ******
  24  ****** ****** ****** ****** ****** ****** ****** ****** ****** ******
      ****** ****** ****** ****** ****** ****** ****** ****** ****** ******
      ****** ****** ****** ****** ****** ****** ****** ****** ****** ******
  25  ****** ****** ****** ****** ****** ****** ****** ****** ****** ******
      ****** ****** ****** ****** ****** ****** ****** ****** ****** ******
      ****** ****** ****** ****** ****** ****** ****** ****** ****** ******

 HEAD WILL BE SAVED ON UNIT   51 AT END OF TIME STEP    1, STRESS PERIOD    7
1
  VOLUMETRIC BUDGET FOR ENTIRE MODEL AT END OF TIME STEP    1, STRESS PERIOD   7
  ------------------------------------------------------------------------------

     CUMULATIVE VOLUMES      L**3       RATES FOR THIS TIME STEP      L**3/T
     ------------------                 ------------------------

           IN:                                      IN:
           ---                                      ---
             STORAGE =    31770627.9305               STORAGE =       21995.2955
       CONSTANT HEAD =    15393225.9912         CONSTANT HEAD =       31580.9816
               WELLS =           0.0000                 WELLS =           0.0000
            RECHARGE =    15097200.0000              RECHARGE =           0.0000
      STREAM LEAKAGE =    18186029.5856        STREAM LEAKAGE =       34439.4610

            TOTAL IN =    80447083.5072              TOTAL IN =       88015.7381

          OUT:                                     OUT:
          ----                                     ----
             STORAGE =      850038.7121               STORAGE =           0.0000
       CONSTANT HEAD =           0.0000         CONSTANT HEAD =           0.0000
               WELLS =    27484301.3024                 WELLS =       43011.4261
            RECHARGE =           0.0000              RECHARGE =           0.0000
      STREAM LEAKAGE =    52112745.8511        STREAM LEAKAGE =       45004.3170

           TOTAL OUT =    80447085.8657             TOTAL OUT =       88015.7431

            IN - OUT =          -2.3585              IN - OUT =      -5.0088E-03

 PERCENT DISCREPANCY =          -0.00     PERCENT DISCREPANCY =          -0.00






         TIME SUMMARY AT END OF TIME STEP    1 IN STRESS PERIOD    7
                    SECONDS     MINUTES      HOURS       DAYS        YEARS
                    -----------------------------------------------------------
   TIME STEP LENGTH 7.86240E+06 1.31040E+05  2184.0      91.000     0.24914    
 STRESS PERIOD TIME 7.86240E+06 1.31040E+05  2184.0      91.000     0.24914    
         TOTAL TIME 5.52096E+07 9.20160E+05  15336.      639.00      1.7495    
1
1
                            STRESS PERIOD NO.    8, LENGTH =   91.00000    
                            -----------------------------------------------

                              NUMBER OF TIME STEPS =     1

                               MULTIPLIER FOR DELT =     1.500

                            INITIAL TIME STEP SIZE =   91.00000    

 WELL NO.  LAYER   ROW   COL   STRESS RATE         
 --------------------------------------------------
      1      1     17     29     -0.1404E+05
      2      1     18     28     -0.1091E+05
      3      1     12     29      -8101.    
      4      1     19     29      -9959.    

      4 WELLS

                 RECHARGE =  1.000000E-03

 REUSING STREAM SEGMENT DATA FROM LAST STRESS PERIOD
 
 SOLVING FOR HEAD 


     6 CALLS TO PCG ROUTINE FOR TIME STEP   1 IN STRESS PERIOD    8
    22 TOTAL ITERATIONS

 OUTPUT CONTROL FOR STRESS PERIOD    8   TIME STEP    1
    SAVE BUDGET
    SAVE HEAD FOR ALL LAYERS
    PRINT HEAD FOR ALL LAYERS
 UBDSV2 SAVING "STREAMFLOW OUT  " ON UNIT  50 AT TIME STEP  1, STRESS PERIOD   8



 STREAM LISTING     PERIOD      8   STEP        1

 LAYER ROW COL. STREAM  RCH.  FLOW INTO     FLOW TO   FLOW OUT OF   OVRLND.     DIRECT     STREAM       STREAM     STREAM     STREAM   STREAMBED  STREAMBED
                SEG.NO.  NO.  STRM. RCH.    AQUIFER    STRM. RCH.    RUNOFF     PRECIP       ET          HEAD       DEPTH      WIDTH   CONDCTNC.   GRADIENT

   1   13    1     1     1    1.0000E+05 -1.9073E+03   1.0191E+05  0.000E+00  0.000E+00  0.000E+00  4.84068E+01  1.455E-01  2.000E+01  2.000E+04 -9.537E-02
   1   13    2     1     2    1.0191E+05 -2.8826E+03   1.0479E+05  0.000E+00  0.000E+00  0.000E+00  4.79316E+01  1.475E-01  2.000E+01  2.000E+04 -1.441E-01
   1   14    3     1     3    1.0479E+05 -4.8240E+02   1.0527E+05  0.000E+00  0.000E+00  0.000E+00  4.74558E+01  1.490E-01  2.000E+01  2.000E+04 -2.412E-02
   1   15    4     1     4    1.0527E+05 -4.5364E+02   1.0573E+05  0.000E+00  0.000E+00  0.000E+00  4.69789E+01  1.494E-01  2.000E+01  2.000E+04 -2.268E-02
   1   16    5     1     5    1.0573E+05 -1.6698E+03   1.0740E+05  0.000E+00  0.000E+00  0.000E+00  4.65025E+01  1.503E-01  2.000E+01  2.000E+04 -8.349E-02
   1   16    6     1     6    1.0740E+05 -1.0671E+03   1.0846E+05  0.000E+00  0.000E+00  0.000E+00  4.60264E+01  1.514E-01  2.000E+01  2.000E+04 -5.335E-02
   1   16    7     1     7    1.0846E+05 -1.0523E+03   1.0952E+05  0.000E+00  0.000E+00  0.000E+00  4.55500E+01  1.523E-01  2.000E+01  2.000E+04 -5.262E-02
   1   16    8     1     8    1.0952E+05 -1.0516E+03   1.1057E+05  0.000E+00  0.000E+00  0.000E+00  4.50737E+01  1.532E-01  2.000E+01  2.000E+04 -5.258E-02
   1   16    9     1     9    1.1057E+05 -1.0468E+03   1.1161E+05  0.000E+00  0.000E+00  0.000E+00  4.45973E+01  1.541E-01  2.000E+01  2.000E+04 -5.234E-02
   1   16   10     1    10    1.1161E+05 -1.0379E+03   1.1265E+05  0.000E+00  0.000E+00  0.000E+00  4.41208E+01  1.549E-01  2.000E+01  2.000E+04 -5.190E-02
   1   16   11     1    11    1.1265E+05 -1.0450E+03   1.1370E+05  0.000E+00  0.000E+00  0.000E+00  4.36444E+01  1.558E-01  2.000E+01  2.000E+04 -5.225E-02
   1   16   12     1    12    1.1370E+05 -1.7891E+03   1.1549E+05  0.000E+00  0.000E+00  0.000E+00  4.31683E+01  1.570E-01  2.000E+01  2.000E+04 -8.946E-02
   1   15   13     1    13    1.1549E+05 -1.7352E+03   1.1722E+05  0.000E+00  0.000E+00  0.000E+00  4.26925E+01  1.584E-01  2.000E+01  2.000E+04 -8.676E-02
   1   14   14     1    14    1.1722E+05 -2.0288E+03   1.1925E+05  0.000E+00  0.000E+00  0.000E+00  4.22168E+01  1.599E-01  2.000E+01  2.000E+04 -1.014E-01
   1   13   15     1    15    1.1925E+05 -2.3532E+03   1.2160E+05  0.000E+00  0.000E+00  0.000E+00  4.17413E+01  1.617E-01  2.000E+01  2.000E+04 -1.177E-01
   1   12   16     1    16    1.2160E+05 -3.0264E+03   1.2463E+05  0.000E+00  0.000E+00  0.000E+00  4.12661E+01  1.639E-01  2.000E+01  2.000E+04 -1.513E-01
   1   12   17     1    17    1.2463E+05 -1.9807E+03   1.2661E+05  0.000E+00  0.000E+00  0.000E+00  4.07909E+01  1.659E-01  2.000E+01  2.000E+04 -9.903E-02
   1   12   18     1    18    1.2661E+05 -1.8911E+03   1.2850E+05  0.000E+00  0.000E+00  0.000E+00  4.03151E+01  1.674E-01  2.000E+01  2.000E+04 -9.456E-02
   1   12   19     1    19    1.2850E+05 -2.4638E+03   1.3096E+05  0.000E+00  0.000E+00  0.000E+00  3.98396E+01  1.691E-01  2.000E+01  2.000E+04 -1.232E-01
   1   13   20     1    20    1.3096E+05 -1.8235E+03   1.3279E+05  0.000E+00  0.000E+00  0.000E+00  3.93640E+01  1.708E-01  2.000E+01  2.000E+04 -9.117E-02
   1   14   21     1    21    1.3279E+05 -1.5484E+03   1.3434E+05  0.000E+00  0.000E+00  0.000E+00  3.88880E+01  1.721E-01  2.000E+01  2.000E+04 -7.742E-02
   1   14   22     1    22    1.3434E+05  4.9519E+03   1.2938E+05  0.000E+00  0.000E+00  0.000E+00  3.84094E+01  1.708E-01  2.000E+01  2.000E+04  2.476E-01
   1    9   30     2     1    5.0000E+04  7.3208E+02   4.9268E+04  0.000E+00  0.000E+00  0.000E+00  4.02404E+01  1.154E-01  2.000E+01  2.000E+04  3.660E-02
   1    9   29     2     2    4.9268E+04  3.7491E+02   4.8893E+04  0.000E+00  0.000E+00  0.000E+00  3.99896E+01  1.146E-01  2.000E+01  2.000E+04  1.875E-02
   1    9   28     2     3    4.8893E+04 -2.1275E+02   4.9106E+04  0.000E+00  0.000E+00  0.000E+00  3.97395E+01  1.145E-01  2.000E+01  2.000E+04 -1.064E-02
   1    9   27     2     4    4.9106E+04 -1.9146E+03   5.1020E+04  0.000E+00  0.000E+00  0.000E+00  3.94910E+01  1.160E-01  2.000E+01  2.000E+04 -9.573E-02
   1   10   26     2     5    5.1020E+04 -6.1495E+02   5.1635E+04  0.000E+00  0.000E+00  0.000E+00  3.92427E+01  1.177E-01  2.000E+01  2.000E+04 -3.075E-02
   1   11   25     2     6    5.1635E+04 -6.7046E+02   5.2306E+04  0.000E+00  0.000E+00  0.000E+00  3.89936E+01  1.186E-01  2.000E+01  2.000E+04 -3.352E-02
   1   12   24     2     7    5.2306E+04 -1.2573E+03   5.3563E+04  0.000E+00  0.000E+00  0.000E+00  3.87449E+01  1.199E-01  2.000E+01  2.000E+04 -6.287E-02
   1   13   23     2     8    5.3563E+04 -2.6028E+02   5.3823E+04  0.000E+00  0.000E+00  0.000E+00  3.84959E+01  1.209E-01  2.000E+01  2.000E+04 -1.301E-02
   1   14   22     2     9    5.3823E+04  1.6634E+03   5.2160E+04  0.000E+00  0.000E+00  0.000E+00  3.82450E+01  1.200E-01  2.000E+01  2.000E+04  8.317E-02
   1   14   22     3     1    1.8154E+05 -8.6428E+03   1.9019E+05  0.000E+00  0.000E+00  0.000E+00  3.77297E+01  1.741E-01  2.000E+01  2.000E+04 -4.321E-01
   1   15   23     3     2    1.9019E+05 -5.0067E+02   1.9069E+05  0.000E+00  0.000E+00  0.000E+00  3.68433E+01  1.767E-01  2.000E+01  2.000E+04 -2.503E-02
   1   15   24     3     3    1.9069E+05 -2.3582E+02   1.9092E+05  0.000E+00  0.000E+00  0.000E+00  3.59546E+01  1.769E-01  2.000E+01  2.000E+04 -1.179E-02
   1   15   25     3     4    1.9092E+05 -1.9466E+02   1.9112E+05  0.000E+00  0.000E+00  0.000E+00  3.50659E+01  1.770E-01  2.000E+01  2.000E+04 -9.733E-03
   1   15   26     3     5    1.9112E+05 -4.5879E+01   1.9116E+05  0.000E+00  0.000E+00  0.000E+00  3.41771E+01  1.771E-01  2.000E+01  2.000E+04 -2.294E-03
   1   16   27     3     6    1.9116E+05  3.1144E+02   1.9085E+05  0.000E+00  0.000E+00  0.000E+00  3.32881E+01  1.770E-01  2.000E+01  2.000E+04  1.557E-02
   1   17   28     3     7    1.9085E+05  1.0463E+04   1.8039E+05  0.000E+00  0.000E+00  0.000E+00  3.23962E+01  1.740E-01  2.000E+01  2.000E+04  5.232E-01
   1   18   29     3     8    1.8039E+05  1.2087E+04   1.6830E+05  0.000E+00  0.000E+00  0.000E+00  3.15009E+01  1.676E-01  2.000E+01  2.000E+04  6.044E-01
   1   18   30     3     9    1.6830E+05  2.8055E+03   1.6550E+05  0.000E+00  0.000E+00  0.000E+00  3.06077E+01  1.632E-01  2.000E+01  2.000E+04  1.403E-01



1
              HEAD IN LAYER   1 AT END OF TIME STEP   1 IN STRESS PERIOD    8
  ---------------------------------------------------------------------------

          1      2      3      4      5      6      7      8      9     10
         11     12     13     14     15     16     17     18     19     20
         21     22     23     24     25     26     27     28     29     30
 .........................................................................
   1  ****** ****** ****** ****** ****** ****** ****** ****** ****** ******
      ****** ****** ****** ****** ****** ****** ****** ****** ****** ******
      ****** ****** ****** ****** ****** ****** ****** ****** ****** ******
   2  ****** ****** ****** ****** ****** ****** ****** ****** ****** ******
      ****** ****** ****** ****** ****** ****** ****** ****** ****** ******
      ****** ****** ****** ****** ****** ****** ****** ****** ****** ******
   3  ****** ****** ****** ****** ****** ****** ****** ****** ****** ******
      ****** ****** ****** ****** ****** ****** ****** ****** ****** ******
      ****** ****** ****** ****** ****** ****** ****** ****** ****** ******
   4  ****** ****** ****** ****** ****** ****** ****** ****** ****** ******
      ****** ****** ****** ****** ****** ****** ****** ****** ****** ******
      ****** ****** ****** ****** ****** ****** ****** ****** ****** ******
   5  ****** ****** ****** ****** ****** ****** ****** ****** ****** ******
      ****** ****** ****** ****** ****** ****** ****** ****** ****** ******
      ****** ****** ****** ****** ****** ****** ****** ****** ****** ******
   6  ****** ****** ****** ****** ****** ****** ****** ****** ****** ******
      ****** ****** ****** ****** ****** ****** ****** ****** ****** ******
      ****** ****** ****** ****** ****** ****** ****** ****** ****** ******
   7  ****** ****** ****** ****** ****** ****** ****** ****** ****** ******
      ****** ****** ****** ****** ****** ****** ****** ****** ****** ******
      ****** ****** ****** ****** ****** ****** ****** ****** ****** ******
   8  ****** ****** ****** ****** ****** ****** ****** ****** ****** ******
      ****** ****** ****** ****** ****** ****** ****** ****** ****** ******
      ****** ****** ****** ****** ****** ****** ****** ****** ****** ******
   9  ****** ****** ****** ****** ****** ****** ****** ****** ****** ******
      ****** ****** ****** ****** ****** ****** ****** ****** ****** ******
      ****** ****** ****** ****** ****** ****** ****** ****** ****** ******
  10  ****** ****** ****** ****** ****** ****** ****** ****** ****** ******
      ****** ****** ****** ****** ****** ****** ****** ****** ****** ******
      ****** ****** ****** ****** ****** ****** ****** ****** ****** ******
  11  ****** ****** ****** ****** ****** ****** ****** ****** ****** ******
      ****** ****** ****** ****** ****** ****** ****** ****** ****** ******
      ****** ****** ****** ****** ****** ****** ****** ****** ****** ******
  12  ****** ****** ****** ****** ****** ****** ****** ****** ****** ******
      ****** ****** ****** ****** ****** ****** ****** ****** ****** ******
      ****** ****** ****** ****** ****** ****** ****** ****** ****** ******
  13  ****** ****** ****** ****** ****** ****** ****** ****** ****** ******
      ****** ****** ****** ****** ****** ****** ****** ****** ****** ******
      ****** ****** ****** ****** ****** ****** ****** ****** ****** ******
  14  ****** ****** ****** ****** ****** ****** ****** ****** ****** ******
      ****** ****** ****** ****** ****** ****** ****** ****** ****** ******
      ****** ****** ****** ****** ****** ****** ****** ****** ****** ******
  15  ****** ****** ****** ****** ****** ****** ****** ****** ****** ******
      ****** ****** ****** ****** ****** ****** ****** ****** ****** ******
      ****** ****** ****** ****** ****** ****** ****** ****** ****** ******
  16  ****** ****** ****** ****** ****** ****** ****** ****** ****** ******
      ****** ****** ****** ****** ****** ****** ****** ****** ****** ******
      ****** ****** ****** ****** ****** ****** ****** ****** ****** ******
  17  ****** ****** ****** ****** ****** ****** ****** ****** ****** ******
      ****** ****** ****** ****** ****** ****** ****** ****** ****** ******
      ****** ****** ****** ****** ****** ****** ****** ****** ****** ******
  18  ****** ****** ****** ****** ****** ****** ****** ****** ****** ******
      ****** ****** ****** ****** ****** ****** ****** ****** ****** ******
      ****** ****** ****** ****** ****** ****** ****** ****** ****** ******
  19  ****** ****** ****** ****** ****** ****** ****** ****** ****** ******
      ****** ****** ****** ****** ****** ****** ****** ****** ****** ******
      ****** ****** ****** ****** ****** ****** ****** ****** ****** ******
  20  ****** ****** ****** ****** ****** ****** ****** ****** ****** ******
      ****** ****** ****** ****** ****** ****** ****** ****** ****** ******
      ****** ****** ****** ****** ****** ****** ****** ****** ****** ******
  21  ****** ****** ****** ****** ****** ****** ****** ****** ****** ******
      ****** ****** ****** ****** ****** ****** ****** ****** ****** ******
      ****** ****** ****** ****** ****** ****** ****** ****** ****** ******
  22  ****** ****** ****** ****** ****** ****** ****** ****** ****** ******
      ****** ****** ****** ****** ****** ****** ****** ****** ****** ******
      ****** ****** ****** ****** ****** ****** ****** ****** ****** ******
  23  ****** ****** ****** ****** ****** ****** ****** ****** ****** ******
      ****** ****** ****** ****** ****** ****** ****** ****** ****** ******
      ****** ****** ****** ****** ****** ****** ****** ****** ****** ******
  24  ****** ****** ****** ****** ****** ****** ****** ****** ****** ******
      ****** ****** ****** ****** ****** ****** ****** ****** ****** ******
      ****** ****** ****** ****** ****** ****** ****** ****** ****** ******
  25  ****** ****** ****** ****** ****** ****** ****** ****** ****** ******
      ****** ****** ****** ****** ****** ****** ****** ****** ****** ******
      ****** ****** ****** ****** ****** ****** ****** ****** ****** ******

 HEAD WILL BE SAVED ON UNIT   51 AT END OF TIME STEP    1, STRESS PERIOD    8
1
  VOLUMETRIC BUDGET FOR ENTIRE MODEL AT END OF TIME STEP    1, STRESS PERIOD   8
  ------------------------------------------------------------------------------

     CUMULATIVE VOLUMES      L**3       RATES FOR THIS TIME STEP      L**3/T
     ------------------                 ------------------------

           IN:                                      IN:
           ---                                      ---
             STORAGE =    31886229.9071               STORAGE =        1270.3514
       CONSTANT HEAD =    18237301.9404         CONSTANT HEAD =       31253.5819
               WELLS =           0.0000                 WELLS =           0.0000
            RECHARGE =    17608800.0000              RECHARGE =       27600.0000
      STREAM LEAKAGE =    21224467.6857        STREAM LEAKAGE =       33389.4297

            TOTAL IN =    88956799.5332              TOTAL IN =       93513.3629

          OUT:                                     OUT:
          ----                                     ----
             STORAGE =      997012.7880               STORAGE =        1615.0997
       CONSTANT HEAD =           0.0000         CONSTANT HEAD =           0.0000
               WELLS =    31398341.0810                 WELLS =       43011.4261
            RECHARGE =           0.0000              RECHARGE =           0.0000
      STREAM LEAKAGE =    56561447.2872        STREAM LEAKAGE =       48886.8290

           TOTAL OUT =    88956801.1562             TOTAL OUT =       93513.3548

            IN - OUT =          -1.6231              IN - OUT =       8.0815E-03

 PERCENT DISCREPANCY =          -0.00     PERCENT DISCREPANCY =           0.00






         TIME SUMMARY AT END OF TIME STEP    1 IN STRESS PERIOD    8
                    SECONDS     MINUTES      HOURS       DAYS        YEARS
                    -----------------------------------------------------------
   TIME STEP LENGTH 7.86240E+06 1.31040E+05  2184.0      91.000     0.24914    
 STRESS PERIOD TIME 7.86240E+06 1.31040E+05  2184.0      91.000     0.24914    
         TOTAL TIME 6.30720E+07 1.05120E+06  17520.      730.00      1.9986    
1
1
                            STRESS PERIOD NO.    9, LENGTH =   92.00000    
                            -----------------------------------------------

                              NUMBER OF TIME STEPS =     1

                               MULTIPLIER FOR DELT =     1.500

                            INITIAL TIME STEP SIZE =   92.00000    

 WELL NO.  LAYER   ROW   COL   STRESS RATE         
 --------------------------------------------------
      1      1     17     29     -0.1404E+05
      2      1     18     28     -0.1091E+05
      3      1     12     29      -8101.    
      4      1     19     29      -9959.    

      4 WELLS

                 RECHARGE =  5.000000E-04

 REUSING STREAM SEGMENT DATA FROM LAST STRESS PERIOD
 
 SOLVING FOR HEAD 


     7 CALLS TO PCG ROUTINE FOR TIME STEP   1 IN STRESS PERIOD    9
    24 TOTAL ITERATIONS

 OUTPUT CONTROL FOR STRESS PERIOD    9   TIME STEP    1
    SAVE BUDGET
    SAVE HEAD FOR ALL LAYERS
    PRINT HEAD FOR ALL LAYERS
 UBDSV2 SAVING "STREAMFLOW OUT  " ON UNIT  50 AT TIME STEP  1, STRESS PERIOD   9



 STREAM LISTING     PERIOD      9   STEP        1

 LAYER ROW COL. STREAM  RCH.  FLOW INTO     FLOW TO   FLOW OUT OF   OVRLND.     DIRECT     STREAM       STREAM     STREAM     STREAM   STREAMBED  STREAMBED
                SEG.NO.  NO.  STRM. RCH.    AQUIFER    STRM. RCH.    RUNOFF     PRECIP       ET          HEAD       DEPTH      WIDTH   CONDCTNC.   GRADIENT

   1   13    1     1     1    1.0000E+05 -1.6982E+03   1.0170E+05  0.000E+00  0.000E+00  0.000E+00  4.84068E+01  1.454E-01  2.000E+01  2.000E+04 -8.491E-02
   1   13    2     1     2    1.0170E+05 -2.6459E+03   1.0434E+05  0.000E+00  0.000E+00  0.000E+00  4.79313E+01  1.473E-01  2.000E+01  2.000E+04 -1.323E-01
   1   14    3     1     3    1.0434E+05 -4.1248E+02   1.0476E+05  0.000E+00  0.000E+00  0.000E+00  4.74554E+01  1.486E-01  2.000E+01  2.000E+04 -2.062E-02
   1   15    4     1     4    1.0476E+05 -3.8253E+02   1.0514E+05  0.000E+00  0.000E+00  0.000E+00  4.69785E+01  1.489E-01  2.000E+01  2.000E+04 -1.913E-02
   1   16    5     1     5    1.0514E+05 -1.4782E+03   1.0662E+05  0.000E+00  0.000E+00  0.000E+00  4.65020E+01  1.497E-01  2.000E+01  2.000E+04 -7.391E-02
   1   16    6     1     6    1.0662E+05 -9.4792E+02   1.0757E+05  0.000E+00  0.000E+00  0.000E+00  4.60257E+01  1.507E-01  2.000E+01  2.000E+04 -4.740E-02
   1   16    7     1     7    1.0757E+05 -9.3697E+02   1.0850E+05  0.000E+00  0.000E+00  0.000E+00  4.55492E+01  1.515E-01  2.000E+01  2.000E+04 -4.685E-02
   1   16    8     1     8    1.0850E+05 -9.3770E+02   1.0944E+05  0.000E+00  0.000E+00  0.000E+00  4.50728E+01  1.523E-01  2.000E+01  2.000E+04 -4.689E-02
   1   16    9     1     9    1.0944E+05 -9.3449E+02   1.1037E+05  0.000E+00  0.000E+00  0.000E+00  4.45963E+01  1.531E-01  2.000E+01  2.000E+04 -4.672E-02
   1   16   10     1    10    1.1037E+05 -9.2753E+02   1.1130E+05  0.000E+00  0.000E+00  0.000E+00  4.41198E+01  1.539E-01  2.000E+01  2.000E+04 -4.638E-02
   1   16   11     1    11    1.1130E+05 -9.3546E+02   1.1224E+05  0.000E+00  0.000E+00  0.000E+00  4.36433E+01  1.546E-01  2.000E+01  2.000E+04 -4.677E-02
   1   16   12     1    12    1.1224E+05 -1.6019E+03   1.1384E+05  0.000E+00  0.000E+00  0.000E+00  4.31671E+01  1.557E-01  2.000E+01  2.000E+04 -8.009E-02
   1   15   13     1    13    1.1384E+05 -1.5278E+03   1.1537E+05  0.000E+00  0.000E+00  0.000E+00  4.26911E+01  1.570E-01  2.000E+01  2.000E+04 -7.639E-02
   1   14   14     1    14    1.1537E+05 -1.8088E+03   1.1718E+05  0.000E+00  0.000E+00  0.000E+00  4.22152E+01  1.583E-01  2.000E+01  2.000E+04 -9.044E-02
   1   13   15     1    15    1.1718E+05 -2.1282E+03   1.1930E+05  0.000E+00  0.000E+00  0.000E+00  4.17395E+01  1.599E-01  2.000E+01  2.000E+04 -1.064E-01
   1   12   16     1    16    1.1930E+05 -2.7945E+03   1.2210E+05  0.000E+00  0.000E+00  0.000E+00  4.12642E+01  1.619E-01  2.000E+01  2.000E+04 -1.397E-01
   1   12   17     1    17    1.2210E+05 -1.8206E+03   1.2392E+05  0.000E+00  0.000E+00  0.000E+00  4.07888E+01  1.638E-01  2.000E+01  2.000E+04 -9.103E-02
   1   12   18     1    18    1.2392E+05 -1.7381E+03   1.2566E+05  0.000E+00  0.000E+00  0.000E+00  4.03129E+01  1.652E-01  2.000E+01  2.000E+04 -8.691E-02
   1   12   19     1    19    1.2566E+05 -2.2796E+03   1.2794E+05  0.000E+00  0.000E+00  0.000E+00  3.98373E+01  1.668E-01  2.000E+01  2.000E+04 -1.140E-01
   1   13   20     1    20    1.2794E+05 -1.6512E+03   1.2959E+05  0.000E+00  0.000E+00  0.000E+00  3.93615E+01  1.683E-01  2.000E+01  2.000E+04 -8.256E-02
   1   14   21     1    21    1.2959E+05 -1.3773E+03   1.3097E+05  0.000E+00  0.000E+00  0.000E+00  3.88854E+01  1.695E-01  2.000E+01  2.000E+04 -6.886E-02
   1   14   22     1    22    1.3097E+05  4.9912E+03   1.2597E+05  0.000E+00  0.000E+00  0.000E+00  3.84068E+01  1.681E-01  2.000E+01  2.000E+04  2.496E-01
   1    9   30     2     1    5.0000E+04  8.5468E+02   4.9145E+04  0.000E+00  0.000E+00  0.000E+00  4.02403E+01  1.153E-01  2.000E+01  2.000E+04  4.273E-02
   1    9   29     2     2    4.9145E+04  4.9768E+02   4.8648E+04  0.000E+00  0.000E+00  0.000E+00  3.99893E+01  1.143E-01  2.000E+01  2.000E+04  2.488E-02
   1    9   28     2     3    4.8648E+04 -8.8217E+01   4.8736E+04  0.000E+00  0.000E+00  0.000E+00  3.97390E+01  1.140E-01  2.000E+01  2.000E+04 -4.411E-03
   1    9   27     2     4    4.8736E+04 -1.7399E+03   5.0476E+04  0.000E+00  0.000E+00  0.000E+00  3.94903E+01  1.153E-01  2.000E+01  2.000E+04 -8.700E-02
   1   10   26     2     5    5.0476E+04 -4.4284E+02   5.0919E+04  0.000E+00  0.000E+00  0.000E+00  3.92418E+01  1.168E-01  2.000E+01  2.000E+04 -2.214E-02
   1   11   25     2     6    5.0919E+04 -5.0571E+02   5.1424E+04  0.000E+00  0.000E+00  0.000E+00  3.89925E+01  1.175E-01  2.000E+01  2.000E+04 -2.529E-02
   1   12   24     2     7    5.1424E+04 -1.1059E+03   5.2530E+04  0.000E+00  0.000E+00  0.000E+00  3.87436E+01  1.186E-01  2.000E+01  2.000E+04 -5.530E-02
   1   13   23     2     8    5.2530E+04 -2.1341E+02   5.2744E+04  0.000E+00  0.000E+00  0.000E+00  3.84945E+01  1.195E-01  2.000E+01  2.000E+04 -1.067E-02
   1   14   22     2     9    5.2744E+04  1.7254E+03   5.1018E+04  0.000E+00  0.000E+00  0.000E+00  3.82435E+01  1.185E-01  2.000E+01  2.000E+04  8.627E-02
   1   14   22     3     1    1.7699E+05 -8.6022E+03   1.8559E+05  0.000E+00  0.000E+00  0.000E+00  3.77271E+01  1.715E-01  2.000E+01  2.000E+04 -4.301E-01
   1   15   23     3     2    1.8559E+05 -4.4813E+02   1.8604E+05  0.000E+00  0.000E+00  0.000E+00  3.68407E+01  1.741E-01  2.000E+01  2.000E+04 -2.241E-02
   1   15   24     3     3    1.8604E+05 -1.9280E+02   1.8624E+05  0.000E+00  0.000E+00  0.000E+00  3.59520E+01  1.743E-01  2.000E+01  2.000E+04 -9.640E-03
   1   15   25     3     4    1.8624E+05 -1.5138E+02   1.8639E+05  0.000E+00  0.000E+00  0.000E+00  3.50632E+01  1.744E-01  2.000E+01  2.000E+04 -7.569E-03
   1   15   26     3     5    1.8639E+05  1.7301E+00   1.8639E+05  0.000E+00  0.000E+00  0.000E+00  3.41744E+01  1.744E-01  2.000E+01  2.000E+04  8.650E-05
   1   16   27     3     6    1.8639E+05  3.6747E+02   1.8602E+05  0.000E+00  0.000E+00  0.000E+00  3.32854E+01  1.743E-01  2.000E+01  2.000E+04  1.837E-02
   1   17   28     3     7    1.8602E+05  1.0617E+04   1.7540E+05  0.000E+00  0.000E+00  0.000E+00  3.23934E+01  1.712E-01  2.000E+01  2.000E+04  5.308E-01
   1   18   29     3     8    1.7540E+05  1.2263E+04   1.6314E+05  0.000E+00  0.000E+00  0.000E+00  3.14979E+01  1.646E-01  2.000E+01  2.000E+04  6.132E-01
   1   18   30     3     9    1.6314E+05  2.9377E+03   1.6020E+05  0.000E+00  0.000E+00  0.000E+00  3.06046E+01  1.601E-01  2.000E+01  2.000E+04  1.469E-01



1
              HEAD IN LAYER   1 AT END OF TIME STEP   1 IN STRESS PERIOD    9
  ---------------------------------------------------------------------------

          1      2      3      4      5      6      7      8      9     10
         11     12     13     14     15     16     17     18     19     20
         21     22     23     24     25     26     27     28     29     30
 .........................................................................
   1  ****** ****** ****** ****** ****** ****** ****** ****** ****** ******
      ****** ****** ****** ****** ****** ****** ****** ****** ****** ******
      ****** ****** ****** ****** ****** ****** ****** ****** ****** ******
   2  ****** ****** ****** ****** ****** ****** ****** ****** ****** ******
      ****** ****** ****** ****** ****** ****** ****** ****** ****** ******
      ****** ****** ****** ****** ****** ****** ****** ****** ****** ******
   3  ****** ****** ****** ****** ****** ****** ****** ****** ****** ******
      ****** ****** ****** ****** ****** ****** ****** ****** ****** ******
      ****** ****** ****** ****** ****** ****** ****** ****** ****** ******
   4  ****** ****** ****** ****** ****** ****** ****** ****** ****** ******
      ****** ****** ****** ****** ****** ****** ****** ****** ****** ******
      ****** ****** ****** ****** ****** ****** ****** ****** ****** ******
   5  ****** ****** ****** ****** ****** ****** ****** ****** ****** ******
      ****** ****** ****** ****** ****** ****** ****** ****** ****** ******
      ****** ****** ****** ****** ****** ****** ****** ****** ****** ******
   6  ****** ****** ****** ****** ****** ****** ****** ****** ****** ******
      ****** ****** ****** ****** ****** ****** ****** ****** ****** ******
      ****** ****** ****** ****** ****** ****** ****** ****** ****** ******
   7  ****** ****** ****** ****** ****** ****** ****** ****** ****** ******
      ****** ****** ****** ****** ****** ****** ****** ****** ****** ******
      ****** ****** ****** ****** ****** ****** ****** ****** ****** ******
   8  ****** ****** ****** ****** ****** ****** ****** ****** ****** ******
      ****** ****** ****** ****** ****** ****** ****** ****** ****** ******
      ****** ****** ****** ****** ****** ****** ****** ****** ****** ******
   9  ****** ****** ****** ****** ****** ****** ****** ****** ****** ******
      ****** ****** ****** ****** ****** ****** ****** ****** ****** ******
      ****** ****** ****** ****** ****** ****** ****** ****** ****** ******
  10  ****** ****** ****** ****** ****** ****** ****** ****** ****** ******
      ****** ****** ****** ****** ****** ****** ****** ****** ****** ******
      ****** ****** ****** ****** ****** ****** ****** ****** ****** ******
  11  ****** ****** ****** ****** ****** ****** ****** ****** ****** ******
      ****** ****** ****** ****** ****** ****** ****** ****** ****** ******
      ****** ****** ****** ****** ****** ****** ****** ****** ****** ******
  12  ****** ****** ****** ****** ****** ****** ****** ****** ****** ******
      ****** ****** ****** ****** ****** ****** ****** ****** ****** ******
      ****** ****** ****** ****** ****** ****** ****** ****** ****** ******
  13  ****** ****** ****** ****** ****** ****** ****** ****** ****** ******
      ****** ****** ****** ****** ****** ****** ****** ****** ****** ******
      ****** ****** ****** ****** ****** ****** ****** ****** ****** ******
  14  ****** ****** ****** ****** ****** ****** ****** ****** ****** ******
      ****** ****** ****** ****** ****** ****** ****** ****** ****** ******
      ****** ****** ****** ****** ****** ****** ****** ****** ****** ******
  15  ****** ****** ****** ****** ****** ****** ****** ****** ****** ******
      ****** ****** ****** ****** ****** ****** ****** ****** ****** ******
      ****** ****** ****** ****** ****** ****** ****** ****** ****** ******
  16  ****** ****** ****** ****** ****** ****** ****** ****** ****** ******
      ****** ****** ****** ****** ****** ****** ****** ****** ****** ******
      ****** ****** ****** ****** ****** ****** ****** ****** ****** ******
  17  ****** ****** ****** ****** ****** ****** ****** ****** ****** ******
      ****** ****** ****** ****** ****** ****** ****** ****** ****** ******
      ****** ****** ****** ****** ****** ****** ****** ****** ****** ******
  18  ****** ****** ****** ****** ****** ****** ****** ****** ****** ******
      ****** ****** ****** ****** ****** ****** ****** ****** ****** ******
      ****** ****** ****** ****** ****** ****** ****** ****** ****** ******
  19  ****** ****** ****** ****** ****** ****** ****** ****** ****** ******
      ****** ****** ****** ****** ****** ****** ****** ****** ****** ******
      ****** ****** ****** ****** ****** ****** ****** ****** ****** ******
  20  ****** ****** ****** ****** ****** ****** ****** ****** ****** ******
      ****** ****** ****** ****** ****** ****** ****** ****** ****** ******
      ****** ****** ****** ****** ****** ****** ****** ****** ****** ******
  21  ****** ****** ****** ****** ****** ****** ****** ****** ****** ******
      ****** ****** ****** ****** ****** ****** ****** ****** ****** ******
      ****** ****** ****** ****** ****** ****** ****** ****** ****** ******
  22  ****** ****** ****** ****** ****** ****** ****** ****** ****** ******
      ****** ****** ****** ****** ****** ****** ****** ****** ****** ******
      ****** ****** ****** ****** ****** ****** ****** ****** ****** ******
  23  ****** ****** ****** ****** ****** ****** ****** ****** ****** ******
      ****** ****** ****** ****** ****** ****** ****** ****** ****** ******
      ****** ****** ****** ****** ****** ****** ****** ****** ****** ******
  24  ****** ****** ****** ****** ****** ****** ****** ****** ****** ******
      ****** ****** ****** ****** ****** ****** ****** ****** ****** ******
      ****** ****** ****** ****** ****** ****** ****** ****** ****** ******
  25  ****** ****** ****** ****** ****** ****** ****** ****** ****** ******
      ****** ****** ****** ****** ****** ****** ****** ****** ****** ******
      ****** ****** ****** ****** ****** ****** ****** ****** ****** ******

 HEAD WILL BE SAVED ON UNIT   51 AT END OF TIME STEP    1, STRESS PERIOD    9
1
  VOLUMETRIC BUDGET FOR ENTIRE MODEL AT END OF TIME STEP    1, STRESS PERIOD   9
  ------------------------------------------------------------------------------

     CUMULATIVE VOLUMES      L**3       RATES FOR THIS TIME STEP      L**3/T
     ------------------                 ------------------------

           IN:                                      IN:
           ---                                      ---
             STORAGE =    32531585.2460               STORAGE =        7014.7319
       CONSTANT HEAD =    21217830.8576         CONSTANT HEAD =       32397.0534
               WELLS =           0.0000                 WELLS =           0.0000
            RECHARGE =    18878400.0000              RECHARGE =       13800.0000
      STREAM LEAKAGE =    24375992.4848        STREAM LEAKAGE =       34255.7043

            TOTAL IN =    97003808.5885              TOTAL IN =       87467.4897

          OUT:                                     OUT:
          ----                                     ----
             STORAGE =      997012.7880               STORAGE =           0.0000
       CONSTANT HEAD =           0.0000         CONSTANT HEAD =           0.0000
               WELLS =    35355392.2858                 WELLS =       43011.4261
            RECHARGE =           0.0000              RECHARGE =           0.0000
      STREAM LEAKAGE =    60651405.2394        STREAM LEAKAGE =       44456.0647

           TOTAL OUT =    97003810.3132             TOTAL OUT =       87467.4908

            IN - OUT =          -1.7247              IN - OUT =      -1.1049E-03

 PERCENT DISCREPANCY =          -0.00     PERCENT DISCREPANCY =          -0.00






         TIME SUMMARY AT END OF TIME STEP    1 IN STRESS PERIOD    9
                    SECONDS     MINUTES      HOURS       DAYS        YEARS
                    -----------------------------------------------------------
   TIME STEP LENGTH 7.94880E+06 1.32480E+05  2208.0      92.000     0.25188    
 STRESS PERIOD TIME 7.94880E+06 1.32480E+05  2208.0      92.000     0.25188    
         TOTAL TIME 7.10208E+07 1.18368E+06  19728.      822.00      2.2505    
1
1
                            STRESS PERIOD NO.   10, LENGTH =   91.00000    
                            -----------------------------------------------

                              NUMBER OF TIME STEPS =     1

                               MULTIPLIER FOR DELT =     1.500

                            INITIAL TIME STEP SIZE =   91.00000    

 WELL NO.  LAYER   ROW   COL   STRESS RATE         
 --------------------------------------------------
      1      1     17     29     -0.1404E+05
      2      1     18     28     -0.1091E+05
      3      1     12     29      -8101.    
      4      1     19     29      -9959.    

      4 WELLS

                 RECHARGE =  2.000000E-03

 REUSING STREAM SEGMENT DATA FROM LAST STRESS PERIOD
 
 SOLVING FOR HEAD 


     7 CALLS TO PCG ROUTINE FOR TIME STEP   1 IN STRESS PERIOD   10
    26 TOTAL ITERATIONS

 OUTPUT CONTROL FOR STRESS PERIOD   10   TIME STEP    1
    SAVE BUDGET
    SAVE HEAD FOR ALL LAYERS
    PRINT HEAD FOR ALL LAYERS
 UBDSV2 SAVING "STREAMFLOW OUT  " ON UNIT  50 AT TIME STEP  1, STRESS PERIOD  10



 STREAM LISTING     PERIOD     10   STEP        1

 LAYER ROW COL. STREAM  RCH.  FLOW INTO     FLOW TO   FLOW OUT OF   OVRLND.     DIRECT     STREAM       STREAM     STREAM     STREAM   STREAMBED  STREAMBED
                SEG.NO.  NO.  STRM. RCH.    AQUIFER    STRM. RCH.    RUNOFF     PRECIP       ET          HEAD       DEPTH      WIDTH   CONDCTNC.   GRADIENT

   1   13    1     1     1    1.0000E+05 -2.1545E+03   1.0215E+05  0.000E+00  0.000E+00  0.000E+00  4.84069E+01  1.456E-01  2.000E+01  2.000E+04 -1.077E-01
   1   13    2     1     2    1.0215E+05 -3.1519E+03   1.0531E+05  0.000E+00  0.000E+00  0.000E+00  4.79320E+01  1.479E-01  2.000E+01  2.000E+04 -1.576E-01
   1   14    3     1     3    1.0531E+05 -5.9968E+02   1.0591E+05  0.000E+00  0.000E+00  0.000E+00  4.74563E+01  1.495E-01  2.000E+01  2.000E+04 -2.998E-02
   1   15    4     1     4    1.0591E+05 -5.8252E+02   1.0649E+05  0.000E+00  0.000E+00  0.000E+00  4.69795E+01  1.500E-01  2.000E+01  2.000E+04 -2.913E-02
   1   16    5     1     5    1.0649E+05 -2.0978E+03   1.0859E+05  0.000E+00  0.000E+00  0.000E+00  4.65034E+01  1.511E-01  2.000E+01  2.000E+04 -1.049E-01
   1   16    6     1     6    1.0859E+05 -1.3107E+03   1.0990E+05  0.000E+00  0.000E+00  0.000E+00  4.60275E+01  1.525E-01  2.000E+01  2.000E+04 -6.554E-02
   1   16    7     1     7    1.0990E+05 -1.2820E+03   1.1118E+05  0.000E+00  0.000E+00  0.000E+00  4.55513E+01  1.536E-01  2.000E+01  2.000E+04 -6.410E-02
   1   16    8     1     8    1.1118E+05 -1.2773E+03   1.1246E+05  0.000E+00  0.000E+00  0.000E+00  4.50751E+01  1.547E-01  2.000E+01  2.000E+04 -6.387E-02
   1   16    9     1     9    1.1246E+05 -1.2725E+03   1.1373E+05  0.000E+00  0.000E+00  0.000E+00  4.45989E+01  1.557E-01  2.000E+01  2.000E+04 -6.363E-02
   1   16   10     1    10    1.1373E+05 -1.2656E+03   1.1499E+05  0.000E+00  0.000E+00  0.000E+00  4.41227E+01  1.568E-01  2.000E+01  2.000E+04 -6.328E-02
   1   16   11     1    11    1.1499E+05 -1.2769E+03   1.1627E+05  0.000E+00  0.000E+00  0.000E+00  4.36465E+01  1.578E-01  2.000E+01  2.000E+04 -6.384E-02
   1   16   12     1    12    1.1627E+05 -2.1721E+03   1.1844E+05  0.000E+00  0.000E+00  0.000E+00  4.31706E+01  1.592E-01  2.000E+01  2.000E+04 -1.086E-01
   1   15   13     1    13    1.1844E+05 -2.1158E+03   1.2056E+05  0.000E+00  0.000E+00  0.000E+00  4.26951E+01  1.610E-01  2.000E+01  2.000E+04 -1.058E-01
   1   14   14     1    14    1.2056E+05 -2.4047E+03   1.2296E+05  0.000E+00  0.000E+00  0.000E+00  4.22196E+01  1.628E-01  2.000E+01  2.000E+04 -1.202E-01
   1   13   15     1    15    1.2296E+05 -2.7146E+03   1.2568E+05  0.000E+00  0.000E+00  0.000E+00  4.17444E+01  1.648E-01  2.000E+01  2.000E+04 -1.357E-01
   1   12   16     1    16    1.2568E+05 -3.3604E+03   1.2904E+05  0.000E+00  0.000E+00  0.000E+00  4.12695E+01  1.672E-01  2.000E+01  2.000E+04 -1.680E-01
   1   12   17     1    17    1.2904E+05 -2.2482E+03   1.3129E+05  0.000E+00  0.000E+00  0.000E+00  4.07944E+01  1.694E-01  2.000E+01  2.000E+04 -1.124E-01
   1   12   18     1    18    1.3129E+05 -2.1612E+03   1.3345E+05  0.000E+00  0.000E+00  0.000E+00  4.03189E+01  1.712E-01  2.000E+01  2.000E+04 -1.081E-01
   1   12   19     1    19    1.3345E+05 -2.8003E+03   1.3625E+05  0.000E+00  0.000E+00  0.000E+00  3.98435E+01  1.731E-01  2.000E+01  2.000E+04 -1.400E-01
   1   13   20     1    20    1.3625E+05 -2.1735E+03   1.3842E+05  0.000E+00  0.000E+00  0.000E+00  3.93682E+01  1.750E-01  2.000E+01  2.000E+04 -1.087E-01
   1   14   21     1    21    1.3842E+05 -1.9029E+03   1.4033E+05  0.000E+00  0.000E+00  0.000E+00  3.88924E+01  1.765E-01  2.000E+01  2.000E+04 -9.514E-02
   1   14   22     1    22    1.4033E+05  4.8614E+03   1.3546E+05  0.000E+00  0.000E+00  0.000E+00  3.84140E+01  1.754E-01  2.000E+01  2.000E+04  2.431E-01
   1    9   30     2     1    5.0000E+04  4.3996E+02   4.9560E+04  0.000E+00  0.000E+00  0.000E+00  4.02406E+01  1.156E-01  2.000E+01  2.000E+04  2.200E-02
   1    9   29     2     2    4.9560E+04  8.5212E+01   4.9475E+04  0.000E+00  0.000E+00  0.000E+00  3.99902E+01  1.152E-01  2.000E+01  2.000E+04  4.261E-03
   1    9   28     2     3    4.9475E+04 -4.9996E+02   4.9975E+04  0.000E+00  0.000E+00  0.000E+00  3.97405E+01  1.155E-01  2.000E+01  2.000E+04 -2.500E-02
   1    9   27     2     4    4.9975E+04 -2.2941E+03   5.2269E+04  0.000E+00  0.000E+00  0.000E+00  3.94924E+01  1.174E-01  2.000E+01  2.000E+04 -1.147E-01
   1   10   26     2     5    5.2269E+04 -9.9684E+02   5.3266E+04  0.000E+00  0.000E+00  0.000E+00  3.92447E+01  1.197E-01  2.000E+01  2.000E+04 -4.984E-02
   1   11   25     2     6    5.3266E+04 -1.0351E+03   5.4301E+04  0.000E+00  0.000E+00  0.000E+00  3.89960E+01  1.210E-01  2.000E+01  2.000E+04 -5.176E-02
   1   12   24     2     7    5.4301E+04 -1.5851E+03   5.5886E+04  0.000E+00  0.000E+00  0.000E+00  3.87478E+01  1.228E-01  2.000E+01  2.000E+04 -7.926E-02
   1   13   23     2     8    5.5886E+04 -3.6223E+02   5.6248E+04  0.000E+00  0.000E+00  0.000E+00  3.84991E+01  1.241E-01  2.000E+01  2.000E+04 -1.811E-02
   1   14   22     2     9    5.6248E+04  1.5469E+03   5.4701E+04  0.000E+00  0.000E+00  0.000E+00  3.82483E+01  1.233E-01  2.000E+01  2.000E+04  7.734E-02
   1   14   22     3     1    1.9017E+05 -8.7297E+03   1.9890E+05  0.000E+00  0.000E+00  0.000E+00  3.77345E+01  1.789E-01  2.000E+01  2.000E+04 -4.365E-01
   1   15   23     3     2    1.9890E+05 -6.1071E+02   1.9951E+05  0.000E+00  0.000E+00  0.000E+00  3.68482E+01  1.815E-01  2.000E+01  2.000E+04 -3.054E-02
   1   15   24     3     3    1.9951E+05 -3.3000E+02   1.9984E+05  0.000E+00  0.000E+00  0.000E+00  3.59595E+01  1.818E-01  2.000E+01  2.000E+04 -1.650E-02
   1   15   25     3     4    1.9984E+05 -2.9198E+02   2.0013E+05  0.000E+00  0.000E+00  0.000E+00  3.50708E+01  1.819E-01  2.000E+01  2.000E+04 -1.460E-02
   1   15   26     3     5    2.0013E+05 -1.6054E+02   2.0029E+05  0.000E+00  0.000E+00  0.000E+00  3.41820E+01  1.820E-01  2.000E+01  2.000E+04 -8.027E-03
   1   16   27     3     6    2.0029E+05  1.8157E+02   2.0011E+05  0.000E+00  0.000E+00  0.000E+00  3.32932E+01  1.820E-01  2.000E+01  2.000E+04  9.078E-03
   1   17   28     3     7    2.0011E+05  1.0096E+04   1.9001E+05  0.000E+00  0.000E+00  0.000E+00  3.24014E+01  1.792E-01  2.000E+01  2.000E+04  5.048E-01
   1   18   29     3     8    1.9001E+05  1.1712E+04   1.7830E+05  0.000E+00  0.000E+00  0.000E+00  3.15065E+01  1.731E-01  2.000E+01  2.000E+04  5.856E-01
   1   18   30     3     9    1.7830E+05  2.5126E+03   1.7579E+05  0.000E+00  0.000E+00  0.000E+00  3.06135E+01  1.691E-01  2.000E+01  2.000E+04  1.256E-01



1
              HEAD IN LAYER   1 AT END OF TIME STEP   1 IN STRESS PERIOD   10
  ---------------------------------------------------------------------------

          1      2      3      4      5      6      7      8      9     10
         11     12     13     14     15     16     17     18     19     20
         21     22     23     24     25     26     27     28     29     30
 .........................................................................
   1  ****** ****** ****** ****** ****** ****** ****** ****** ****** ******
      ****** ****** ****** ****** ****** ****** ****** ****** ****** ******
      ****** ****** ****** ****** ****** ****** ****** ****** ****** ******
   2  ****** ****** ****** ****** ****** ****** ****** ****** ****** ******
      ****** ****** ****** ****** ****** ****** ****** ****** ****** ******
      ****** ****** ****** ****** ****** ****** ****** ****** ****** ******
   3  ****** ****** ****** ****** ****** ****** ****** ****** ****** ******
      ****** ****** ****** ****** ****** ****** ****** ****** ****** ******
      ****** ****** ****** ****** ****** ****** ****** ****** ****** ******
   4  ****** ****** ****** ****** ****** ****** ****** ****** ****** ******
      ****** ****** ****** ****** ****** ****** ****** ****** ****** ******
      ****** ****** ****** ****** ****** ****** ****** ****** ****** ******
   5  ****** ****** ****** ****** ****** ****** ****** ****** ****** ******
      ****** ****** ****** ****** ****** ****** ****** ****** ****** ******
      ****** ****** ****** ****** ****** ****** ****** ****** ****** ******
   6  ****** ****** ****** ****** ****** ****** ****** ****** ****** ******
      ****** ****** ****** ****** ****** ****** ****** ****** ****** ******
      ****** ****** ****** ****** ****** ****** ****** ****** ****** ******
   7  ****** ****** ****** ****** ****** ****** ****** ****** ****** ******
      ****** ****** ****** ****** ****** ****** ****** ****** ****** ******
      ****** ****** ****** ****** ****** ****** ****** ****** ****** ******
   8  ****** ****** ****** ****** ****** ****** ****** ****** ****** ******
      ****** ****** ****** ****** ****** ****** ****** ****** ****** ******
      ****** ****** ****** ****** ****** ****** ****** ****** ****** ******
   9  ****** ****** ****** ****** ****** ****** ****** ****** ****** ******
      ****** ****** ****** ****** ****** ****** ****** ****** ****** ******
      ****** ****** ****** ****** ****** ****** ****** ****** ****** ******
  10  ****** ****** ****** ****** ****** ****** ****** ****** ****** ******
      ****** ****** ****** ****** ****** ****** ****** ****** ****** ******
      ****** ****** ****** ****** ****** ****** ****** ****** ****** ******
  11  ****** ****** ****** ****** ****** ****** ****** ****** ****** ******
      ****** ****** ****** ****** ****** ****** ****** ****** ****** ******
      ****** ****** ****** ****** ****** ****** ****** ****** ****** ******
  12  ****** ****** ****** ****** ****** ****** ****** ****** ****** ******
      ****** ****** ****** ****** ****** ****** ****** ****** ****** ******
      ****** ****** ****** ****** ****** ****** ****** ****** ****** ******
  13  ****** ****** ****** ****** ****** ****** ****** ****** ****** ******
      ****** ****** ****** ****** ****** ****** ****** ****** ****** ******
      ****** ****** ****** ****** ****** ****** ****** ****** ****** ******
  14  ****** ****** ****** ****** ****** ****** ****** ****** ****** ******
      ****** ****** ****** ****** ****** ****** ****** ****** ****** ******
      ****** ****** ****** ****** ****** ****** ****** ****** ****** ******
  15  ****** ****** ****** ****** ****** ****** ****** ****** ****** ******
      ****** ****** ****** ****** ****** ****** ****** ****** ****** ******
      ****** ****** ****** ****** ****** ****** ****** ****** ****** ******
  16  ****** ****** ****** ****** ****** ****** ****** ****** ****** ******
      ****** ****** ****** ****** ****** ****** ****** ****** ****** ******
      ****** ****** ****** ****** ****** ****** ****** ****** ****** ******
  17  ****** ****** ****** ****** ****** ****** ****** ****** ****** ******
      ****** ****** ****** ****** ****** ****** ****** ****** ****** ******
      ****** ****** ****** ****** ****** ****** ****** ****** ****** ******
  18  ****** ****** ****** ****** ****** ****** ****** ****** ****** ******
      ****** ****** ****** ****** ****** ****** ****** ****** ****** ******
      ****** ****** ****** ****** ****** ****** ****** ****** ****** ******
  19  ****** ****** ****** ****** ****** ****** ****** ****** ****** ******
      ****** ****** ****** ****** ****** ****** ****** ****** ****** ******
      ****** ****** ****** ****** ****** ****** ****** ****** ****** ******
  20  ****** ****** ****** ****** ****** ****** ****** ****** ****** ******
      ****** ****** ****** ****** ****** ****** ****** ****** ****** ******
      ****** ****** ****** ****** ****** ****** ****** ****** ****** ******
  21  ****** ****** ****** ****** ****** ****** ****** ****** ****** ******
      ****** ****** ****** ****** ****** ****** ****** ****** ****** ******
      ****** ****** ****** ****** ****** ****** ****** ****** ****** ******
  22  ****** ****** ****** ****** ****** ****** ****** ****** ****** ******
      ****** ****** ****** ****** ****** ****** ****** ****** ****** ******
      ****** ****** ****** ****** ****** ****** ****** ****** ****** ******
  23  ****** ****** ****** ****** ****** ****** ****** ****** ****** ******
      ****** ****** ****** ****** ****** ****** ****** ****** ****** ******
      ****** ****** ****** ****** ****** ****** ****** ****** ****** ******
  24  ****** ****** ****** ****** ****** ****** ****** ****** ****** ******
      ****** ****** ****** ****** ****** ****** ****** ****** ****** ******
      ****** ****** ****** ****** ****** ****** ****** ****** ****** ******
  25  ****** ****** ****** ****** ****** ****** ****** ****** ****** ******
      ****** ****** ****** ****** ****** ****** ****** ****** ****** ******
      ****** ****** ****** ****** ****** ****** ****** ****** ****** ******

 HEAD WILL BE SAVED ON UNIT   51 AT END OF TIME STEP    1, STRESS PERIOD   10
1
  VOLUMETRIC BUDGET FOR ENTIRE MODEL AT END OF TIME STEP    1, STRESS PERIOD  10
  ------------------------------------------------------------------------------

     CUMULATIVE VOLUMES      L**3       RATES FOR THIS TIME STEP      L**3/T
     ------------------                 ------------------------

           IN:                                      IN:
           ---                                      ---
             STORAGE =    32531585.2460               STORAGE =           0.0000
       CONSTANT HEAD =    23895746.3327         CONSTANT HEAD =       29427.6426
               WELLS =           0.0000                 WELLS =           0.0000
            RECHARGE =    23901600.0000              RECHARGE =       55200.0000
      STREAM LEAKAGE =    27236604.1920        STREAM LEAKAGE =       31435.2935

            TOTAL IN =   107565535.7707              TOTAL IN =      116062.9361

          OUT:                                     OUT:
          ----                                     ----
             STORAGE =     2437521.4868               STORAGE =       15829.7659
       CONSTANT HEAD =           0.0000         CONSTANT HEAD =           0.0000
               WELLS =    39269432.0643                 WELLS =       43011.4261
            RECHARGE =           0.0000              RECHARGE =           0.0000
      STREAM LEAKAGE =    65858583.6680        STREAM LEAKAGE =       57221.7410

           TOTAL OUT =   107565537.2191             TOTAL OUT =      116062.9330

            IN - OUT =          -1.4484              IN - OUT =       3.0361E-03

 PERCENT DISCREPANCY =          -0.00     PERCENT DISCREPANCY =           0.00






         TIME SUMMARY AT END OF TIME STEP    1 IN STRESS PERIOD   10
                    SECONDS     MINUTES      HOURS       DAYS        YEARS
                    -----------------------------------------------------------
   TIME STEP LENGTH 7.86240E+06 1.31040E+05  2184.0      91.000     0.24914    
 STRESS PERIOD TIME 7.86240E+06 1.31040E+05  2184.0      91.000     0.24914    
         TOTAL TIME 7.88832E+07 1.31472E+06  21912.      913.00      2.4997    
1
1
                            STRESS PERIOD NO.   11, LENGTH =   91.00000    
                            -----------------------------------------------

                              NUMBER OF TIME STEPS =     1

                               MULTIPLIER FOR DELT =     1.500

                            INITIAL TIME STEP SIZE =   91.00000    

 WELL NO.  LAYER   ROW   COL   STRESS RATE         
 --------------------------------------------------
      1      1     17     29     -0.1404E+05
      2      1     18     28     -0.1091E+05
      3      1     12     29      -8101.    
      4      1     19     29      -9959.    

      4 WELLS

                 RECHARGE =   0.00000    

 REUSING STREAM SEGMENT DATA FROM LAST STRESS PERIOD
 
 SOLVING FOR HEAD 


     7 CALLS TO PCG ROUTINE FOR TIME STEP   1 IN STRESS PERIOD   11
    26 TOTAL ITERATIONS

 OUTPUT CONTROL FOR STRESS PERIOD   11   TIME STEP    1
    SAVE BUDGET
    SAVE HEAD FOR ALL LAYERS
    PRINT HEAD FOR ALL LAYERS
 UBDSV2 SAVING "STREAMFLOW OUT  " ON UNIT  50 AT TIME STEP  1, STRESS PERIOD  11



 STREAM LISTING     PERIOD     11   STEP        1

 LAYER ROW COL. STREAM  RCH.  FLOW INTO     FLOW TO   FLOW OUT OF   OVRLND.     DIRECT     STREAM       STREAM     STREAM     STREAM   STREAMBED  STREAMBED
                SEG.NO.  NO.  STRM. RCH.    AQUIFER    STRM. RCH.    RUNOFF     PRECIP       ET          HEAD       DEPTH      WIDTH   CONDCTNC.   GRADIENT

   1   13    1     1     1    1.0000E+05 -1.5897E+03   1.0159E+05  0.000E+00  0.000E+00  0.000E+00  4.84067E+01  1.453E-01  2.000E+01  2.000E+04 -7.948E-02
   1   13    2     1     2    1.0159E+05 -2.5231E+03   1.0411E+05  0.000E+00  0.000E+00  0.000E+00  4.79312E+01  1.471E-01  2.000E+01  2.000E+04 -1.262E-01
   1   14    3     1     3    1.0411E+05 -3.6929E+02   1.0448E+05  0.000E+00  0.000E+00  0.000E+00  4.74552E+01  1.484E-01  2.000E+01  2.000E+04 -1.846E-02
   1   15    4     1     4    1.0448E+05 -3.4104E+02   1.0482E+05  0.000E+00  0.000E+00  0.000E+00  4.69782E+01  1.487E-01  2.000E+01  2.000E+04 -1.705E-02
   1   16    5     1     5    1.0482E+05 -1.4105E+03   1.0623E+05  0.000E+00  0.000E+00  0.000E+00  4.65017E+01  1.494E-01  2.000E+01  2.000E+04 -7.052E-02
   1   16    6     1     6    1.0623E+05 -8.9690E+02   1.0713E+05  0.000E+00  0.000E+00  0.000E+00  4.60254E+01  1.504E-01  2.000E+01  2.000E+04 -4.484E-02
   1   16    7     1     7    1.0713E+05 -8.8582E+02   1.0802E+05  0.000E+00  0.000E+00  0.000E+00  4.55489E+01  1.511E-01  2.000E+01  2.000E+04 -4.429E-02
   1   16    8     1     8    1.0802E+05 -8.8660E+02   1.0890E+05  0.000E+00  0.000E+00  0.000E+00  4.50723E+01  1.519E-01  2.000E+01  2.000E+04 -4.433E-02
   1   16    9     1     9    1.0890E+05 -8.8398E+02   1.0979E+05  0.000E+00  0.000E+00  0.000E+00  4.45958E+01  1.526E-01  2.000E+01  2.000E+04 -4.420E-02
   1   16   10     1    10    1.0979E+05 -8.7809E+02   1.1066E+05  0.000E+00  0.000E+00  0.000E+00  4.41193E+01  1.534E-01  2.000E+01  2.000E+04 -4.390E-02
   1   16   11     1    11    1.1066E+05 -8.8744E+02   1.1155E+05  0.000E+00  0.000E+00  0.000E+00  4.36427E+01  1.541E-01  2.000E+01  2.000E+04 -4.437E-02
   1   16   12     1    12    1.1155E+05 -1.5269E+03   1.1308E+05  0.000E+00  0.000E+00  0.000E+00  4.31665E+01  1.551E-01  2.000E+01  2.000E+04 -7.635E-02
   1   15   13     1    13    1.1308E+05 -1.4284E+03   1.1451E+05  0.000E+00  0.000E+00  0.000E+00  4.26904E+01  1.563E-01  2.000E+01  2.000E+04 -7.142E-02
   1   14   14     1    14    1.1451E+05 -1.7000E+03   1.1621E+05  0.000E+00  0.000E+00  0.000E+00  4.22144E+01  1.576E-01  2.000E+01  2.000E+04 -8.500E-02
   1   13   15     1    15    1.1621E+05 -2.0159E+03   1.1822E+05  0.000E+00  0.000E+00  0.000E+00  4.17387E+01  1.591E-01  2.000E+01  2.000E+04 -1.008E-01
   1   12   16     1    16    1.1822E+05 -2.6859E+03   1.2091E+05  0.000E+00  0.000E+00  0.000E+00  4.12633E+01  1.610E-01  2.000E+01  2.000E+04 -1.343E-01
   1   12   17     1    17    1.2091E+05 -1.7428E+03   1.2265E+05  0.000E+00  0.000E+00  0.000E+00  4.07878E+01  1.628E-01  2.000E+01  2.000E+04 -8.714E-02
   1   12   18     1    18    1.2265E+05 -1.6633E+03   1.2432E+05  0.000E+00  0.000E+00  0.000E+00  4.03119E+01  1.642E-01  2.000E+01  2.000E+04 -8.317E-02
   1   12   19     1    19    1.2432E+05 -2.1890E+03   1.2650E+05  0.000E+00  0.000E+00  0.000E+00  3.98362E+01  1.657E-01  2.000E+01  2.000E+04 -1.094E-01
   1   13   20     1    20    1.2650E+05 -1.5617E+03   1.2807E+05  0.000E+00  0.000E+00  0.000E+00  3.93604E+01  1.672E-01  2.000E+01  2.000E+04 -7.808E-02
   1   14   21     1    21    1.2807E+05 -1.3061E+03   1.2937E+05  0.000E+00  0.000E+00  0.000E+00  3.88842E+01  1.683E-01  2.000E+01  2.000E+04 -6.530E-02
   1   14   22     1    22    1.2937E+05  5.0113E+03   1.2436E+05  0.000E+00  0.000E+00  0.000E+00  3.84055E+01  1.669E-01  2.000E+01  2.000E+04  2.506E-01
   1    9   30     2     1    5.0000E+04  9.2767E+02   4.9072E+04  0.000E+00  0.000E+00  0.000E+00  4.02402E+01  1.152E-01  2.000E+01  2.000E+04  4.638E-02
   1    9   29     2     2    4.9072E+04  5.6984E+02   4.8502E+04  0.000E+00  0.000E+00  0.000E+00  3.99892E+01  1.142E-01  2.000E+01  2.000E+04  2.849E-02
   1    9   28     2     3    4.8502E+04 -1.7601E+01   4.8520E+04  0.000E+00  0.000E+00  0.000E+00  3.97388E+01  1.138E-01  2.000E+01  2.000E+04 -8.801E-04
   1    9   27     2     4    4.8520E+04 -1.6554E+03   5.0175E+04  0.000E+00  0.000E+00  0.000E+00  3.94900E+01  1.150E-01  2.000E+01  2.000E+04 -8.277E-02
   1   10   26     2     5    5.0175E+04 -3.4349E+02   5.0519E+04  0.000E+00  0.000E+00  0.000E+00  3.92413E+01  1.163E-01  2.000E+01  2.000E+04 -1.717E-02
   1   11   25     2     6    5.0519E+04 -4.0555E+02   5.0924E+04  0.000E+00  0.000E+00  0.000E+00  3.89919E+01  1.169E-01  2.000E+01  2.000E+04 -2.028E-02
   1   12   24     2     7    5.0924E+04 -1.0126E+03   5.1937E+04  0.000E+00  0.000E+00  0.000E+00  3.87428E+01  1.178E-01  2.000E+01  2.000E+04 -5.063E-02
   1   13   23     2     8    5.1937E+04 -1.7652E+02   5.2114E+04  0.000E+00  0.000E+00  0.000E+00  3.84937E+01  1.187E-01  2.000E+01  2.000E+04 -8.826E-03
   1   14   22     2     9    5.2114E+04  1.7531E+03   5.0361E+04  0.000E+00  0.000E+00  0.000E+00  3.82426E+01  1.176E-01  2.000E+01  2.000E+04  8.765E-02
   1   14   22     3     1    1.7472E+05 -8.5828E+03   1.8330E+05  0.000E+00  0.000E+00  0.000E+00  3.77258E+01  1.702E-01  2.000E+01  2.000E+04 -4.291E-01
   1   15   23     3     2    1.8330E+05 -4.1867E+02   1.8372E+05  0.000E+00  0.000E+00  0.000E+00  3.68394E+01  1.728E-01  2.000E+01  2.000E+04 -2.093E-02
   1   15   24     3     3    1.8372E+05 -1.6486E+02   1.8389E+05  0.000E+00  0.000E+00  0.000E+00  3.59507E+01  1.729E-01  2.000E+01  2.000E+04 -8.243E-03
   1   15   25     3     4    1.8389E+05 -1.2301E+02   1.8401E+05  0.000E+00  0.000E+00  0.000E+00  3.50619E+01  1.730E-01  2.000E+01  2.000E+04 -6.150E-03
   1   15   26     3     5    1.8401E+05  3.5177E+01   1.8398E+05  0.000E+00  0.000E+00  0.000E+00  3.41731E+01  1.731E-01  2.000E+01  2.000E+04  1.759E-03
   1   16   27     3     6    1.8398E+05  4.0461E+02   1.8357E+05  0.000E+00  0.000E+00  0.000E+00  3.32840E+01  1.729E-01  2.000E+01  2.000E+04  2.023E-02
   1   17   28     3     7    1.8357E+05  1.0706E+04   1.7287E+05  0.000E+00  0.000E+00  0.000E+00  3.23920E+01  1.698E-01  2.000E+01  2.000E+04  5.353E-01
   1   18   29     3     8    1.7287E+05  1.2333E+04   1.6053E+05  0.000E+00  0.000E+00  0.000E+00  3.14964E+01  1.631E-01  2.000E+01  2.000E+04  6.167E-01
   1   18   30     3     9    1.6053E+05  3.0014E+03   1.5753E+05  0.000E+00  0.000E+00  0.000E+00  3.06030E+01  1.586E-01  2.000E+01  2.000E+04  1.501E-01



1
              HEAD IN LAYER   1 AT END OF TIME STEP   1 IN STRESS PERIOD   11
  ---------------------------------------------------------------------------

          1      2      3      4      5      6      7      8      9     10
         11     12     13     14     15     16     17     18     19     20
         21     22     23     24     25     26     27     28     29     30
 .........................................................................
   1  ****** ****** ****** ****** ****** ****** ****** ****** ****** ******
      ****** ****** ****** ****** ****** ****** ****** ****** ****** ******
      ****** ****** ****** ****** ****** ****** ****** ****** ****** ******
   2  ****** ****** ****** ****** ****** ****** ****** ****** ****** ******
      ****** ****** ****** ****** ****** ****** ****** ****** ****** ******
      ****** ****** ****** ****** ****** ****** ****** ****** ****** ******
   3  ****** ****** ****** ****** ****** ****** ****** ****** ****** ******
      ****** ****** ****** ****** ****** ****** ****** ****** ****** ******
      ****** ****** ****** ****** ****** ****** ****** ****** ****** ******
   4  ****** ****** ****** ****** ****** ****** ****** ****** ****** ******
      ****** ****** ****** ****** ****** ****** ****** ****** ****** ******
      ****** ****** ****** ****** ****** ****** ****** ****** ****** ******
   5  ****** ****** ****** ****** ****** ****** ****** ****** ****** ******
      ****** ****** ****** ****** ****** ****** ****** ****** ****** ******
      ****** ****** ****** ****** ****** ****** ****** ****** ****** ******
   6  ****** ****** ****** ****** ****** ****** ****** ****** ****** ******
      ****** ****** ****** ****** ****** ****** ****** ****** ****** ******
      ****** ****** ****** ****** ****** ****** ****** ****** ****** ******
   7  ****** ****** ****** ****** ****** ****** ****** ****** ****** ******
      ****** ****** ****** ****** ****** ****** ****** ****** ****** ******
      ****** ****** ****** ****** ****** ****** ****** ****** ****** ******
   8  ****** ****** ****** ****** ****** ****** ****** ****** ****** ******
      ****** ****** ****** ****** ****** ****** ****** ****** ****** ******
      ****** ****** ****** ****** ****** ****** ****** ****** ****** ******
   9  ****** ****** ****** ****** ****** ****** ****** ****** ****** ******
      ****** ****** ****** ****** ****** ****** ****** ****** ****** ******
      ****** ****** ****** ****** ****** ****** ****** ****** ****** ******
  10  ****** ****** ****** ****** ****** ****** ****** ****** ****** ******
      ****** ****** ****** ****** ****** ****** ****** ****** ****** ******
      ****** ****** ****** ****** ****** ****** ****** ****** ****** ******
  11  ****** ****** ****** ****** ****** ****** ****** ****** ****** ******
      ****** ****** ****** ****** ****** ****** ****** ****** ****** ******
      ****** ****** ****** ****** ****** ****** ****** ****** ****** ******
  12  ****** ****** ****** ****** ****** ****** ****** ****** ****** ******
      ****** ****** ****** ****** ****** ****** ****** ****** ****** ******
      ****** ****** ****** ****** ****** ****** ****** ****** ****** ******
  13  ****** ****** ****** ****** ****** ****** ****** ****** ****** ******
      ****** ****** ****** ****** ****** ****** ****** ****** ****** ******
      ****** ****** ****** ****** ****** ****** ****** ****** ****** ******
  14  ****** ****** ****** ****** ****** ****** ****** ****** ****** ******
      ****** ****** ****** ****** ****** ****** ****** ****** ****** ******
      ****** ****** ****** ****** ****** ****** ****** ****** ****** ******
  15  ****** ****** ****** ****** ****** ****** ****** ****** ****** ******
      ****** ****** ****** ****** ****** ****** ****** ****** ****** ******
      ****** ****** ****** ****** ****** ****** ****** ****** ****** ******
  16  ****** ****** ****** ****** ****** ****** ****** ****** ****** ******
      ****** ****** ****** ****** ****** ****** ****** ****** ****** ******
      ****** ****** ****** ****** ****** ****** ****** ****** ****** ******
  17  ****** ****** ****** ****** ****** ****** ****** ****** ****** ******
      ****** ****** ****** ****** ****** ****** ****** ****** ****** ******
      ****** ****** ****** ****** ****** ****** ****** ****** ****** ******
  18  ****** ****** ****** ****** ****** ****** ****** ****** ****** ******
      ****** ****** ****** ****** ****** ****** ****** ****** ****** ******
      ****** ****** ****** ****** ****** ****** ****** ****** ****** ******
  19  ****** ****** ****** ****** ****** ****** ****** ****** ****** ******
      ****** ****** ****** ****** ****** ****** ****** ****** ****** ******
      ****** ****** ****** ****** ****** ****** ****** ****** ****** ******
  20  ****** ****** ****** ****** ****** ****** ****** ****** ****** ******
      ****** ****** ****** ****** ****** ****** ****** ****** ****** ******
      ****** ****** ****** ****** ****** ****** ****** ****** ****** ******
  21  ****** ****** ****** ****** ****** ****** ****** ****** ****** ******
      ****** ****** ****** ****** ****** ****** ****** ****** ****** ******
      ****** ****** ****** ****** ****** ****** ****** ****** ****** ******
  22  ****** ****** ****** ****** ****** ****** ****** ****** ****** ******
      ****** ****** ****** ****** ****** ****** ****** ****** ****** ******
      ****** ****** ****** ****** ****** ****** ****** ****** ****** ******
  23  ****** ****** ****** ****** ****** ****** ****** ****** ****** ******
      ****** ****** ****** ****** ****** ****** ****** ****** ****** ******
      ****** ****** ****** ****** ****** ****** ****** ****** ****** ******
  24  ****** ****** ****** ****** ****** ****** ****** ****** ****** ******
      ****** ****** ****** ****** ****** ****** ****** ****** ****** ******
      ****** ****** ****** ****** ****** ****** ****** ****** ****** ******
  25  ****** ****** ****** ****** ****** ****** ****** ****** ****** ******
      ****** ****** ****** ****** ****** ****** ****** ****** ****** ******
      ****** ****** ****** ****** ****** ****** ****** ****** ****** ******

 HEAD WILL BE SAVED ON UNIT   51 AT END OF TIME STEP    1, STRESS PERIOD   11
1
  VOLUMETRIC BUDGET FOR ENTIRE MODEL AT END OF TIME STEP    1, STRESS PERIOD  11
  ------------------------------------------------------------------------------

     CUMULATIVE VOLUMES      L**3       RATES FOR THIS TIME STEP      L**3/T
     ------------------                 ------------------------

           IN:                                      IN:
           ---                                      ---
             STORAGE =    34155005.7208               STORAGE =       17839.7854
       CONSTANT HEAD =    26871619.1499         CONSTANT HEAD =       32701.8991
               WELLS =           0.0000                 WELLS =           0.0000
            RECHARGE =    23901600.0000              RECHARGE =           0.0000
      STREAM LEAKAGE =    30398168.9772        STREAM LEAKAGE =       34742.4702

            TOTAL IN =   115326393.8479              TOTAL IN =       85284.1547

          OUT:                                     OUT:
          ----                                     ----
             STORAGE =     2437521.4868               STORAGE =           0.0000
       CONSTANT HEAD =           0.0000         CONSTANT HEAD =           0.0000
               WELLS =    43183471.8429                 WELLS =       43011.4261
            RECHARGE =           0.0000              RECHARGE =           0.0000
      STREAM LEAKAGE =    69705402.3700        STREAM LEAKAGE =       42272.7330

           TOTAL OUT =   115326395.6998             TOTAL OUT =       85284.1591

            IN - OUT =          -1.8518              IN - OUT =      -4.4331E-03

 PERCENT DISCREPANCY =          -0.00     PERCENT DISCREPANCY =          -0.00






         TIME SUMMARY AT END OF TIME STEP    1 IN STRESS PERIOD   11
                    SECONDS     MINUTES      HOURS       DAYS        YEARS
                    -----------------------------------------------------------
   TIME STEP LENGTH 7.86240E+06 1.31040E+05  2184.0      91.000     0.24914    
 STRESS PERIOD TIME 7.86240E+06 1.31040E+05  2184.0      91.000     0.24914    
         TOTAL TIME 8.67456E+07 1.44576E+06  24096.      1004.0      2.7488    
1
1
                            STRESS PERIOD NO.   12, LENGTH =   91.00000    
                            -----------------------------------------------

                              NUMBER OF TIME STEPS =     1

                               MULTIPLIER FOR DELT =     1.500

                            INITIAL TIME STEP SIZE =   91.00000    

 WELL NO.  LAYER   ROW   COL   STRESS RATE         
 --------------------------------------------------
      1      1     17     29     -0.1404E+05
      2      1     18     28     -0.1091E+05
      3      1     12     29      -8101.    
      4      1     19     29      -9959.    

      4 WELLS

                 RECHARGE =  1.000000E-03

 REUSING STREAM SEGMENT DATA FROM LAST STRESS PERIOD
 
 SOLVING FOR HEAD 


     7 CALLS TO PCG ROUTINE FOR TIME STEP   1 IN STRESS PERIOD   12
    24 TOTAL ITERATIONS

 OUTPUT CONTROL FOR STRESS PERIOD   12   TIME STEP    1
    SAVE BUDGET
    SAVE HEAD FOR ALL LAYERS
    PRINT HEAD FOR ALL LAYERS
 UBDSV2 SAVING "STREAMFLOW OUT  " ON UNIT  50 AT TIME STEP  1, STRESS PERIOD  12



 STREAM LISTING     PERIOD     12   STEP        1

 LAYER ROW COL. STREAM  RCH.  FLOW INTO     FLOW TO   FLOW OUT OF   OVRLND.     DIRECT     STREAM       STREAM     STREAM     STREAM   STREAMBED  STREAMBED
                SEG.NO.  NO.  STRM. RCH.    AQUIFER    STRM. RCH.    RUNOFF     PRECIP       ET          HEAD       DEPTH      WIDTH   CONDCTNC.   GRADIENT

   1   13    1     1     1    1.0000E+05 -1.7360E+03   1.0174E+05  0.000E+00  0.000E+00  0.000E+00  4.84068E+01  1.454E-01  2.000E+01  2.000E+04 -8.680E-02
   1   13    2     1     2    1.0174E+05 -2.6806E+03   1.0442E+05  0.000E+00  0.000E+00  0.000E+00  4.79314E+01  1.473E-01  2.000E+01  2.000E+04 -1.340E-01
   1   14    3     1     3    1.0442E+05 -4.4823E+02   1.0486E+05  0.000E+00  0.000E+00  0.000E+00  4.74555E+01  1.486E-01  2.000E+01  2.000E+04 -2.241E-02
   1   15    4     1     4    1.0486E+05 -4.2371E+02   1.0529E+05  0.000E+00  0.000E+00  0.000E+00  4.69786E+01  1.490E-01  2.000E+01  2.000E+04 -2.119E-02
   1   16    5     1     5    1.0529E+05 -1.6205E+03   1.0691E+05  0.000E+00  0.000E+00  0.000E+00  4.65022E+01  1.499E-01  2.000E+01  2.000E+04 -8.103E-02
   1   16    6     1     6    1.0691E+05 -1.0277E+03   1.0794E+05  0.000E+00  0.000E+00  0.000E+00  4.60260E+01  1.510E-01  2.000E+01  2.000E+04 -5.138E-02
   1   16    7     1     7    1.0794E+05 -1.0115E+03   1.0895E+05  0.000E+00  0.000E+00  0.000E+00  4.55496E+01  1.519E-01  2.000E+01  2.000E+04 -5.058E-02
   1   16    8     1     8    1.0895E+05 -1.0113E+03   1.0996E+05  0.000E+00  0.000E+00  0.000E+00  4.50732E+01  1.527E-01  2.000E+01  2.000E+04 -5.056E-02
   1   16    9     1     9    1.0996E+05 -1.0090E+03   1.1097E+05  0.000E+00  0.000E+00  0.000E+00  4.45967E+01  1.536E-01  2.000E+01  2.000E+04 -5.045E-02
   1   16   10     1    10    1.1097E+05 -1.0044E+03   1.1197E+05  0.000E+00  0.000E+00  0.000E+00  4.41203E+01  1.544E-01  2.000E+01  2.000E+04 -5.022E-02
   1   16   11     1    11    1.1197E+05 -1.0159E+03   1.1299E+05  0.000E+00  0.000E+00  0.000E+00  4.36439E+01  1.552E-01  2.000E+01  2.000E+04 -5.079E-02
   1   16   12     1    12    1.1299E+05 -1.7290E+03   1.1472E+05  0.000E+00  0.000E+00  0.000E+00  4.31677E+01  1.564E-01  2.000E+01  2.000E+04 -8.645E-02
   1   15   13     1    13    1.1472E+05 -1.6462E+03   1.1636E+05  0.000E+00  0.000E+00  0.000E+00  4.26918E+01  1.577E-01  2.000E+01  2.000E+04 -8.231E-02
   1   14   14     1    14    1.1636E+05 -1.9187E+03   1.1828E+05  0.000E+00  0.000E+00  0.000E+00  4.22160E+01  1.592E-01  2.000E+01  2.000E+04 -9.594E-02
   1   13   15     1    15    1.1828E+05 -2.2276E+03   1.2051E+05  0.000E+00  0.000E+00  0.000E+00  4.17404E+01  1.609E-01  2.000E+01  2.000E+04 -1.114E-01
   1   12   16     1    16    1.2051E+05 -2.8716E+03   1.2338E+05  0.000E+00  0.000E+00  0.000E+00  4.12652E+01  1.629E-01  2.000E+01  2.000E+04 -1.436E-01
   1   12   17     1    17    1.2338E+05 -1.8974E+03   1.2528E+05  0.000E+00  0.000E+00  0.000E+00  4.07898E+01  1.648E-01  2.000E+01  2.000E+04 -9.487E-02
   1   12   18     1    18    1.2528E+05 -1.8199E+03   1.2710E+05  0.000E+00  0.000E+00  0.000E+00  4.03140E+01  1.663E-01  2.000E+01  2.000E+04 -9.100E-02
   1   12   19     1    19    1.2710E+05 -2.3826E+03   1.2948E+05  0.000E+00  0.000E+00  0.000E+00  3.98384E+01  1.680E-01  2.000E+01  2.000E+04 -1.191E-01
   1   13   20     1    20    1.2948E+05 -1.7726E+03   1.3125E+05  0.000E+00  0.000E+00  0.000E+00  3.93628E+01  1.696E-01  2.000E+01  2.000E+04 -8.863E-02
   1   14   21     1    21    1.3125E+05 -1.5004E+03   1.3275E+05  0.000E+00  0.000E+00  0.000E+00  3.88868E+01  1.709E-01  2.000E+01  2.000E+04 -7.502E-02
   1   14   22     1    22    1.3275E+05  4.9572E+03   1.2780E+05  0.000E+00  0.000E+00  0.000E+00  3.84082E+01  1.695E-01  2.000E+01  2.000E+04  2.479E-01
   1    9   30     2     1    5.0000E+04  7.5101E+02   4.9249E+04  0.000E+00  0.000E+00  0.000E+00  4.02403E+01  1.153E-01  2.000E+01  2.000E+04  3.755E-02
   1    9   29     2     2    4.9249E+04  3.9522E+02   4.8854E+04  0.000E+00  0.000E+00  0.000E+00  3.99895E+01  1.145E-01  2.000E+01  2.000E+04  1.976E-02
   1    9   28     2     3    4.8854E+04 -1.8875E+02   4.9043E+04  0.000E+00  0.000E+00  0.000E+00  3.97394E+01  1.144E-01  2.000E+01  2.000E+04 -9.437E-03
   1    9   27     2     4    4.9043E+04 -1.8651E+03   5.0908E+04  0.000E+00  0.000E+00  0.000E+00  3.94908E+01  1.158E-01  2.000E+01  2.000E+04 -9.326E-02
   1   10   26     2     5    5.0908E+04 -5.7385E+02   5.1482E+04  0.000E+00  0.000E+00  0.000E+00  3.92425E+01  1.175E-01  2.000E+01  2.000E+04 -2.869E-02
   1   11   25     2     6    5.1482E+04 -6.3197E+02   5.2113E+04  0.000E+00  0.000E+00  0.000E+00  3.89933E+01  1.183E-01  2.000E+01  2.000E+04 -3.160E-02
   1   12   24     2     7    5.2113E+04 -1.2193E+03   5.3333E+04  0.000E+00  0.000E+00  0.000E+00  3.87446E+01  1.196E-01  2.000E+01  2.000E+04 -6.096E-02
   1   13   23     2     8    5.3333E+04 -2.5423E+02   5.3587E+04  0.000E+00  0.000E+00  0.000E+00  3.84956E+01  1.206E-01  2.000E+01  2.000E+04 -1.271E-02
   1   14   22     2     9    5.3587E+04  1.6867E+03   5.1900E+04  0.000E+00  0.000E+00  0.000E+00  3.82446E+01  1.196E-01  2.000E+01  2.000E+04  8.434E-02
   1   14   22     3     1    1.7970E+05 -8.6337E+03   1.8833E+05  0.000E+00  0.000E+00  0.000E+00  3.77286E+01  1.731E-01  2.000E+01  2.000E+04 -4.317E-01
   1   15   23     3     2    1.8833E+05 -4.9074E+02   1.8882E+05  0.000E+00  0.000E+00  0.000E+00  3.68423E+01  1.756E-01  2.000E+01  2.000E+04 -2.454E-02
   1   15   24     3     3    1.8882E+05 -2.2997E+02   1.8905E+05  0.000E+00  0.000E+00  0.000E+00  3.59536E+01  1.758E-01  2.000E+01  2.000E+04 -1.150E-02
   1   15   25     3     4    1.8905E+05 -1.8939E+02   1.8924E+05  0.000E+00  0.000E+00  0.000E+00  3.50648E+01  1.759E-01  2.000E+01  2.000E+04 -9.470E-03
   1   15   26     3     5    1.8924E+05 -4.2330E+01   1.8928E+05  0.000E+00  0.000E+00  0.000E+00  3.41760E+01  1.760E-01  2.000E+01  2.000E+04 -2.117E-03
   1   16   27     3     6    1.8928E+05  3.1780E+02   1.8897E+05  0.000E+00  0.000E+00  0.000E+00  3.32870E+01  1.759E-01  2.000E+01  2.000E+04  1.589E-02
   1   17   28     3     7    1.8897E+05  1.0485E+04   1.7848E+05  0.000E+00  0.000E+00  0.000E+00  3.23951E+01  1.729E-01  2.000E+01  2.000E+04  5.243E-01
   1   18   29     3     8    1.7848E+05  1.2133E+04   1.6635E+05  0.000E+00  0.000E+00  0.000E+00  3.14998E+01  1.664E-01  2.000E+01  2.000E+04  6.066E-01
   1   18   30     3     9    1.6635E+05  2.8334E+03   1.6352E+05  0.000E+00  0.000E+00  0.000E+00  3.06065E+01  1.621E-01  2.000E+01  2.000E+04  1.417E-01



1
              HEAD IN LAYER   1 AT END OF TIME STEP   1 IN STRESS PERIOD   12
  ---------------------------------------------------------------------------

          1      2      3      4      5      6      7      8      9     10
         11     12     13     14     15     16     17     18     19     20
         21     22     23     24     25     26     27     28     29     30
 .........................................................................
   1  ****** ****** ****** ****** ****** ****** ****** ****** ****** ******
      ****** ****** ****** ****** ****** ****** ****** ****** ****** ******
      ****** ****** ****** ****** ****** ****** ****** ****** ****** ******
   2  ****** ****** ****** ****** ****** ****** ****** ****** ****** ******
      ****** ****** ****** ****** ****** ****** ****** ****** ****** ******
      ****** ****** ****** ****** ****** ****** ****** ****** ****** ******
   3  ****** ****** ****** ****** ****** ****** ****** ****** ****** ******
      ****** ****** ****** ****** ****** ****** ****** ****** ****** ******
      ****** ****** ****** ****** ****** ****** ****** ****** ****** ******
   4  ****** ****** ****** ****** ****** ****** ****** ****** ****** ******
      ****** ****** ****** ****** ****** ****** ****** ****** ****** ******
      ****** ****** ****** ****** ****** ****** ****** ****** ****** ******
   5  ****** ****** ****** ****** ****** ****** ****** ****** ****** ******
      ****** ****** ****** ****** ****** ****** ****** ****** ****** ******
      ****** ****** ****** ****** ****** ****** ****** ****** ****** ******
   6  ****** ****** ****** ****** ****** ****** ****** ****** ****** ******
      ****** ****** ****** ****** ****** ****** ****** ****** ****** ******
      ****** ****** ****** ****** ****** ****** ****** ****** ****** ******
   7  ****** ****** ****** ****** ****** ****** ****** ****** ****** ******
      ****** ****** ****** ****** ****** ****** ****** ****** ****** ******
      ****** ****** ****** ****** ****** ****** ****** ****** ****** ******
   8  ****** ****** ****** ****** ****** ****** ****** ****** ****** ******
      ****** ****** ****** ****** ****** ****** ****** ****** ****** ******
      ****** ****** ****** ****** ****** ****** ****** ****** ****** ******
   9  ****** ****** ****** ****** ****** ****** ****** ****** ****** ******
      ****** ****** ****** ****** ****** ****** ****** ****** ****** ******
      ****** ****** ****** ****** ****** ****** ****** ****** ****** ******
  10  ****** ****** ****** ****** ****** ****** ****** ****** ****** ******
      ****** ****** ****** ****** ****** ****** ****** ****** ****** ******
      ****** ****** ****** ****** ****** ****** ****** ****** ****** ******
  11  ****** ****** ****** ****** ****** ****** ****** ****** ****** ******
      ****** ****** ****** ****** ****** ****** ****** ****** ****** ******
      ****** ****** ****** ****** ****** ****** ****** ****** ****** ******
  12  ****** ****** ****** ****** ****** ****** ****** ****** ****** ******
      ****** ****** ****** ****** ****** ****** ****** ****** ****** ******
      ****** ****** ****** ****** ****** ****** ****** ****** ****** ******
  13  ****** ****** ****** ****** ****** ****** ****** ****** ****** ******
      ****** ****** ****** ****** ****** ****** ****** ****** ****** ******
      ****** ****** ****** ****** ****** ****** ****** ****** ****** ******
  14  ****** ****** ****** ****** ****** ****** ****** ****** ****** ******
      ****** ****** ****** ****** ****** ****** ****** ****** ****** ******
      ****** ****** ****** ****** ****** ****** ****** ****** ****** ******
  15  ****** ****** ****** ****** ****** ****** ****** ****** ****** ******
      ****** ****** ****** ****** ****** ****** ****** ****** ****** ******
      ****** ****** ****** ****** ****** ****** ****** ****** ****** ******
  16  ****** ****** ****** ****** ****** ****** ****** ****** ****** ******
      ****** ****** ****** ****** ****** ****** ****** ****** ****** ******
      ****** ****** ****** ****** ****** ****** ****** ****** ****** ******
  17  ****** ****** ****** ****** ****** ****** ****** ****** ****** ******
      ****** ****** ****** ****** ****** ****** ****** ****** ****** ******
      ****** ****** ****** ****** ****** ****** ****** ****** ****** ******
  18  ****** ****** ****** ****** ****** ****** ****** ****** ****** ******
      ****** ****** ****** ****** ****** ****** ****** ****** ****** ******
      ****** ****** ****** ****** ****** ****** ****** ****** ****** ******
  19  ****** ****** ****** ****** ****** ****** ****** ****** ****** ******
      ****** ****** ****** ****** ****** ****** ****** ****** ****** ******
      ****** ****** ****** ****** ****** ****** ****** ****** ****** ******
  20  ****** ****** ****** ****** ****** ****** ****** ****** ****** ******
      ****** ****** ****** ****** ****** ****** ****** ****** ****** ******
      ****** ****** ****** ****** ****** ****** ****** ****** ****** ******
  21  ****** ****** ****** ****** ****** ****** ****** ****** ****** ******
      ****** ****** ****** ****** ****** ****** ****** ****** ****** ******
      ****** ****** ****** ****** ****** ****** ****** ****** ****** ******
  22  ****** ****** ****** ****** ****** ****** ****** ****** ****** ******
      ****** ****** ****** ****** ****** ****** ****** ****** ****** ******
      ****** ****** ****** ****** ****** ****** ****** ****** ****** ******
  23  ****** ****** ****** ****** ****** ****** ****** ****** ****** ******
      ****** ****** ****** ****** ****** ****** ****** ****** ****** ******
      ****** ****** ****** ****** ****** ****** ****** ****** ****** ******
  24  ****** ****** ****** ****** ****** ****** ****** ****** ****** ******
      ****** ****** ****** ****** ****** ****** ****** ****** ****** ******
      ****** ****** ****** ****** ****** ****** ****** ****** ****** ******
  25  ****** ****** ****** ****** ****** ****** ****** ****** ****** ******
      ****** ****** ****** ****** ****** ****** ****** ****** ****** ******
      ****** ****** ****** ****** ****** ****** ****** ****** ****** ******

 HEAD WILL BE SAVED ON UNIT   51 AT END OF TIME STEP    1, STRESS PERIOD   12
1
  VOLUMETRIC BUDGET FOR ENTIRE MODEL AT END OF TIME STEP    1, STRESS PERIOD  12
  ------------------------------------------------------------------------------

     CUMULATIVE VOLUMES      L**3       RATES FOR THIS TIME STEP      L**3/T
     ------------------                 ------------------------

           IN:                                      IN:
           ---                                      ---
             STORAGE =    34155439.7407               STORAGE =           4.7694
       CONSTANT HEAD =    29783409.5603         CONSTANT HEAD =       31997.6968
               WELLS =           0.0000                 WELLS =           0.0000
            RECHARGE =    26413200.0000              RECHARGE =       27600.0000
      STREAM LEAKAGE =    33452050.3595        STREAM LEAKAGE =       33559.1361

            TOTAL IN =   123804099.6604              TOTAL IN =       93161.6023

          OUT:                                     OUT:
          ----                                     ----
             STORAGE =     2717433.2520               STORAGE =        3075.9535
       CONSTANT HEAD =           0.0000         CONSTANT HEAD =           0.0000
               WELLS =    47097511.6215                 WELLS =       43011.4261
            RECHARGE =           0.0000              RECHARGE =           0.0000
      STREAM LEAKAGE =    73989156.5562        STREAM LEAKAGE =       47074.2218

           TOTAL OUT =   123804101.4297             TOTAL OUT =       93161.6014

            IN - OUT =          -1.7693              IN - OUT =       9.0733E-04

 PERCENT DISCREPANCY =          -0.00     PERCENT DISCREPANCY =           0.00






         TIME SUMMARY AT END OF TIME STEP    1 IN STRESS PERIOD   12
                    SECONDS     MINUTES      HOURS       DAYS        YEARS
                    -----------------------------------------------------------
   TIME STEP LENGTH 7.86240E+06 1.31040E+05  2184.0      91.000     0.24914    
 STRESS PERIOD TIME 7.86240E+06 1.31040E+05  2184.0      91.000     0.24914    
         TOTAL TIME 9.46080E+07 1.57680E+06  26280.      1095.0      2.9979    
1

 Run end date and time (yyyy/mm/dd hh:mm:ss): 2019/03/28 22:44:54
 Elapsed run time:  0.318 Seconds

