                                  MODFLOW-2005     
      U.S. GEOLOGICAL SURVEY MODULAR FINITE-DIFFERENCE GROUND-WATER FLOW MODEL
                            VERSION 1.11.00 8/8/2013

 LIST FILE: supply2.lst
                         UNIT   10

 OPENING ..\data\supply.dis
 FILE TYPE:DIS   UNIT   11   STATUS:OLD    
 FORMAT:FORMATTED              ACCESS:SEQUENTIAL          

 OPENING ..\data\supply.ba6
 FILE TYPE:BAS6   UNIT   12   STATUS:OLD    
 FORMAT:FORMATTED              ACCESS:SEQUENTIAL          

 OPENING ..\data\supply_het.bc6
 FILE TYPE:BCF6   UNIT   13   STATUS:OLD    
 FORMAT:FORMATTED              ACCESS:SEQUENTIAL          

 OPENING ..\data\supply.rch
 FILE TYPE:RCH   UNIT   15   STATUS:OLD    
 FORMAT:FORMATTED              ACCESS:SEQUENTIAL          

 OPENING ..\data\supply2.sfr
 FILE TYPE:SFR   UNIT   16   STATUS:OLD    
 FORMAT:FORMATTED              ACCESS:SEQUENTIAL          

 OPENING ..\data\supply.oc
 FILE TYPE:OC   UNIT   17   STATUS:OLD    
 FORMAT:FORMATTED              ACCESS:SEQUENTIAL          

 OPENING ..\data\supply.pcg
 FILE TYPE:PCG   UNIT   18   STATUS:OLD    
 FORMAT:FORMATTED              ACCESS:SEQUENTIAL          

 OPENING supply2.wel
 FILE TYPE:WEL   UNIT   19   STATUS:OLD    
 FORMAT:FORMATTED              ACCESS:SEQUENTIAL          

 OPENING supply2sf.cbc
 FILE TYPE:DATA(BINARY)   UNIT   50   STATUS:UNKNOWN
 FORMAT:BINARY                 ACCESS:SEQUENTIAL          

 OPENING supply2hd.bhd
 FILE TYPE:DATA(BINARY)   UNIT   51   STATUS:UNKNOWN
 FORMAT:BINARY                 ACCESS:SEQUENTIAL          

 BAS -- BASIC PACKAGE, VERSION 7, 5/2/2005 INPUT READ FROM UNIT   12
 
 MODFLOW was compiled using uniform precision
 Precision of REAL and DOUBLE PRECISION variables:          15

 DISCRETIZATION INPUT DATA READ FROM UNIT   11
    1 LAYERS        25 ROWS        30 COLUMNS
   12 STRESS PERIOD(S) IN SIMULATION
 MODEL TIME UNIT IS DAYS
 MODEL LENGTH UNIT IS UNDEFINED
  Confining bed flag for each layer:
   0

                     DELR =   200.000    

                     DELC =   200.000    

 TOP ELEVATION OF LAYER 1 =  100.0000    

   MODEL LAYER BOTTOM EL. =   0.00000     FOR LAYER   1


 STRESS PERIOD     LENGTH       TIME STEPS     MULTIPLIER FOR DELT    SS FLAG
 ----------------------------------------------------------------------------
        1         92.00000          1                    1.500         TR
        2         91.00000          1                    1.500         TR
        3         91.00000          1                    1.500         TR
        4         91.00000          1                    1.500         TR
        5         92.00000          1                    1.500         TR
        6         91.00000          1                    1.500         TR
        7         91.00000          1                    1.500         TR
        8         91.00000          1                    1.500         TR
        9         92.00000          1                    1.500         TR
       10         91.00000          1                    1.500         TR
       11         91.00000          1                    1.500         TR
       12         91.00000          1                    1.500         TR

 TRANSIENT SIMULATION



 
 #MODOFC transient water supply sample problem                                   
 #                                                                               
 THE FREE FORMAT OPTION HAS BEEN SELECTED



                     BOUNDARY ARRAY FOR LAYER   1
 READING ON UNIT   12 WITH FORMAT: (20I4)              

 AQUIFER HEAD WILL BE SET TO   0.0000     AT ALL NO-FLOW NODES (IBOUND=0).



                       INITIAL HEAD FOR LAYER   1
 READING ON UNIT   12 WITH FORMAT: (10F13.0)           

 OUTPUT CONTROL IS SPECIFIED ONLY AT TIME STEPS FOR WHICH OUTPUT IS DESIRED
 COMPACT CELL-BY-CELL BUDGET FILES WILL BE WRITTEN
 HEAD PRINT FORMAT CODE IS  18    DRAWDOWN PRINT FORMAT CODE IS   0
 HEADS WILL BE SAVED ON UNIT   51    DRAWDOWNS WILL BE SAVED ON UNIT    0

 BCF -- BLOCK-CENTERED FLOW PACKAGE, VERSION 7, 5/2/2005
         INPUT READ FROM UNIT 13
 TRANSIENT SIMULATION
 HEAD AT CELLS THAT CONVERT TO DRY=   0.0000    
 WETTING CAPABILITY IS NOT ACTIVE
      LAYER  LAYER-TYPE CODE     INTERBLOCK T
      --------------------------------------------
         1            0          0 -- HARMONIC    

 COLUMN TO ROW ANISOTROPY =  1.000000    

     PRIMARY STORAGE COEF =  5.000000E-02 FOR LAYER   1



               TRANSMIS. ALONG ROWS FOR LAYER   1
 READING ON UNIT   13 WITH FORMAT: (FREE)              

 WEL -- WELL PACKAGE, VERSION 7, 5/2/2005 INPUT READ FROM UNIT   19
 # Well package input file written by MMProc
 No named parameters
 MAXIMUM OF      8 ACTIVE WELLS AT ONE TIME


     0 Well parameters

 RCH -- RECHARGE PACKAGE, VERSION 7, 5/2/2005 INPUT READ FROM UNIT   15
 No named parameters
 OPTION 1 -- RECHARGE TO TOP LAYER


     0 Recharge parameters

 SFR7 -- STREAMFLOW ROUTING PACKAGE, VERSION 1.0.7, 2013-01-15
         INPUT READ FROM UNIT  16
 #  Supply2 test problem for GWM-VI
 #  The eighth entry in the first data line is ISTCB2 -
 #    Setting this to a negative number indicates that
 #    streamflows out of the reach will be saved to a
 #    binary file.  The absolute value of ISTCB2 is the
 #    unit to which unformatted flows will be written.
 #
 No named parameters
 Segment information will not be 
 read by reach
 No named parameters
 No specifed inflow files


 NUMBER OF STREAM REACHES IS   40

 NUMBER OF STREAM SEGMENTS IS    3

 NUMBER OF STREAM PARAMETERS IS    0

 NUMBER OF STREAM SEGMENTS DEFINED USING PARAMETERS IS              0

 MAXIMUM ERROR FOR STREAM LEAKAGE RATES IS  1.00E-04

 CONSTANT FOR MANNINGS EQUATION IS  1.2839E+05





   STREAM NETWORK DESCRIPTION: 

   LAYER    ROW    COL   SEGMENT   REACH     LENGTH
                          NUMBER   NUMBER    IN CELL        
   --------------------------------------------------
      1     13      1       1        1    2.0000E+02
      1     13      2       1        2    2.0000E+02
      1     14      3       1        3    2.0000E+02
      1     15      4       1        4    2.0000E+02
      1     16      5       1        5    2.0000E+02
      1     16      6       1        6    2.0000E+02
      1     16      7       1        7    2.0000E+02
      1     16      8       1        8    2.0000E+02
      1     16      9       1        9    2.0000E+02
      1     16     10       1       10    2.0000E+02
      1     16     11       1       11    2.0000E+02
      1     16     12       1       12    2.0000E+02
      1     15     13       1       13    2.0000E+02
      1     14     14       1       14    2.0000E+02
      1     13     15       1       15    2.0000E+02
      1     12     16       1       16    2.0000E+02
      1     12     17       1       17    2.0000E+02
      1     12     18       1       18    2.0000E+02
      1     12     19       1       19    2.0000E+02
      1     13     20       1       20    2.0000E+02
      1     14     21       1       21    2.0000E+02
      1     14     22       1       22    2.0000E+02
      1      9     30       2        1    2.0000E+02
      1      9     29       2        2    2.0000E+02
      1      9     28       2        3    2.0000E+02
      1      9     27       2        4    2.0000E+02
      1     10     26       2        5    2.0000E+02
      1     11     25       2        6    2.0000E+02
      1     12     24       2        7    2.0000E+02
      1     13     23       2        8    2.0000E+02
      1     14     22       2        9    2.0000E+02
      1     14     22       3        1    2.0000E+02
      1     15     23       3        2    2.0000E+02
      1     15     24       3        3    2.0000E+02
      1     15     25       3        4    2.0000E+02
      1     15     26       3        5    2.0000E+02
      1     16     27       3        6    2.0000E+02
      1     17     28       3        7    2.0000E+02
      1     18     29       3        8    2.0000E+02
      1     18     30       3        9    2.0000E+02




 PCG -- CONJUGATE-GRADIENT SOLUTION PACKAGE, VERSION 7, 5/2/2005
 MAXIMUM OF    500 CALLS OF SOLUTION ROUTINE
 MAXIMUM OF      5 INTERNAL ITERATIONS PER CALL TO SOLUTION ROUTINE
 MATRIX PRECONDITIONING TYPE :    1



                                    SOLUTION BY THE CONJUGATE-GRADIENT METHOD
                                   -------------------------------------------
                    MAXIMUM NUMBER OF CALLS TO PCG ROUTINE =      500
                        MAXIMUM ITERATIONS PER CALL TO PCG =        5
                               MATRIX PRECONDITIONING TYPE =        1
        RELAXATION FACTOR (ONLY USED WITH PRECOND. TYPE 1) =    0.10000E+01
 PARAMETER OF POLYNOMIAL PRECOND. = 2 (2) OR IS CALCULATED :        0
                         HEAD CHANGE CRITERION FOR CLOSURE =    0.10000E-05
                     RESIDUAL CHANGE CRITERION FOR CLOSURE =    0.10000E+01
            PCG HEAD AND RESIDUAL CHANGE PRINTOUT INTERVAL =        1
     PRINTING FROM SOLVER IS LIMITED(1) OR SUPPRESSED (>1) =        1
                            STEADY-STATE DAMPING PARAMETER =    0.10000E+01
                               TRANSIENT DAMPING PARAMETER =    0.10000E+01
1
                            STRESS PERIOD NO.    1, LENGTH =   92.00000    
                            -----------------------------------------------

                              NUMBER OF TIME STEPS =     1

                               MULTIPLIER FOR DELT =     1.500

                            INITIAL TIME STEP SIZE =   92.00000    

 WELL NO.  LAYER   ROW   COL   STRESS RATE         
 --------------------------------------------------
      1      1     14      6       0.000    
      2      1      3      9       0.000    
      3      1     20     10       0.000    
      4      1     14     20       0.000    
      5      1     15     19     -0.1065E+05
      6      1     15     28      -8067.    
      7      1     19     14      -9238.    
      8      1      9     25     -0.1018E+05

      8 WELLS

                 RECHARGE =  5.000000E-04



 CLASSIFICATION & COUNT OF STREAM SEGMENTS BASED ON SOURCE OF INFLOW:

                HEADWATER     DIVERSION     RECEIVES TRIBUTARY FLOW
                ---------     ---------     -----------------------
                     2              0               1



                    INPUT DATA FOR EACH STREAM SEGMENT
 ---------------------------------------------------------------------------------------------

 SEGMENT    SEG.     INFLOW   OVERLAND   STREAM    STREAM   ICALC  OUTFLOW  DIVERSION PRIORITY
    NO.    LENGTH     RATE     RUNOFF      ET       PPT.    METH.  TO SEG.  FROM SEG.    NO.

      1  4.400E+03 1.000E+05 0.000E+00 0.000E+00 0.000E+00    1        3        0        0
      2  1.800E+03 5.000E+04 0.000E+00 0.000E+00 0.000E+00    1        3        0        0
      3  1.800E+03 0.000E+00 0.000E+00 0.000E+00 0.000E+00    1        0        0        0


         STREAMBED PROPERTIES AND STREAM DIMENSIONS

 SEGMENT     BED HYD. COND.      BED THICKNESS     ELEV.-TOP OF BED     WIDTH OF STREAM     DEPTH OF STREAM    STREAM ROUGHNESS
    No.     UPPER     LOWER     UPPER     LOWER     UPPER     LOWER     UPPER     LOWER     UPPER     LOWER   CHANNEL      BANK

     1  5.000E+00 5.000E+00 1.000E+00 1.000E+00 4.850E+01 3.800E+01 2.000E+01 2.000E+01                     5.000E-02
     2  5.000E+00 5.000E+00 1.000E+00 1.000E+00 4.025E+01 3.800E+01 2.000E+01 2.000E+01                     5.000E-02
     3  5.000E+00 5.000E+00 1.000E+00 1.000E+00 3.800E+01 3.000E+01 2.000E+01 2.000E+01                     5.000E-02



 
 SOLVING FOR HEAD 


     9 CALLS TO PCG ROUTINE FOR TIME STEP   1 IN STRESS PERIOD    1
    36 TOTAL ITERATIONS

 OUTPUT CONTROL FOR STRESS PERIOD    1   TIME STEP    1
    SAVE BUDGET
    SAVE HEAD FOR ALL LAYERS
    PRINT HEAD FOR ALL LAYERS
 UBDSV2 SAVING "STREAMFLOW OUT  " ON UNIT  50 AT TIME STEP  1, STRESS PERIOD   1



 STREAM LISTING     PERIOD      1   STEP        1

 LAYER ROW COL. STREAM  RCH.  FLOW INTO     FLOW TO   FLOW OUT OF   OVRLND.     DIRECT     STREAM       STREAM     STREAM     STREAM   STREAMBED  STREAMBED
                SEG.NO.  NO.  STRM. RCH.    AQUIFER    STRM. RCH.    RUNOFF     PRECIP       ET          HEAD       DEPTH      WIDTH   CONDCTNC.   GRADIENT

   1   13    1     1     1    1.0000E+05 -6.1156E+03   1.0612E+05  0.000E+00  0.000E+00  0.000E+00  4.84087E+01  1.473E-01  2.000E+01  2.000E+04 -3.058E-01
   1   13    2     1     2    1.0612E+05 -7.5857E+03   1.1370E+05  0.000E+00  0.000E+00  0.000E+00  4.79372E+01  1.531E-01  2.000E+01  2.000E+04 -3.793E-01
   1   14    3     1     3    1.1370E+05 -2.1961E+03   1.1590E+05  0.000E+00  0.000E+00  0.000E+00  4.74640E+01  1.571E-01  2.000E+01  2.000E+04 -1.098E-01
   1   15    4     1     4    1.1590E+05 -2.2644E+03   1.1816E+05  0.000E+00  0.000E+00  0.000E+00  4.69885E+01  1.590E-01  2.000E+01  2.000E+04 -1.132E-01
   1   16    5     1     5    1.1816E+05 -7.1147E+03   1.2528E+05  0.000E+00  0.000E+00  0.000E+00  4.65150E+01  1.628E-01  2.000E+01  2.000E+04 -3.557E-01
   1   16    6     1     6    1.2528E+05 -4.2410E+03   1.2952E+05  0.000E+00  0.000E+00  0.000E+00  4.60423E+01  1.673E-01  2.000E+01  2.000E+04 -2.121E-01
   1   16    7     1     7    1.2952E+05 -4.0522E+03   1.3357E+05  0.000E+00  0.000E+00  0.000E+00  4.55682E+01  1.705E-01  2.000E+01  2.000E+04 -2.026E-01
   1   16    8     1     8    1.3357E+05 -3.9733E+03   1.3754E+05  0.000E+00  0.000E+00  0.000E+00  4.50941E+01  1.736E-01  2.000E+01  2.000E+04 -1.987E-01
   1   16    9     1     9    1.3754E+05 -3.9032E+03   1.4145E+05  0.000E+00  0.000E+00  0.000E+00  4.46198E+01  1.766E-01  2.000E+01  2.000E+04 -1.952E-01
   1   16   10     1    10    1.4145E+05 -3.8063E+03   1.4525E+05  0.000E+00  0.000E+00  0.000E+00  4.41454E+01  1.795E-01  2.000E+01  2.000E+04 -1.903E-01
   1   16   11     1    11    1.4525E+05 -3.6793E+03   1.4893E+05  0.000E+00  0.000E+00  0.000E+00  4.36710E+01  1.823E-01  2.000E+01  2.000E+04 -1.840E-01
   1   16   12     1    12    1.4893E+05 -5.8758E+03   1.5481E+05  0.000E+00  0.000E+00  0.000E+00  4.31972E+01  1.859E-01  2.000E+01  2.000E+04 -2.938E-01
   1   15   13     1    13    1.5481E+05 -6.4603E+03   1.6127E+05  0.000E+00  0.000E+00  0.000E+00  4.27245E+01  1.904E-01  2.000E+01  2.000E+04 -3.230E-01
   1   14   14     1    14    1.6127E+05 -7.1122E+03   1.6838E+05  0.000E+00  0.000E+00  0.000E+00  4.22520E+01  1.952E-01  2.000E+01  2.000E+04 -3.556E-01
   1   13   15     1    15    1.6838E+05 -7.5683E+03   1.7595E+05  0.000E+00  0.000E+00  0.000E+00  4.17799E+01  2.004E-01  2.000E+01  2.000E+04 -3.784E-01
   1   12   16     1    16    1.7595E+05 -8.5505E+03   1.8450E+05  0.000E+00  0.000E+00  0.000E+00  4.13082E+01  2.060E-01  2.000E+01  2.000E+04 -4.275E-01
   1   12   17     1    17    1.8450E+05 -5.7883E+03   1.9029E+05  0.000E+00  0.000E+00  0.000E+00  4.08359E+01  2.109E-01  2.000E+01  2.000E+04 -2.894E-01
   1   12   18     1    18    1.9029E+05 -5.4470E+03   1.9573E+05  0.000E+00  0.000E+00  0.000E+00  4.03623E+01  2.146E-01  2.000E+01  2.000E+04 -2.723E-01
   1   12   19     1    19    1.9573E+05 -6.9364E+03   2.0267E+05  0.000E+00  0.000E+00  0.000E+00  3.98892E+01  2.187E-01  2.000E+01  2.000E+04 -3.468E-01
   1   13   20     1    20    2.0267E+05 -5.0909E+03   2.0776E+05  0.000E+00  0.000E+00  0.000E+00  3.94158E+01  2.227E-01  2.000E+01  2.000E+04 -2.545E-01
   1   14   21     1    21    2.0776E+05 -4.4646E+03   2.1223E+05  0.000E+00  0.000E+00  0.000E+00  3.89417E+01  2.258E-01  2.000E+01  2.000E+04 -2.232E-01
   1   14   22     1    22    2.1223E+05  3.9033E+03   2.0832E+05  0.000E+00  0.000E+00  0.000E+00  3.84646E+01  2.259E-01  2.000E+01  2.000E+04  1.952E-01
   1    9   30     2     1    5.0000E+04 -4.4366E+03   5.4437E+04  0.000E+00  0.000E+00  0.000E+00  4.02439E+01  1.189E-01  2.000E+01  2.000E+04 -2.218E-01
   1    9   29     2     2    5.4437E+04 -4.7154E+03   5.9152E+04  0.000E+00  0.000E+00  0.000E+00  4.00001E+01  1.251E-01  2.000E+01  2.000E+04 -2.358E-01
   1    9   28     2     3    5.9152E+04 -4.9252E+03   6.4077E+04  0.000E+00  0.000E+00  0.000E+00  3.97563E+01  1.313E-01  2.000E+01  2.000E+04 -2.463E-01
   1    9   27     2     4    6.4077E+04 -6.4716E+03   7.0549E+04  0.000E+00  0.000E+00  0.000E+00  3.95135E+01  1.385E-01  2.000E+01  2.000E+04 -3.236E-01
   1   10   26     2     5    7.0549E+04 -4.5960E+03   7.5145E+04  0.000E+00  0.000E+00  0.000E+00  3.92702E+01  1.452E-01  2.000E+01  2.000E+04 -2.298E-01
   1   11   25     2     6    7.5145E+04 -4.9711E+03   8.0116E+04  0.000E+00  0.000E+00  0.000E+00  3.90259E+01  1.509E-01  2.000E+01  2.000E+04 -2.486E-01
   1   12   24     2     7    8.0116E+04 -5.6625E+03   8.5778E+04  0.000E+00  0.000E+00  0.000E+00  3.87820E+01  1.570E-01  2.000E+01  2.000E+04 -2.831E-01
   1   13   23     2     8    8.5778E+04 -1.6005E+03   8.7379E+04  0.000E+00  0.000E+00  0.000E+00  3.85361E+01  1.611E-01  2.000E+01  2.000E+04 -8.003E-02
   1   14   22     2     9    8.7379E+04  3.4718E+02   8.7032E+04  0.000E+00  0.000E+00  0.000E+00  3.82868E+01  1.618E-01  2.000E+01  2.000E+04  1.736E-02
   1   14   22     3     1    2.9535E+05 -9.6346E+03   3.0499E+05  0.000E+00  0.000E+00  0.000E+00  3.77877E+01  2.321E-01  2.000E+01  2.000E+04 -4.817E-01
   1   15   23     3     2    3.0499E+05 -1.8367E+03   3.0683E+05  0.000E+00  0.000E+00  0.000E+00  3.69014E+01  2.348E-01  2.000E+01  2.000E+04 -9.184E-02
   1   15   24     3     3    3.0683E+05 -1.5068E+03   3.0833E+05  0.000E+00  0.000E+00  0.000E+00  3.60133E+01  2.355E-01  2.000E+01  2.000E+04 -7.534E-02
   1   15   25     3     4    3.0833E+05 -1.5549E+03   3.0989E+05  0.000E+00  0.000E+00  0.000E+00  3.51251E+01  2.362E-01  2.000E+01  2.000E+04 -7.774E-02
   1   15   26     3     5    3.0989E+05 -1.6250E+03   3.1151E+05  0.000E+00  0.000E+00  0.000E+00  3.42370E+01  2.370E-01  2.000E+01  2.000E+04 -8.125E-02
   1   16   27     3     6    3.1151E+05 -1.5778E+03   3.1309E+05  0.000E+00  0.000E+00  0.000E+00  3.33488E+01  2.377E-01  2.000E+01  2.000E+04 -7.889E-02
   1   17   28     3     7    3.1309E+05 -4.0353E+03   3.1713E+05  0.000E+00  0.000E+00  0.000E+00  3.24612E+01  2.390E-01  2.000E+01  2.000E+04 -2.018E-01
   1   18   29     3     8    3.1713E+05 -7.3468E+03   3.2447E+05  0.000E+00  0.000E+00  0.000E+00  3.15749E+01  2.416E-01  2.000E+01  2.000E+04 -3.673E-01
   1   18   30     3     9    3.2447E+05 -6.5005E+03   3.3097E+05  0.000E+00  0.000E+00  0.000E+00  3.06891E+01  2.447E-01  2.000E+01  2.000E+04 -3.250E-01



1
              HEAD IN LAYER   1 AT END OF TIME STEP   1 IN STRESS PERIOD    1
  ---------------------------------------------------------------------------

          1      2      3      4      5      6      7      8      9     10
         11     12     13     14     15     16     17     18     19     20
         21     22     23     24     25     26     27     28     29     30
 .........................................................................
   1  ****** ****** ****** ****** ****** ****** ****** ****** ****** ******
      ****** ****** ****** ****** ****** ****** ****** ****** ****** ******
      ****** ****** ****** ****** ****** ****** ****** ****** ****** ******
   2  ****** ****** ****** ****** ****** ****** ****** ****** ****** ******
      ****** ****** ****** ****** ****** ****** ****** ****** ****** ******
      ****** ****** ****** ****** ****** ****** ****** ****** ****** ******
   3  ****** ****** ****** ****** ****** ****** ****** ****** ****** ******
      ****** ****** ****** ****** ****** ****** ****** ****** ****** ******
      ****** ****** ****** ****** ****** ****** ****** ****** ****** ******
   4  ****** ****** ****** ****** ****** ****** ****** ****** ****** ******
      ****** ****** ****** ****** ****** ****** ****** ****** ****** ******
      ****** ****** ****** ****** ****** ****** ****** ****** ****** ******
   5  ****** ****** ****** ****** ****** ****** ****** ****** ****** ******
      ****** ****** ****** ****** ****** ****** ****** ****** ****** ******
      ****** ****** ****** ****** ****** ****** ****** ****** ****** ******
   6  ****** ****** ****** ****** ****** ****** ****** ****** ****** ******
      ****** ****** ****** ****** ****** ****** ****** ****** ****** ******
      ****** ****** ****** ****** ****** ****** ****** ****** ****** ******
   7  ****** ****** ****** ****** ****** ****** ****** ****** ****** ******
      ****** ****** ****** ****** ****** ****** ****** ****** ****** ******
      ****** ****** ****** ****** ****** ****** ****** ****** ****** ******
   8  ****** ****** ****** ****** ****** ****** ****** ****** ****** ******
      ****** ****** ****** ****** ****** ****** ****** ****** ****** ******
      ****** ****** ****** ****** ****** ****** ****** ****** ****** ******
   9  ****** ****** ****** ****** ****** ****** ****** ****** ****** ******
      ****** ****** ****** ****** ****** ****** ****** ****** ****** ******
      ****** ****** ****** ****** ****** ****** ****** ****** ****** ******
  10  ****** ****** ****** ****** ****** ****** ****** ****** ****** ******
      ****** ****** ****** ****** ****** ****** ****** ****** ****** ******
      ****** ****** ****** ****** ****** ****** ****** ****** ****** ******
  11  ****** ****** ****** ****** ****** ****** ****** ****** ****** ******
      ****** ****** ****** ****** ****** ****** ****** ****** ****** ******
      ****** ****** ****** ****** ****** ****** ****** ****** ****** ******
  12  ****** ****** ****** ****** ****** ****** ****** ****** ****** ******
      ****** ****** ****** ****** ****** ****** ****** ****** ****** ******
      ****** ****** ****** ****** ****** ****** ****** ****** ****** ******
  13  ****** ****** ****** ****** ****** ****** ****** ****** ****** ******
      ****** ****** ****** ****** ****** ****** ****** ****** ****** ******
      ****** ****** ****** ****** ****** ****** ****** ****** ****** ******
  14  ****** ****** ****** ****** ****** ****** ****** ****** ****** ******
      ****** ****** ****** ****** ****** ****** ****** ****** ****** ******
      ****** ****** ****** ****** ****** ****** ****** ****** ****** ******
  15  ****** ****** ****** ****** ****** ****** ****** ****** ****** ******
      ****** ****** ****** ****** ****** ****** ****** ****** ****** ******
      ****** ****** ****** ****** ****** ****** ****** ****** ****** ******
  16  ****** ****** ****** ****** ****** ****** ****** ****** ****** ******
      ****** ****** ****** ****** ****** ****** ****** ****** ****** ******
      ****** ****** ****** ****** ****** ****** ****** ****** ****** ******
  17  ****** ****** ****** ****** ****** ****** ****** ****** ****** ******
      ****** ****** ****** ****** ****** ****** ****** ****** ****** ******
      ****** ****** ****** ****** ****** ****** ****** ****** ****** ******
  18  ****** ****** ****** ****** ****** ****** ****** ****** ****** ******
      ****** ****** ****** ****** ****** ****** ****** ****** ****** ******
      ****** ****** ****** ****** ****** ****** ****** ****** ****** ******
  19  ****** ****** ****** ****** ****** ****** ****** ****** ****** ******
      ****** ****** ****** ****** ****** ****** ****** ****** ****** ******
      ****** ****** ****** ****** ****** ****** ****** ****** ****** ******
  20  ****** ****** ****** ****** ****** ****** ****** ****** ****** ******
      ****** ****** ****** ****** ****** ****** ****** ****** ****** ******
      ****** ****** ****** ****** ****** ****** ****** ****** ****** ******
  21  ****** ****** ****** ****** ****** ****** ****** ****** ****** ******
      ****** ****** ****** ****** ****** ****** ****** ****** ****** ******
      ****** ****** ****** ****** ****** ****** ****** ****** ****** ******
  22  ****** ****** ****** ****** ****** ****** ****** ****** ****** ******
      ****** ****** ****** ****** ****** ****** ****** ****** ****** ******
      ****** ****** ****** ****** ****** ****** ****** ****** ****** ******
  23  ****** ****** ****** ****** ****** ****** ****** ****** ****** ******
      ****** ****** ****** ****** ****** ****** ****** ****** ****** ******
      ****** ****** ****** ****** ****** ****** ****** ****** ****** ******
  24  ****** ****** ****** ****** ****** ****** ****** ****** ****** ******
      ****** ****** ****** ****** ****** ****** ****** ****** ****** ******
      ****** ****** ****** ****** ****** ****** ****** ****** ****** ******
  25  ****** ****** ****** ****** ****** ****** ****** ****** ****** ******
      ****** ****** ****** ****** ****** ****** ****** ****** ****** ******
      ****** ****** ****** ****** ****** ****** ****** ****** ****** ******

 HEAD WILL BE SAVED ON UNIT   51 AT END OF TIME STEP    1, STRESS PERIOD    1
1
  VOLUMETRIC BUDGET FOR ENTIRE MODEL AT END OF TIME STEP    1, STRESS PERIOD   1
  ------------------------------------------------------------------------------

     CUMULATIVE VOLUMES      L**3       RATES FOR THIS TIME STEP      L**3/T
     ------------------                 ------------------------

           IN:                                      IN:
           ---                                      ---
             STORAGE =    17746198.8674               STORAGE =      192893.4659
       CONSTANT HEAD =     1141966.0404         CONSTANT HEAD =       12412.6744
               WELLS =           0.0000                 WELLS =           0.0000
            RECHARGE =     1269600.0000              RECHARGE =       13800.0000
      STREAM LEAKAGE =      391047.0292        STREAM LEAKAGE =        4250.5112

            TOTAL IN =    20548811.9370              TOTAL IN =      223356.6515

          OUT:                                     OUT:
          ----                                     ----
             STORAGE =           0.0000               STORAGE =           0.0000
       CONSTANT HEAD =           0.0000         CONSTANT HEAD =           0.0000
               WELLS =     3508243.2894                 WELLS =       38133.0792
            RECHARGE =           0.0000              RECHARGE =           0.0000
      STREAM LEAKAGE =    17040568.9412        STREAM LEAKAGE =      185223.5754

           TOTAL OUT =    20548812.2306             TOTAL OUT =      223356.6547

            IN - OUT =          -0.2936              IN - OUT =      -3.1916E-03

 PERCENT DISCREPANCY =          -0.00     PERCENT DISCREPANCY =          -0.00






         TIME SUMMARY AT END OF TIME STEP    1 IN STRESS PERIOD    1
                    SECONDS     MINUTES      HOURS       DAYS        YEARS
                    -----------------------------------------------------------
   TIME STEP LENGTH 7.94880E+06 1.32480E+05  2208.0      92.000     0.25188    
 STRESS PERIOD TIME 7.94880E+06 1.32480E+05  2208.0      92.000     0.25188    
         TOTAL TIME 7.94880E+06 1.32480E+05  2208.0      92.000     0.25188    
1
1
                            STRESS PERIOD NO.    2, LENGTH =   91.00000    
                            -----------------------------------------------

                              NUMBER OF TIME STEPS =     1

                               MULTIPLIER FOR DELT =     1.500

                            INITIAL TIME STEP SIZE =   91.00000    

 WELL NO.  LAYER   ROW   COL   STRESS RATE         
 --------------------------------------------------
      1      1     14      6       0.000    
      2      1      3      9       0.000    
      3      1     20     10       0.000    
      4      1     14     20       0.000    
      5      1     15     19     -0.1065E+05
      6      1     15     28      -8067.    
      7      1     19     14      -9238.    
      8      1      9     25     -0.1018E+05

      8 WELLS

                 RECHARGE =  2.000000E-03

 REUSING STREAM SEGMENT DATA FROM LAST STRESS PERIOD
 
 SOLVING FOR HEAD 


     7 CALLS TO PCG ROUTINE FOR TIME STEP   1 IN STRESS PERIOD    2
    27 TOTAL ITERATIONS

 OUTPUT CONTROL FOR STRESS PERIOD    2   TIME STEP    1
    SAVE BUDGET
    SAVE HEAD FOR ALL LAYERS
    PRINT HEAD FOR ALL LAYERS
 UBDSV2 SAVING "STREAMFLOW OUT  " ON UNIT  50 AT TIME STEP  1, STRESS PERIOD   2



 STREAM LISTING     PERIOD      2   STEP        1

 LAYER ROW COL. STREAM  RCH.  FLOW INTO     FLOW TO   FLOW OUT OF   OVRLND.     DIRECT     STREAM       STREAM     STREAM     STREAM   STREAMBED  STREAMBED
                SEG.NO.  NO.  STRM. RCH.    AQUIFER    STRM. RCH.    RUNOFF     PRECIP       ET          HEAD       DEPTH      WIDTH   CONDCTNC.   GRADIENT

   1   13    1     1     1    1.0000E+05 -3.9948E+03   1.0399E+05  0.000E+00  0.000E+00  0.000E+00  4.84077E+01  1.464E-01  2.000E+01  2.000E+04 -1.997E-01
   1   13    2     1     2    1.0399E+05 -5.2583E+03   1.0925E+05  0.000E+00  0.000E+00  0.000E+00  4.79344E+01  1.503E-01  2.000E+01  2.000E+04 -2.629E-01
   1   14    3     1     3    1.0925E+05 -1.1099E+03   1.1036E+05  0.000E+00  0.000E+00  0.000E+00  4.74598E+01  1.530E-01  2.000E+01  2.000E+04 -5.550E-02
   1   15    4     1     4    1.1036E+05 -1.1316E+03   1.1149E+05  0.000E+00  0.000E+00  0.000E+00  4.69835E+01  1.539E-01  2.000E+01  2.000E+04 -5.658E-02
   1   16    5     1     5    1.1149E+05 -4.1152E+03   1.1561E+05  0.000E+00  0.000E+00  0.000E+00  4.65084E+01  1.561E-01  2.000E+01  2.000E+04 -2.058E-01
   1   16    6     1     6    1.1561E+05 -2.3949E+03   1.1800E+05  0.000E+00  0.000E+00  0.000E+00  4.60338E+01  1.588E-01  2.000E+01  2.000E+04 -1.197E-01
   1   16    7     1     7    1.1800E+05 -2.2664E+03   1.2027E+05  0.000E+00  0.000E+00  0.000E+00  4.55584E+01  1.607E-01  2.000E+01  2.000E+04 -1.133E-01
   1   16    8     1     8    1.2027E+05 -2.1829E+03   1.2245E+05  0.000E+00  0.000E+00  0.000E+00  4.50829E+01  1.625E-01  2.000E+01  2.000E+04 -1.091E-01
   1   16    9     1     9    1.2245E+05 -2.0807E+03   1.2453E+05  0.000E+00  0.000E+00  0.000E+00  4.46074E+01  1.642E-01  2.000E+01  2.000E+04 -1.040E-01
   1   16   10     1    10    1.2453E+05 -1.9321E+03   1.2647E+05  0.000E+00  0.000E+00  0.000E+00  4.41317E+01  1.658E-01  2.000E+01  2.000E+04 -9.661E-02
   1   16   11     1    11    1.2647E+05 -1.7303E+03   1.2820E+05  0.000E+00  0.000E+00  0.000E+00  4.36559E+01  1.672E-01  2.000E+01  2.000E+04 -8.651E-02
   1   16   12     1    12    1.2820E+05 -2.6197E+03   1.3082E+05  0.000E+00  0.000E+00  0.000E+00  4.31803E+01  1.689E-01  2.000E+01  2.000E+04 -1.310E-01
   1   15   13     1    13    1.3082E+05 -2.9579E+03   1.3377E+05  0.000E+00  0.000E+00  0.000E+00  4.27052E+01  1.711E-01  2.000E+01  2.000E+04 -1.479E-01
   1   14   14     1    14    1.3377E+05 -3.5520E+03   1.3733E+05  0.000E+00  0.000E+00  0.000E+00  4.22304E+01  1.736E-01  2.000E+01  2.000E+04 -1.776E-01
   1   13   15     1    15    1.3733E+05 -4.0779E+03   1.4140E+05  0.000E+00  0.000E+00  0.000E+00  4.17561E+01  1.765E-01  2.000E+01  2.000E+04 -2.039E-01
   1   12   16     1    16    1.4140E+05 -5.3744E+03   1.4678E+05  0.000E+00  0.000E+00  0.000E+00  4.12824E+01  1.801E-01  2.000E+01  2.000E+04 -2.687E-01
   1   12   17     1    17    1.4678E+05 -3.2010E+03   1.4998E+05  0.000E+00  0.000E+00  0.000E+00  4.08083E+01  1.833E-01  2.000E+01  2.000E+04 -1.600E-01
   1   12   18     1    18    1.4998E+05 -2.8352E+03   1.5281E+05  0.000E+00  0.000E+00  0.000E+00  4.03332E+01  1.855E-01  2.000E+01  2.000E+04 -1.418E-01
   1   12   19     1    19    1.5281E+05 -3.7142E+03   1.5653E+05  0.000E+00  0.000E+00  0.000E+00  3.98584E+01  1.879E-01  2.000E+01  2.000E+04 -1.857E-01
   1   13   20     1    20    1.5653E+05 -1.7218E+03   1.5825E+05  0.000E+00  0.000E+00  0.000E+00  3.93831E+01  1.899E-01  2.000E+01  2.000E+04 -8.609E-02
   1   14   21     1    21    1.5825E+05 -1.3739E+03   1.5962E+05  0.000E+00  0.000E+00  0.000E+00  3.89069E+01  1.910E-01  2.000E+01  2.000E+04 -6.870E-02
   1   14   22     1    22    1.5962E+05  4.7267E+03   1.5490E+05  0.000E+00  0.000E+00  0.000E+00  3.84284E+01  1.898E-01  2.000E+01  2.000E+04  2.363E-01
   1    9   30     2     1    5.0000E+04 -1.5660E+03   5.1566E+04  0.000E+00  0.000E+00  0.000E+00  4.02420E+01  1.170E-01  2.000E+01  2.000E+04 -7.830E-02
   1    9   29     2     2    5.1566E+04 -1.8611E+03   5.3427E+04  0.000E+00  0.000E+00  0.000E+00  3.99943E+01  1.193E-01  2.000E+01  2.000E+04 -9.306E-02
   1    9   28     2     3    5.3427E+04 -2.0918E+03   5.5519E+04  0.000E+00  0.000E+00  0.000E+00  3.97470E+01  1.220E-01  2.000E+01  2.000E+04 -1.046E-01
   1    9   27     2     4    5.5519E+04 -2.7889E+03   5.8308E+04  0.000E+00  0.000E+00  0.000E+00  3.95002E+01  1.252E-01  2.000E+01  2.000E+04 -1.394E-01
   1   10   26     2     5    5.8308E+04 -7.2462E+02   5.9032E+04  0.000E+00  0.000E+00  0.000E+00  3.92525E+01  1.275E-01  2.000E+01  2.000E+04 -3.623E-02
   1   11   25     2     6    5.9032E+04 -1.3163E+03   6.0349E+04  0.000E+00  0.000E+00  0.000E+00  3.90039E+01  1.289E-01  2.000E+01  2.000E+04 -6.582E-02
   1   12   24     2     7    6.0349E+04 -2.4653E+03   6.2814E+04  0.000E+00  0.000E+00  0.000E+00  3.87563E+01  1.313E-01  2.000E+01  2.000E+04 -1.233E-01
   1   13   23     2     8    6.2814E+04 -5.4764E+02   6.3362E+04  0.000E+00  0.000E+00  0.000E+00  3.85082E+01  1.332E-01  2.000E+01  2.000E+04 -2.738E-02
   1   14   22     2     9    6.3362E+04  1.3124E+03   6.2049E+04  0.000E+00  0.000E+00  0.000E+00  3.82577E+01  1.327E-01  2.000E+01  2.000E+04  6.562E-02
   1   14   22     3     1    2.1695E+05 -8.8636E+03   2.2581E+05  0.000E+00  0.000E+00  0.000E+00  3.77489E+01  1.934E-01  2.000E+01  2.000E+04 -4.432E-01
   1   15   23     3     2    2.2581E+05 -8.3910E+02   2.2665E+05  0.000E+00  0.000E+00  0.000E+00  3.68626E+01  1.959E-01  2.000E+01  2.000E+04 -4.196E-02
   1   15   24     3     3    2.2665E+05 -6.2302E+02   2.2727E+05  0.000E+00  0.000E+00  0.000E+00  3.59741E+01  1.963E-01  2.000E+01  2.000E+04 -3.115E-02
   1   15   25     3     4    2.2727E+05 -6.2809E+02   2.2790E+05  0.000E+00  0.000E+00  0.000E+00  3.50855E+01  1.966E-01  2.000E+01  2.000E+04 -3.140E-02
   1   15   26     3     5    2.2790E+05 -4.4552E+02   2.2835E+05  0.000E+00  0.000E+00  0.000E+00  3.41969E+01  1.969E-01  2.000E+01  2.000E+04 -2.228E-02
   1   16   27     3     6    2.2835E+05 -2.1355E+02   2.2856E+05  0.000E+00  0.000E+00  0.000E+00  3.33082E+01  1.971E-01  2.000E+01  2.000E+04 -1.068E-02
   1   17   28     3     7    2.2856E+05 -3.2083E+02   2.2888E+05  0.000E+00  0.000E+00  0.000E+00  3.24194E+01  1.972E-01  2.000E+01  2.000E+04 -1.604E-02
   1   18   29     3     8    2.2888E+05 -4.2230E+03   2.3310E+05  0.000E+00  0.000E+00  0.000E+00  3.15317E+01  1.984E-01  2.000E+01  2.000E+04 -2.112E-01
   1   18   30     3     9    2.3310E+05 -3.8270E+03   2.3693E+05  0.000E+00  0.000E+00  0.000E+00  3.06449E+01  2.004E-01  2.000E+01  2.000E+04 -1.913E-01



1
              HEAD IN LAYER   1 AT END OF TIME STEP   1 IN STRESS PERIOD    2
  ---------------------------------------------------------------------------

          1      2      3      4      5      6      7      8      9     10
         11     12     13     14     15     16     17     18     19     20
         21     22     23     24     25     26     27     28     29     30
 .........................................................................
   1  ****** ****** ****** ****** ****** ****** ****** ****** ****** ******
      ****** ****** ****** ****** ****** ****** ****** ****** ****** ******
      ****** ****** ****** ****** ****** ****** ****** ****** ****** ******
   2  ****** ****** ****** ****** ****** ****** ****** ****** ****** ******
      ****** ****** ****** ****** ****** ****** ****** ****** ****** ******
      ****** ****** ****** ****** ****** ****** ****** ****** ****** ******
   3  ****** ****** ****** ****** ****** ****** ****** ****** ****** ******
      ****** ****** ****** ****** ****** ****** ****** ****** ****** ******
      ****** ****** ****** ****** ****** ****** ****** ****** ****** ******
   4  ****** ****** ****** ****** ****** ****** ****** ****** ****** ******
      ****** ****** ****** ****** ****** ****** ****** ****** ****** ******
      ****** ****** ****** ****** ****** ****** ****** ****** ****** ******
   5  ****** ****** ****** ****** ****** ****** ****** ****** ****** ******
      ****** ****** ****** ****** ****** ****** ****** ****** ****** ******
      ****** ****** ****** ****** ****** ****** ****** ****** ****** ******
   6  ****** ****** ****** ****** ****** ****** ****** ****** ****** ******
      ****** ****** ****** ****** ****** ****** ****** ****** ****** ******
      ****** ****** ****** ****** ****** ****** ****** ****** ****** ******
   7  ****** ****** ****** ****** ****** ****** ****** ****** ****** ******
      ****** ****** ****** ****** ****** ****** ****** ****** ****** ******
      ****** ****** ****** ****** ****** ****** ****** ****** ****** ******
   8  ****** ****** ****** ****** ****** ****** ****** ****** ****** ******
      ****** ****** ****** ****** ****** ****** ****** ****** ****** ******
      ****** ****** ****** ****** ****** ****** ****** ****** ****** ******
   9  ****** ****** ****** ****** ****** ****** ****** ****** ****** ******
      ****** ****** ****** ****** ****** ****** ****** ****** ****** ******
      ****** ****** ****** ****** ****** ****** ****** ****** ****** ******
  10  ****** ****** ****** ****** ****** ****** ****** ****** ****** ******
      ****** ****** ****** ****** ****** ****** ****** ****** ****** ******
      ****** ****** ****** ****** ****** ****** ****** ****** ****** ******
  11  ****** ****** ****** ****** ****** ****** ****** ****** ****** ******
      ****** ****** ****** ****** ****** ****** ****** ****** ****** ******
      ****** ****** ****** ****** ****** ****** ****** ****** ****** ******
  12  ****** ****** ****** ****** ****** ****** ****** ****** ****** ******
      ****** ****** ****** ****** ****** ****** ****** ****** ****** ******
      ****** ****** ****** ****** ****** ****** ****** ****** ****** ******
  13  ****** ****** ****** ****** ****** ****** ****** ****** ****** ******
      ****** ****** ****** ****** ****** ****** ****** ****** ****** ******
      ****** ****** ****** ****** ****** ****** ****** ****** ****** ******
  14  ****** ****** ****** ****** ****** ****** ****** ****** ****** ******
      ****** ****** ****** ****** ****** ****** ****** ****** ****** ******
      ****** ****** ****** ****** ****** ****** ****** ****** ****** ******
  15  ****** ****** ****** ****** ****** ****** ****** ****** ****** ******
      ****** ****** ****** ****** ****** ****** ****** ****** ****** ******
      ****** ****** ****** ****** ****** ****** ****** ****** ****** ******
  16  ****** ****** ****** ****** ****** ****** ****** ****** ****** ******
      ****** ****** ****** ****** ****** ****** ****** ****** ****** ******
      ****** ****** ****** ****** ****** ****** ****** ****** ****** ******
  17  ****** ****** ****** ****** ****** ****** ****** ****** ****** ******
      ****** ****** ****** ****** ****** ****** ****** ****** ****** ******
      ****** ****** ****** ****** ****** ****** ****** ****** ****** ******
  18  ****** ****** ****** ****** ****** ****** ****** ****** ****** ******
      ****** ****** ****** ****** ****** ****** ****** ****** ****** ******
      ****** ****** ****** ****** ****** ****** ****** ****** ****** ******
  19  ****** ****** ****** ****** ****** ****** ****** ****** ****** ******
      ****** ****** ****** ****** ****** ****** ****** ****** ****** ******
      ****** ****** ****** ****** ****** ****** ****** ****** ****** ******
  20  ****** ****** ****** ****** ****** ****** ****** ****** ****** ******
      ****** ****** ****** ****** ****** ****** ****** ****** ****** ******
      ****** ****** ****** ****** ****** ****** ****** ****** ****** ******
  21  ****** ****** ****** ****** ****** ****** ****** ****** ****** ******
      ****** ****** ****** ****** ****** ****** ****** ****** ****** ******
      ****** ****** ****** ****** ****** ****** ****** ****** ****** ******
  22  ****** ****** ****** ****** ****** ****** ****** ****** ****** ******
      ****** ****** ****** ****** ****** ****** ****** ****** ****** ******
      ****** ****** ****** ****** ****** ****** ****** ****** ****** ******
  23  ****** ****** ****** ****** ****** ****** ****** ****** ****** ******
      ****** ****** ****** ****** ****** ****** ****** ****** ****** ******
      ****** ****** ****** ****** ****** ****** ****** ****** ****** ******
  24  ****** ****** ****** ****** ****** ****** ****** ****** ****** ******
      ****** ****** ****** ****** ****** ****** ****** ****** ****** ******
      ****** ****** ****** ****** ****** ****** ****** ****** ****** ******
  25  ****** ****** ****** ****** ****** ****** ****** ****** ****** ******
      ****** ****** ****** ****** ****** ****** ****** ****** ****** ******
      ****** ****** ****** ****** ****** ****** ****** ****** ****** ******

 HEAD WILL BE SAVED ON UNIT   51 AT END OF TIME STEP    1, STRESS PERIOD    2
1
  VOLUMETRIC BUDGET FOR ENTIRE MODEL AT END OF TIME STEP    1, STRESS PERIOD   2
  ------------------------------------------------------------------------------

     CUMULATIVE VOLUMES      L**3       RATES FOR THIS TIME STEP      L**3/T
     ------------------                 ------------------------

           IN:                                      IN:
           ---                                      ---
             STORAGE =    22572626.6740               STORAGE =       53037.6682
       CONSTANT HEAD =     2673195.1046         CONSTANT HEAD =       16826.6930
               WELLS =           0.0000                 WELLS =           0.0000
            RECHARGE =     6292800.0000              RECHARGE =       55200.0000
      STREAM LEAKAGE =      940605.1747        STREAM LEAKAGE =        6039.1005

            TOTAL IN =    32479226.9533              TOTAL IN =      131103.4617

          OUT:                                     OUT:
          ----                                     ----
             STORAGE =           0.0000               STORAGE =           0.0000
       CONSTANT HEAD =           0.0000         CONSTANT HEAD =           0.0000
               WELLS =     6978353.4996                 WELLS =       38133.0792
            RECHARGE =           0.0000              RECHARGE =           0.0000
      STREAM LEAKAGE =    25500874.7138        STREAM LEAKAGE =       92970.3931

           TOTAL OUT =    32479228.2135             TOTAL OUT =      131103.4723

            IN - OUT =          -1.2601              IN - OUT =      -1.0621E-02

 PERCENT DISCREPANCY =          -0.00     PERCENT DISCREPANCY =          -0.00






         TIME SUMMARY AT END OF TIME STEP    1 IN STRESS PERIOD    2
                    SECONDS     MINUTES      HOURS       DAYS        YEARS
                    -----------------------------------------------------------
   TIME STEP LENGTH 7.86240E+06 1.31040E+05  2184.0      91.000     0.24914    
 STRESS PERIOD TIME 7.86240E+06 1.31040E+05  2184.0      91.000     0.24914    
         TOTAL TIME 1.58112E+07 2.63520E+05  4392.0      183.00     0.50103    
1
1
                            STRESS PERIOD NO.    3, LENGTH =   91.00000    
                            -----------------------------------------------

                              NUMBER OF TIME STEPS =     1

                               MULTIPLIER FOR DELT =     1.500

                            INITIAL TIME STEP SIZE =   91.00000    

 WELL NO.  LAYER   ROW   COL   STRESS RATE         
 --------------------------------------------------
      1      1     14      6       0.000    
      2      1      3      9       0.000    
      3      1     20     10       0.000    
      4      1     14     20       0.000    
      5      1     15     19     -0.1065E+05
      6      1     15     28      -8067.    
      7      1     19     14      -9238.    
      8      1      9     25     -0.1018E+05

      8 WELLS

                 RECHARGE =   0.00000    

 REUSING STREAM SEGMENT DATA FROM LAST STRESS PERIOD
 
 SOLVING FOR HEAD 


     7 CALLS TO PCG ROUTINE FOR TIME STEP   1 IN STRESS PERIOD    3
    27 TOTAL ITERATIONS

 OUTPUT CONTROL FOR STRESS PERIOD    3   TIME STEP    1
    SAVE BUDGET
    SAVE HEAD FOR ALL LAYERS
    PRINT HEAD FOR ALL LAYERS
 UBDSV2 SAVING "STREAMFLOW OUT  " ON UNIT  50 AT TIME STEP  1, STRESS PERIOD   3



 STREAM LISTING     PERIOD      3   STEP        1

 LAYER ROW COL. STREAM  RCH.  FLOW INTO     FLOW TO   FLOW OUT OF   OVRLND.     DIRECT     STREAM       STREAM     STREAM     STREAM   STREAMBED  STREAMBED
                SEG.NO.  NO.  STRM. RCH.    AQUIFER    STRM. RCH.    RUNOFF     PRECIP       ET          HEAD       DEPTH      WIDTH   CONDCTNC.   GRADIENT

   1   13    1     1     1    1.0000E+05 -2.7465E+03   1.0275E+05  0.000E+00  0.000E+00  0.000E+00  4.84072E+01  1.458E-01  2.000E+01  2.000E+04 -1.373E-01
   1   13    2     1     2    1.0275E+05 -3.8579E+03   1.0660E+05  0.000E+00  0.000E+00  0.000E+00  4.79328E+01  1.487E-01  2.000E+01  2.000E+04 -1.929E-01
   1   14    3     1     3    1.0660E+05 -6.4713E+02   1.0725E+05  0.000E+00  0.000E+00  0.000E+00  4.74574E+01  1.506E-01  2.000E+01  2.000E+04 -3.236E-02
   1   15    4     1     4    1.0725E+05 -6.2221E+02   1.0787E+05  0.000E+00  0.000E+00  0.000E+00  4.69807E+01  1.511E-01  2.000E+01  2.000E+04 -3.111E-02
   1   16    5     1     5    1.0787E+05 -2.2753E+03   1.1015E+05  0.000E+00  0.000E+00  0.000E+00  4.65046E+01  1.523E-01  2.000E+01  2.000E+04 -1.138E-01
   1   16    6     1     6    1.1015E+05 -1.3630E+03   1.1151E+05  0.000E+00  0.000E+00  0.000E+00  4.60289E+01  1.539E-01  2.000E+01  2.000E+04 -6.815E-02
   1   16    7     1     7    1.1151E+05 -1.2894E+03   1.1280E+05  0.000E+00  0.000E+00  0.000E+00  4.55527E+01  1.550E-01  2.000E+01  2.000E+04 -6.447E-02
   1   16    8     1     8    1.1280E+05 -1.2184E+03   1.1402E+05  0.000E+00  0.000E+00  0.000E+00  4.50765E+01  1.560E-01  2.000E+01  2.000E+04 -6.092E-02
   1   16    9     1     9    1.1402E+05 -1.1134E+03   1.1513E+05  0.000E+00  0.000E+00  0.000E+00  4.46001E+01  1.570E-01  2.000E+01  2.000E+04 -5.567E-02
   1   16   10     1    10    1.1513E+05 -9.5565E+02   1.1609E+05  0.000E+00  0.000E+00  0.000E+00  4.41237E+01  1.578E-01  2.000E+01  2.000E+04 -4.778E-02
   1   16   11     1    11    1.1609E+05 -7.3409E+02   1.1682E+05  0.000E+00  0.000E+00  0.000E+00  4.36471E+01  1.585E-01  2.000E+01  2.000E+04 -3.670E-02
   1   16   12     1    12    1.1682E+05 -8.7248E+02   1.1770E+05  0.000E+00  0.000E+00  0.000E+00  4.31705E+01  1.592E-01  2.000E+01  2.000E+04 -4.362E-02
   1   15   13     1    13    1.1770E+05 -1.2146E+03   1.1891E+05  0.000E+00  0.000E+00  0.000E+00  4.26941E+01  1.600E-01  2.000E+01  2.000E+04 -6.073E-02
   1   14   14     1    14    1.1891E+05 -1.7874E+03   1.2070E+05  0.000E+00  0.000E+00  0.000E+00  4.22180E+01  1.612E-01  2.000E+01  2.000E+04 -8.937E-02
   1   13   15     1    15    1.2070E+05 -2.3358E+03   1.2303E+05  0.000E+00  0.000E+00  0.000E+00  4.17424E+01  1.629E-01  2.000E+01  2.000E+04 -1.168E-01
   1   12   16     1    16    1.2303E+05 -3.6154E+03   1.2665E+05  0.000E+00  0.000E+00  0.000E+00  4.12675E+01  1.652E-01  2.000E+01  2.000E+04 -1.808E-01
   1   12   17     1    17    1.2665E+05 -1.9061E+03   1.2855E+05  0.000E+00  0.000E+00  0.000E+00  4.07924E+01  1.674E-01  2.000E+01  2.000E+04 -9.531E-02
   1   12   18     1    18    1.2855E+05 -1.5545E+03   1.3011E+05  0.000E+00  0.000E+00  0.000E+00  4.03165E+01  1.688E-01  2.000E+01  2.000E+04 -7.773E-02
   1   12   19     1    19    1.3011E+05 -2.1173E+03   1.3223E+05  0.000E+00  0.000E+00  0.000E+00  3.98407E+01  1.702E-01  2.000E+01  2.000E+04 -1.059E-01
   1   13   20     1    20    1.3223E+05 -2.0754E+02   1.3243E+05  0.000E+00  0.000E+00  0.000E+00  3.93643E+01  1.711E-01  2.000E+01  2.000E+04 -1.038E-02
   1   14   21     1    21    1.3243E+05  2.1090E+02   1.3222E+05  0.000E+00  0.000E+00  0.000E+00  3.88870E+01  1.711E-01  2.000E+01  2.000E+04  1.055E-02
   1   14   22     1    22    1.3222E+05  5.1035E+03   1.2712E+05  0.000E+00  0.000E+00  0.000E+00  3.84077E+01  1.691E-01  2.000E+01  2.000E+04  2.552E-01
   1    9   30     2     1    5.0000E+04 -3.2603E+02   5.0326E+04  0.000E+00  0.000E+00  0.000E+00  4.02411E+01  1.161E-01  2.000E+01  2.000E+04 -1.630E-02
   1    9   29     2     2    5.0326E+04 -6.2454E+02   5.0951E+04  0.000E+00  0.000E+00  0.000E+00  3.99918E+01  1.168E-01  2.000E+01  2.000E+04 -3.123E-02
   1    9   28     2     3    5.0951E+04 -8.4531E+02   5.1796E+04  0.000E+00  0.000E+00  0.000E+00  3.97428E+01  1.178E-01  2.000E+01  2.000E+04 -4.227E-02
   1    9   27     2     4    5.1796E+04 -1.0075E+03   5.2803E+04  0.000E+00  0.000E+00  0.000E+00  3.94940E+01  1.190E-01  2.000E+01  2.000E+04 -5.038E-02
   1   10   26     2     5    5.2803E+04  9.4545E+02   5.1858E+04  0.000E+00  0.000E+00  0.000E+00  3.92441E+01  1.191E-01  2.000E+01  2.000E+04  4.727E-02
   1   11   25     2     6    5.1858E+04  2.3370E+02   5.1624E+04  0.000E+00  0.000E+00  0.000E+00  3.89933E+01  1.183E-01  2.000E+01  2.000E+04  1.168E-02
   1   12   24     2     7    5.1624E+04 -1.0928E+03   5.2717E+04  0.000E+00  0.000E+00  0.000E+00  3.87439E+01  1.189E-01  2.000E+01  2.000E+04 -5.464E-02
   1   13   23     2     8    5.2717E+04 -2.0984E+02   5.2927E+04  0.000E+00  0.000E+00  0.000E+00  3.84947E+01  1.197E-01  2.000E+01  2.000E+04 -1.049E-02
   1   14   22     2     9    5.2927E+04  1.8226E+03   5.1104E+04  0.000E+00  0.000E+00  0.000E+00  3.82436E+01  1.186E-01  2.000E+01  2.000E+04  9.113E-02
   1   14   22     3     1    1.7822E+05 -8.4953E+03   1.8672E+05  0.000E+00  0.000E+00  0.000E+00  3.77277E+01  1.722E-01  2.000E+01  2.000E+04 -4.248E-01
   1   15   23     3     2    1.8672E+05 -4.2397E+02   1.8714E+05  0.000E+00  0.000E+00  0.000E+00  3.68414E+01  1.747E-01  2.000E+01  2.000E+04 -2.120E-02
   1   15   24     3     3    1.8714E+05 -2.9115E+02   1.8743E+05  0.000E+00  0.000E+00  0.000E+00  3.59527E+01  1.749E-01  2.000E+01  2.000E+04 -1.456E-02
   1   15   25     3     4    1.8743E+05 -2.8022E+02   1.8771E+05  0.000E+00  0.000E+00  0.000E+00  3.50640E+01  1.751E-01  2.000E+01  2.000E+04 -1.401E-02
   1   15   26     3     5    1.8771E+05 -2.2889E+01   1.8774E+05  0.000E+00  0.000E+00  0.000E+00  3.41752E+01  1.752E-01  2.000E+01  2.000E+04 -1.144E-03
   1   16   27     3     6    1.8774E+05  2.7432E+02   1.8746E+05  0.000E+00  0.000E+00  0.000E+00  3.32862E+01  1.751E-01  2.000E+01  2.000E+04  1.372E-02
   1   17   28     3     7    1.8746E+05  1.1768E+03   1.8629E+05  0.000E+00  0.000E+00  0.000E+00  3.23969E+01  1.747E-01  2.000E+01  2.000E+04  5.884E-02
   1   18   29     3     8    1.8629E+05 -2.6396E+03   1.8893E+05  0.000E+00  0.000E+00  0.000E+00  3.15084E+01  1.751E-01  2.000E+01  2.000E+04 -1.320E-01
   1   18   30     3     9    1.8893E+05 -2.6360E+03   1.9156E+05  0.000E+00  0.000E+00  0.000E+00  3.06210E+01  1.766E-01  2.000E+01  2.000E+04 -1.318E-01



1
              HEAD IN LAYER   1 AT END OF TIME STEP   1 IN STRESS PERIOD    3
  ---------------------------------------------------------------------------

          1      2      3      4      5      6      7      8      9     10
         11     12     13     14     15     16     17     18     19     20
         21     22     23     24     25     26     27     28     29     30
 .........................................................................
   1  ****** ****** ****** ****** ****** ****** ****** ****** ****** ******
      ****** ****** ****** ****** ****** ****** ****** ****** ****** ******
      ****** ****** ****** ****** ****** ****** ****** ****** ****** ******
   2  ****** ****** ****** ****** ****** ****** ****** ****** ****** ******
      ****** ****** ****** ****** ****** ****** ****** ****** ****** ******
      ****** ****** ****** ****** ****** ****** ****** ****** ****** ******
   3  ****** ****** ****** ****** ****** ****** ****** ****** ****** ******
      ****** ****** ****** ****** ****** ****** ****** ****** ****** ******
      ****** ****** ****** ****** ****** ****** ****** ****** ****** ******
   4  ****** ****** ****** ****** ****** ****** ****** ****** ****** ******
      ****** ****** ****** ****** ****** ****** ****** ****** ****** ******
      ****** ****** ****** ****** ****** ****** ****** ****** ****** ******
   5  ****** ****** ****** ****** ****** ****** ****** ****** ****** ******
      ****** ****** ****** ****** ****** ****** ****** ****** ****** ******
      ****** ****** ****** ****** ****** ****** ****** ****** ****** ******
   6  ****** ****** ****** ****** ****** ****** ****** ****** ****** ******
      ****** ****** ****** ****** ****** ****** ****** ****** ****** ******
      ****** ****** ****** ****** ****** ****** ****** ****** ****** ******
   7  ****** ****** ****** ****** ****** ****** ****** ****** ****** ******
      ****** ****** ****** ****** ****** ****** ****** ****** ****** ******
      ****** ****** ****** ****** ****** ****** ****** ****** ****** ******
   8  ****** ****** ****** ****** ****** ****** ****** ****** ****** ******
      ****** ****** ****** ****** ****** ****** ****** ****** ****** ******
      ****** ****** ****** ****** ****** ****** ****** ****** ****** ******
   9  ****** ****** ****** ****** ****** ****** ****** ****** ****** ******
      ****** ****** ****** ****** ****** ****** ****** ****** ****** ******
      ****** ****** ****** ****** ****** ****** ****** ****** ****** ******
  10  ****** ****** ****** ****** ****** ****** ****** ****** ****** ******
      ****** ****** ****** ****** ****** ****** ****** ****** ****** ******
      ****** ****** ****** ****** ****** ****** ****** ****** ****** ******
  11  ****** ****** ****** ****** ****** ****** ****** ****** ****** ******
      ****** ****** ****** ****** ****** ****** ****** ****** ****** ******
      ****** ****** ****** ****** ****** ****** ****** ****** ****** ******
  12  ****** ****** ****** ****** ****** ****** ****** ****** ****** ******
      ****** ****** ****** ****** ****** ****** ****** ****** ****** ******
      ****** ****** ****** ****** ****** ****** ****** ****** ****** ******
  13  ****** ****** ****** ****** ****** ****** ****** ****** ****** ******
      ****** ****** ****** ****** ****** ****** ****** ****** ****** ******
      ****** ****** ****** ****** ****** ****** ****** ****** ****** ******
  14  ****** ****** ****** ****** ****** ****** ****** ****** ****** ******
      ****** ****** ****** ****** ****** ****** ****** ****** ****** ******
      ****** ****** ****** ****** ****** ****** ****** ****** ****** ******
  15  ****** ****** ****** ****** ****** ****** ****** ****** ****** ******
      ****** ****** ****** ****** ****** ****** ****** ****** ****** ******
      ****** ****** ****** ****** ****** ****** ****** ****** ****** ******
  16  ****** ****** ****** ****** ****** ****** ****** ****** ****** ******
      ****** ****** ****** ****** ****** ****** ****** ****** ****** ******
      ****** ****** ****** ****** ****** ****** ****** ****** ****** ******
  17  ****** ****** ****** ****** ****** ****** ****** ****** ****** ******
      ****** ****** ****** ****** ****** ****** ****** ****** ****** ******
      ****** ****** ****** ****** ****** ****** ****** ****** ****** ******
  18  ****** ****** ****** ****** ****** ****** ****** ****** ****** ******
      ****** ****** ****** ****** ****** ****** ****** ****** ****** ******
      ****** ****** ****** ****** ****** ****** ****** ****** ****** ******
  19  ****** ****** ****** ****** ****** ****** ****** ****** ****** ******
      ****** ****** ****** ****** ****** ****** ****** ****** ****** ******
      ****** ****** ****** ****** ****** ****** ****** ****** ****** ******
  20  ****** ****** ****** ****** ****** ****** ****** ****** ****** ******
      ****** ****** ****** ****** ****** ****** ****** ****** ****** ******
      ****** ****** ****** ****** ****** ****** ****** ****** ****** ******
  21  ****** ****** ****** ****** ****** ****** ****** ****** ****** ******
      ****** ****** ****** ****** ****** ****** ****** ****** ****** ******
      ****** ****** ****** ****** ****** ****** ****** ****** ****** ******
  22  ****** ****** ****** ****** ****** ****** ****** ****** ****** ******
      ****** ****** ****** ****** ****** ****** ****** ****** ****** ******
      ****** ****** ****** ****** ****** ****** ****** ****** ****** ******
  23  ****** ****** ****** ****** ****** ****** ****** ****** ****** ******
      ****** ****** ****** ****** ****** ****** ****** ****** ****** ******
      ****** ****** ****** ****** ****** ****** ****** ****** ****** ******
  24  ****** ****** ****** ****** ****** ****** ****** ****** ****** ******
      ****** ****** ****** ****** ****** ****** ****** ****** ****** ******
      ****** ****** ****** ****** ****** ****** ****** ****** ****** ******
  25  ****** ****** ****** ****** ****** ****** ****** ****** ****** ******
      ****** ****** ****** ****** ****** ****** ****** ****** ****** ******
      ****** ****** ****** ****** ****** ****** ****** ****** ****** ******

 HEAD WILL BE SAVED ON UNIT   51 AT END OF TIME STEP    1, STRESS PERIOD    3
1
  VOLUMETRIC BUDGET FOR ENTIRE MODEL AT END OF TIME STEP    1, STRESS PERIOD   3
  ------------------------------------------------------------------------------

     CUMULATIVE VOLUMES      L**3       RATES FOR THIS TIME STEP      L**3/T
     ------------------                 ------------------------

           IN:                                      IN:
           ---                                      ---
             STORAGE =    27521291.0684               STORAGE =       54380.9274
       CONSTANT HEAD =     4976778.6423         CONSTANT HEAD =       25314.1048
               WELLS =           0.0000                 WELLS =           0.0000
            RECHARGE =     6292800.0000              RECHARGE =           0.0000
      STREAM LEAKAGE =     1829422.0055        STREAM LEAKAGE =        9767.2179

            TOTAL IN =    40620291.7162              TOTAL IN =       89462.2501

          OUT:                                     OUT:
          ----                                     ----
             STORAGE =           0.0000               STORAGE =           0.0000
       CONSTANT HEAD =           0.0000         CONSTANT HEAD =           0.0000
               WELLS =    10448463.7098                 WELLS =       38133.0792
            RECHARGE =           0.0000              RECHARGE =           0.0000
      STREAM LEAKAGE =    30171829.9683        STREAM LEAKAGE =       51329.1786

           TOTAL OUT =    40620293.6782             TOTAL OUT =       89462.2579

            IN - OUT =          -1.9620              IN - OUT =      -7.7129E-03

 PERCENT DISCREPANCY =          -0.00     PERCENT DISCREPANCY =          -0.00






         TIME SUMMARY AT END OF TIME STEP    1 IN STRESS PERIOD    3
                    SECONDS     MINUTES      HOURS       DAYS        YEARS
                    -----------------------------------------------------------
   TIME STEP LENGTH 7.86240E+06 1.31040E+05  2184.0      91.000     0.24914    
 STRESS PERIOD TIME 7.86240E+06 1.31040E+05  2184.0      91.000     0.24914    
         TOTAL TIME 2.36736E+07 3.94560E+05  6576.0      274.00     0.75017    
1
1
                            STRESS PERIOD NO.    4, LENGTH =   91.00000    
                            -----------------------------------------------

                              NUMBER OF TIME STEPS =     1

                               MULTIPLIER FOR DELT =     1.500

                            INITIAL TIME STEP SIZE =   91.00000    

 WELL NO.  LAYER   ROW   COL   STRESS RATE         
 --------------------------------------------------
      1      1     14      6       0.000    
      2      1      3      9       0.000    
      3      1     20     10       0.000    
      4      1     14     20       0.000    
      5      1     15     19     -0.1065E+05
      6      1     15     28      -8067.    
      7      1     19     14      -9238.    
      8      1      9     25     -0.1018E+05

      8 WELLS

                 RECHARGE =  1.000000E-03

 REUSING STREAM SEGMENT DATA FROM LAST STRESS PERIOD
 
 SOLVING FOR HEAD 


     6 CALLS TO PCG ROUTINE FOR TIME STEP   1 IN STRESS PERIOD    4
    23 TOTAL ITERATIONS

 OUTPUT CONTROL FOR STRESS PERIOD    4   TIME STEP    1
    SAVE BUDGET
    SAVE HEAD FOR ALL LAYERS
    PRINT HEAD FOR ALL LAYERS
 UBDSV2 SAVING "STREAMFLOW OUT  " ON UNIT  50 AT TIME STEP  1, STRESS PERIOD   4



 STREAM LISTING     PERIOD      4   STEP        1

 LAYER ROW COL. STREAM  RCH.  FLOW INTO     FLOW TO   FLOW OUT OF   OVRLND.     DIRECT     STREAM       STREAM     STREAM     STREAM   STREAMBED  STREAMBED
                SEG.NO.  NO.  STRM. RCH.    AQUIFER    STRM. RCH.    RUNOFF     PRECIP       ET          HEAD       DEPTH      WIDTH   CONDCTNC.   GRADIENT

   1   13    1     1     1    1.0000E+05 -2.5172E+03   1.0252E+05  0.000E+00  0.000E+00  0.000E+00  4.84071E+01  1.457E-01  2.000E+01  2.000E+04 -1.259E-01
   1   13    2     1     2    1.0252E+05 -3.5921E+03   1.0611E+05  0.000E+00  0.000E+00  0.000E+00  4.79325E+01  1.484E-01  2.000E+01  2.000E+04 -1.796E-01
   1   14    3     1     3    1.0611E+05 -6.1810E+02   1.0673E+05  0.000E+00  0.000E+00  0.000E+00  4.74570E+01  1.502E-01  2.000E+01  2.000E+04 -3.091E-02
   1   15    4     1     4    1.0673E+05 -5.8187E+02   1.0731E+05  0.000E+00  0.000E+00  0.000E+00  4.69802E+01  1.507E-01  2.000E+01  2.000E+04 -2.909E-02
   1   16    5     1     5    1.0731E+05 -1.9486E+03   1.0926E+05  0.000E+00  0.000E+00  0.000E+00  4.65040E+01  1.517E-01  2.000E+01  2.000E+04 -9.743E-02
   1   16    6     1     6    1.0926E+05 -1.2003E+03   1.1046E+05  0.000E+00  0.000E+00  0.000E+00  4.60280E+01  1.530E-01  2.000E+01  2.000E+04 -6.002E-02
   1   16    7     1     7    1.1046E+05 -1.1375E+03   1.1160E+05  0.000E+00  0.000E+00  0.000E+00  4.55517E+01  1.540E-01  2.000E+01  2.000E+04 -5.687E-02
   1   16    8     1     8    1.1160E+05 -1.0692E+03   1.1266E+05  0.000E+00  0.000E+00  0.000E+00  4.50754E+01  1.549E-01  2.000E+01  2.000E+04 -5.346E-02
   1   16    9     1     9    1.1266E+05 -9.6471E+02   1.1363E+05  0.000E+00  0.000E+00  0.000E+00  4.45990E+01  1.558E-01  2.000E+01  2.000E+04 -4.824E-02
   1   16   10     1    10    1.1363E+05 -8.0734E+02   1.1444E+05  0.000E+00  0.000E+00  0.000E+00  4.41224E+01  1.565E-01  2.000E+01  2.000E+04 -4.037E-02
   1   16   11     1    11    1.1444E+05 -5.8111E+02   1.1502E+05  0.000E+00  0.000E+00  0.000E+00  4.36457E+01  1.571E-01  2.000E+01  2.000E+04 -2.906E-02
   1   16   12     1    12    1.1502E+05 -5.5749E+02   1.1558E+05  0.000E+00  0.000E+00  0.000E+00  4.31689E+01  1.575E-01  2.000E+01  2.000E+04 -2.787E-02
   1   15   13     1    13    1.1558E+05 -9.3958E+02   1.1651E+05  0.000E+00  0.000E+00  0.000E+00  4.26923E+01  1.582E-01  2.000E+01  2.000E+04 -4.698E-02
   1   14   14     1    14    1.1651E+05 -1.5030E+03   1.1802E+05  0.000E+00  0.000E+00  0.000E+00  4.22160E+01  1.592E-01  2.000E+01  2.000E+04 -7.515E-02
   1   13   15     1    15    1.1802E+05 -2.0394E+03   1.2006E+05  0.000E+00  0.000E+00  0.000E+00  4.17401E+01  1.606E-01  2.000E+01  2.000E+04 -1.020E-01
   1   12   16     1    16    1.2006E+05 -3.2435E+03   1.2330E+05  0.000E+00  0.000E+00  0.000E+00  4.12650E+01  1.627E-01  2.000E+01  2.000E+04 -1.622E-01
   1   12   17     1    17    1.2330E+05 -1.6759E+03   1.2498E+05  0.000E+00  0.000E+00  0.000E+00  4.07897E+01  1.647E-01  2.000E+01  2.000E+04 -8.379E-02
   1   12   18     1    18    1.2498E+05 -1.3386E+03   1.2632E+05  0.000E+00  0.000E+00  0.000E+00  4.03136E+01  1.659E-01  2.000E+01  2.000E+04 -6.693E-02
   1   12   19     1    19    1.2632E+05 -1.8538E+03   1.2817E+05  0.000E+00  0.000E+00  0.000E+00  3.98376E+01  1.671E-01  2.000E+01  2.000E+04 -9.269E-02
   1   13   20     1    20    1.2817E+05 -1.8487E+01   1.2819E+05  0.000E+00  0.000E+00  0.000E+00  3.93611E+01  1.679E-01  2.000E+01  2.000E+04 -9.244E-04
   1   14   21     1    21    1.2819E+05  4.8193E+02   1.2771E+05  0.000E+00  0.000E+00  0.000E+00  3.88836E+01  1.677E-01  2.000E+01  2.000E+04  2.410E-02
   1   14   22     1    22    1.2771E+05  5.1453E+03   1.2256E+05  0.000E+00  0.000E+00  0.000E+00  3.84041E+01  1.655E-01  2.000E+01  2.000E+04  2.573E-01
   1    9   30     2     1    5.0000E+04 -2.2942E+02   5.0229E+04  0.000E+00  0.000E+00  0.000E+00  4.02410E+01  1.160E-01  2.000E+01  2.000E+04 -1.147E-02
   1    9   29     2     2    5.0229E+04 -5.2149E+02   5.0751E+04  0.000E+00  0.000E+00  0.000E+00  3.99915E+01  1.165E-01  2.000E+01  2.000E+04 -2.607E-02
   1    9   28     2     3    5.0751E+04 -7.2323E+02   5.1474E+04  0.000E+00  0.000E+00  0.000E+00  3.97424E+01  1.174E-01  2.000E+01  2.000E+04 -3.616E-02
   1    9   27     2     4    5.1474E+04 -7.3708E+02   5.2211E+04  0.000E+00  0.000E+00  0.000E+00  3.94934E+01  1.184E-01  2.000E+01  2.000E+04 -3.685E-02
   1   10   26     2     5    5.2211E+04  1.1059E+03   5.1105E+04  0.000E+00  0.000E+00  0.000E+00  3.92432E+01  1.182E-01  2.000E+01  2.000E+04  5.530E-02
   1   11   25     2     6    5.1105E+04  3.5250E+02   5.0753E+04  0.000E+00  0.000E+00  0.000E+00  3.89922E+01  1.172E-01  2.000E+01  2.000E+04  1.762E-02
   1   12   24     2     7    5.0753E+04 -9.9449E+02   5.1747E+04  0.000E+00  0.000E+00  0.000E+00  3.87426E+01  1.176E-01  2.000E+01  2.000E+04 -4.972E-02
   1   13   23     2     8    5.1747E+04 -2.3541E+02   5.1983E+04  0.000E+00  0.000E+00  0.000E+00  3.84934E+01  1.184E-01  2.000E+01  2.000E+04 -1.177E-02
   1   14   22     2     9    5.1983E+04  1.9088E+03   5.0074E+04  0.000E+00  0.000E+00  0.000E+00  3.82423E+01  1.173E-01  2.000E+01  2.000E+04  9.544E-02
   1   14   22     3     1    1.7263E+05 -8.4460E+03   1.8108E+05  0.000E+00  0.000E+00  0.000E+00  3.77246E+01  1.690E-01  2.000E+01  2.000E+04 -4.223E-01
   1   15   23     3     2    1.8108E+05 -3.9055E+02   1.8147E+05  0.000E+00  0.000E+00  0.000E+00  3.68382E+01  1.715E-01  2.000E+01  2.000E+04 -1.953E-02
   1   15   24     3     3    1.8147E+05 -2.8592E+02   1.8176E+05  0.000E+00  0.000E+00  0.000E+00  3.59495E+01  1.717E-01  2.000E+01  2.000E+04 -1.430E-02
   1   15   25     3     4    1.8176E+05 -2.7534E+02   1.8203E+05  0.000E+00  0.000E+00  0.000E+00  3.50608E+01  1.719E-01  2.000E+01  2.000E+04 -1.377E-02
   1   15   26     3     5    1.8203E+05 -2.6332E+01   1.8206E+05  0.000E+00  0.000E+00  0.000E+00  3.41720E+01  1.720E-01  2.000E+01  2.000E+04 -1.317E-03
   1   16   27     3     6    1.8206E+05  2.8072E+02   1.8178E+05  0.000E+00  0.000E+00  0.000E+00  3.32830E+01  1.719E-01  2.000E+01  2.000E+04  1.404E-02
   1   17   28     3     7    1.8178E+05  1.2653E+03   1.8051E+05  0.000E+00  0.000E+00  0.000E+00  3.23937E+01  1.714E-01  2.000E+01  2.000E+04  6.327E-02
   1   18   29     3     8    1.8051E+05 -2.3926E+03   1.8291E+05  0.000E+00  0.000E+00  0.000E+00  3.15051E+01  1.718E-01  2.000E+01  2.000E+04 -1.196E-01
   1   18   30     3     9    1.8291E+05 -2.5074E+03   1.8541E+05  0.000E+00  0.000E+00  0.000E+00  3.06176E+01  1.731E-01  2.000E+01  2.000E+04 -1.254E-01



1
              HEAD IN LAYER   1 AT END OF TIME STEP   1 IN STRESS PERIOD    4
  ---------------------------------------------------------------------------

          1      2      3      4      5      6      7      8      9     10
         11     12     13     14     15     16     17     18     19     20
         21     22     23     24     25     26     27     28     29     30
 .........................................................................
   1  ****** ****** ****** ****** ****** ****** ****** ****** ****** ******
      ****** ****** ****** ****** ****** ****** ****** ****** ****** ******
      ****** ****** ****** ****** ****** ****** ****** ****** ****** ******
   2  ****** ****** ****** ****** ****** ****** ****** ****** ****** ******
      ****** ****** ****** ****** ****** ****** ****** ****** ****** ******
      ****** ****** ****** ****** ****** ****** ****** ****** ****** ******
   3  ****** ****** ****** ****** ****** ****** ****** ****** ****** ******
      ****** ****** ****** ****** ****** ****** ****** ****** ****** ******
      ****** ****** ****** ****** ****** ****** ****** ****** ****** ******
   4  ****** ****** ****** ****** ****** ****** ****** ****** ****** ******
      ****** ****** ****** ****** ****** ****** ****** ****** ****** ******
      ****** ****** ****** ****** ****** ****** ****** ****** ****** ******
   5  ****** ****** ****** ****** ****** ****** ****** ****** ****** ******
      ****** ****** ****** ****** ****** ****** ****** ****** ****** ******
      ****** ****** ****** ****** ****** ****** ****** ****** ****** ******
   6  ****** ****** ****** ****** ****** ****** ****** ****** ****** ******
      ****** ****** ****** ****** ****** ****** ****** ****** ****** ******
      ****** ****** ****** ****** ****** ****** ****** ****** ****** ******
   7  ****** ****** ****** ****** ****** ****** ****** ****** ****** ******
      ****** ****** ****** ****** ****** ****** ****** ****** ****** ******
      ****** ****** ****** ****** ****** ****** ****** ****** ****** ******
   8  ****** ****** ****** ****** ****** ****** ****** ****** ****** ******
      ****** ****** ****** ****** ****** ****** ****** ****** ****** ******
      ****** ****** ****** ****** ****** ****** ****** ****** ****** ******
   9  ****** ****** ****** ****** ****** ****** ****** ****** ****** ******
      ****** ****** ****** ****** ****** ****** ****** ****** ****** ******
      ****** ****** ****** ****** ****** ****** ****** ****** ****** ******
  10  ****** ****** ****** ****** ****** ****** ****** ****** ****** ******
      ****** ****** ****** ****** ****** ****** ****** ****** ****** ******
      ****** ****** ****** ****** ****** ****** ****** ****** ****** ******
  11  ****** ****** ****** ****** ****** ****** ****** ****** ****** ******
      ****** ****** ****** ****** ****** ****** ****** ****** ****** ******
      ****** ****** ****** ****** ****** ****** ****** ****** ****** ******
  12  ****** ****** ****** ****** ****** ****** ****** ****** ****** ******
      ****** ****** ****** ****** ****** ****** ****** ****** ****** ******
      ****** ****** ****** ****** ****** ****** ****** ****** ****** ******
  13  ****** ****** ****** ****** ****** ****** ****** ****** ****** ******
      ****** ****** ****** ****** ****** ****** ****** ****** ****** ******
      ****** ****** ****** ****** ****** ****** ****** ****** ****** ******
  14  ****** ****** ****** ****** ****** ****** ****** ****** ****** ******
      ****** ****** ****** ****** ****** ****** ****** ****** ****** ******
      ****** ****** ****** ****** ****** ****** ****** ****** ****** ******
  15  ****** ****** ****** ****** ****** ****** ****** ****** ****** ******
      ****** ****** ****** ****** ****** ****** ****** ****** ****** ******
      ****** ****** ****** ****** ****** ****** ****** ****** ****** ******
  16  ****** ****** ****** ****** ****** ****** ****** ****** ****** ******
      ****** ****** ****** ****** ****** ****** ****** ****** ****** ******
      ****** ****** ****** ****** ****** ****** ****** ****** ****** ******
  17  ****** ****** ****** ****** ****** ****** ****** ****** ****** ******
      ****** ****** ****** ****** ****** ****** ****** ****** ****** ******
      ****** ****** ****** ****** ****** ****** ****** ****** ****** ******
  18  ****** ****** ****** ****** ****** ****** ****** ****** ****** ******
      ****** ****** ****** ****** ****** ****** ****** ****** ****** ******
      ****** ****** ****** ****** ****** ****** ****** ****** ****** ******
  19  ****** ****** ****** ****** ****** ****** ****** ****** ****** ******
      ****** ****** ****** ****** ****** ****** ****** ****** ****** ******
      ****** ****** ****** ****** ****** ****** ****** ****** ****** ******
  20  ****** ****** ****** ****** ****** ****** ****** ****** ****** ******
      ****** ****** ****** ****** ****** ****** ****** ****** ****** ******
      ****** ****** ****** ****** ****** ****** ****** ****** ****** ******
  21  ****** ****** ****** ****** ****** ****** ****** ****** ****** ******
      ****** ****** ****** ****** ****** ****** ****** ****** ****** ******
      ****** ****** ****** ****** ****** ****** ****** ****** ****** ******
  22  ****** ****** ****** ****** ****** ****** ****** ****** ****** ******
      ****** ****** ****** ****** ****** ****** ****** ****** ****** ******
      ****** ****** ****** ****** ****** ****** ****** ****** ****** ******
  23  ****** ****** ****** ****** ****** ****** ****** ****** ****** ******
      ****** ****** ****** ****** ****** ****** ****** ****** ****** ******
      ****** ****** ****** ****** ****** ****** ****** ****** ****** ******
  24  ****** ****** ****** ****** ****** ****** ****** ****** ****** ******
      ****** ****** ****** ****** ****** ****** ****** ****** ****** ******
      ****** ****** ****** ****** ****** ****** ****** ****** ****** ******
  25  ****** ****** ****** ****** ****** ****** ****** ****** ****** ******
      ****** ****** ****** ****** ****** ****** ****** ****** ****** ******
      ****** ****** ****** ****** ****** ****** ****** ****** ****** ******

 HEAD WILL BE SAVED ON UNIT   51 AT END OF TIME STEP    1, STRESS PERIOD    4
1
  VOLUMETRIC BUDGET FOR ENTIRE MODEL AT END OF TIME STEP    1, STRESS PERIOD   4
  ------------------------------------------------------------------------------

     CUMULATIVE VOLUMES      L**3       RATES FOR THIS TIME STEP      L**3/T
     ------------------                 ------------------------

           IN:                                      IN:
           ---                                      ---
             STORAGE =    29166132.0627               STORAGE =       18075.1758
       CONSTANT HEAD =     7513596.0168         CONSTANT HEAD =       27877.1140
               WELLS =           0.0000                 WELLS =           0.0000
            RECHARGE =     8804400.0000              RECHARGE =       27600.0000
      STREAM LEAKAGE =     2788600.3064        STREAM LEAKAGE =       10540.4209

            TOTAL IN =    48272728.3859              TOTAL IN =       84092.7107

          OUT:                                     OUT:
          ----                                     ----
             STORAGE =         606.6621               STORAGE =           6.6666
       CONSTANT HEAD =           0.0000         CONSTANT HEAD =           0.0000
               WELLS =    13918573.9200                 WELLS =       38133.0792
            RECHARGE =           0.0000              RECHARGE =           0.0000
      STREAM LEAKAGE =    34353549.8398        STREAM LEAKAGE =       45952.9656

           TOTAL OUT =    48272730.4219             TOTAL OUT =       84092.7115

            IN - OUT =          -2.0360              IN - OUT =      -8.1305E-04

 PERCENT DISCREPANCY =          -0.00     PERCENT DISCREPANCY =          -0.00






         TIME SUMMARY AT END OF TIME STEP    1 IN STRESS PERIOD    4
                    SECONDS     MINUTES      HOURS       DAYS        YEARS
                    -----------------------------------------------------------
   TIME STEP LENGTH 7.86240E+06 1.31040E+05  2184.0      91.000     0.24914    
 STRESS PERIOD TIME 7.86240E+06 1.31040E+05  2184.0      91.000     0.24914    
         TOTAL TIME 3.15360E+07 5.25600E+05  8760.0      365.00     0.99932    
1
1
                            STRESS PERIOD NO.    5, LENGTH =   92.00000    
                            -----------------------------------------------

                              NUMBER OF TIME STEPS =     1

                               MULTIPLIER FOR DELT =     1.500

                            INITIAL TIME STEP SIZE =   92.00000    

 WELL NO.  LAYER   ROW   COL   STRESS RATE         
 --------------------------------------------------
      1      1     14      6       0.000    
      2      1      3      9       0.000    
      3      1     20     10       0.000    
      4      1     14     20       0.000    
      5      1     15     19     -0.1065E+05
      6      1     15     28      -8067.    
      7      1     19     14      -9238.    
      8      1      9     25     -0.1018E+05

      8 WELLS

                 RECHARGE =  5.000000E-04

 REUSING STREAM SEGMENT DATA FROM LAST STRESS PERIOD
 
 SOLVING FOR HEAD 


     7 CALLS TO PCG ROUTINE FOR TIME STEP   1 IN STRESS PERIOD    5
    26 TOTAL ITERATIONS

 OUTPUT CONTROL FOR STRESS PERIOD    5   TIME STEP    1
    SAVE BUDGET
    SAVE HEAD FOR ALL LAYERS
    PRINT HEAD FOR ALL LAYERS
 UBDSV2 SAVING "STREAMFLOW OUT  " ON UNIT  50 AT TIME STEP  1, STRESS PERIOD   5



 STREAM LISTING     PERIOD      5   STEP        1

 LAYER ROW COL. STREAM  RCH.  FLOW INTO     FLOW TO   FLOW OUT OF   OVRLND.     DIRECT     STREAM       STREAM     STREAM     STREAM   STREAMBED  STREAMBED
                SEG.NO.  NO.  STRM. RCH.    AQUIFER    STRM. RCH.    RUNOFF     PRECIP       ET          HEAD       DEPTH      WIDTH   CONDCTNC.   GRADIENT

   1   13    1     1     1    1.0000E+05 -2.1093E+03   1.0211E+05  0.000E+00  0.000E+00  0.000E+00  4.84069E+01  1.456E-01  2.000E+01  2.000E+04 -1.055E-01
   1   13    2     1     2    1.0211E+05 -3.1316E+03   1.0524E+05  0.000E+00  0.000E+00  0.000E+00  4.79319E+01  1.478E-01  2.000E+01  2.000E+04 -1.566E-01
   1   14    3     1     3    1.0524E+05 -4.9615E+02   1.0574E+05  0.000E+00  0.000E+00  0.000E+00  4.74562E+01  1.494E-01  2.000E+01  2.000E+04 -2.481E-02
   1   15    4     1     4    1.0574E+05 -4.5243E+02   1.0619E+05  0.000E+00  0.000E+00  0.000E+00  4.69793E+01  1.498E-01  2.000E+01  2.000E+04 -2.262E-02
   1   16    5     1     5    1.0619E+05 -1.5045E+03   1.0769E+05  0.000E+00  0.000E+00  0.000E+00  4.65029E+01  1.506E-01  2.000E+01  2.000E+04 -7.523E-02
   1   16    6     1     6    1.0769E+05 -9.4130E+02   1.0864E+05  0.000E+00  0.000E+00  0.000E+00  4.60266E+01  1.516E-01  2.000E+01  2.000E+04 -4.707E-02
   1   16    7     1     7    1.0864E+05 -8.8896E+02   1.0952E+05  0.000E+00  0.000E+00  0.000E+00  4.55501E+01  1.524E-01  2.000E+01  2.000E+04 -4.445E-02
   1   16    8     1     8    1.0952E+05 -8.2389E+02   1.1035E+05  0.000E+00  0.000E+00  0.000E+00  4.50736E+01  1.531E-01  2.000E+01  2.000E+04 -4.119E-02
   1   16    9     1     9    1.1035E+05 -7.2152E+02   1.1107E+05  0.000E+00  0.000E+00  0.000E+00  4.45969E+01  1.538E-01  2.000E+01  2.000E+04 -3.608E-02
   1   16   10     1    10    1.1107E+05 -5.6632E+02   1.1164E+05  0.000E+00  0.000E+00  0.000E+00  4.41202E+01  1.543E-01  2.000E+01  2.000E+04 -2.832E-02
   1   16   11     1    11    1.1164E+05 -3.3761E+02   1.1197E+05  0.000E+00  0.000E+00  0.000E+00  4.36433E+01  1.547E-01  2.000E+01  2.000E+04 -1.688E-02
   1   16   12     1    12    1.1197E+05 -1.2156E+02   1.1210E+05  0.000E+00  0.000E+00  0.000E+00  4.31662E+01  1.549E-01  2.000E+01  2.000E+04 -6.078E-03
   1   15   13     1    13    1.1210E+05 -4.9240E+02   1.1259E+05  0.000E+00  0.000E+00  0.000E+00  4.26892E+01  1.551E-01  2.000E+01  2.000E+04 -2.462E-02
   1   14   14     1    14    1.1259E+05 -1.0349E+03   1.1362E+05  0.000E+00  0.000E+00  0.000E+00  4.22126E+01  1.557E-01  2.000E+01  2.000E+04 -5.174E-02
   1   13   15     1    15    1.1362E+05 -1.5603E+03   1.1518E+05  0.000E+00  0.000E+00  0.000E+00  4.17364E+01  1.568E-01  2.000E+01  2.000E+04 -7.801E-02
   1   12   16     1    16    1.1518E+05 -2.7289E+03   1.1791E+05  0.000E+00  0.000E+00  0.000E+00  4.12608E+01  1.586E-01  2.000E+01  2.000E+04 -1.364E-01
   1   12   17     1    17    1.1791E+05 -1.3256E+03   1.1924E+05  0.000E+00  0.000E+00  0.000E+00  4.07852E+01  1.602E-01  2.000E+01  2.000E+04 -6.628E-02
   1   12   18     1    18    1.1924E+05 -1.0041E+03   1.2024E+05  0.000E+00  0.000E+00  0.000E+00  4.03089E+01  1.612E-01  2.000E+01  2.000E+04 -5.020E-02
   1   12   19     1    19    1.2024E+05 -1.4506E+03   1.2169E+05  0.000E+00  0.000E+00  0.000E+00  3.98326E+01  1.622E-01  2.000E+01  2.000E+04 -7.253E-02
   1   13   20     1    20    1.2169E+05  3.4381E+02   1.2135E+05  0.000E+00  0.000E+00  0.000E+00  3.93558E+01  1.626E-01  2.000E+01  2.000E+04  1.719E-02
   1   14   21     1    21    1.2135E+05  8.7975E+02   1.2047E+05  0.000E+00  0.000E+00  0.000E+00  3.88780E+01  1.621E-01  2.000E+01  2.000E+04  4.399E-02
   1   14   22     1    22    1.2047E+05  5.2280E+03   1.1524E+05  0.000E+00  0.000E+00  0.000E+00  3.83983E+01  1.596E-01  2.000E+01  2.000E+04  2.614E-01
   1    9   30     2     1    5.0000E+04  2.5061E+00   4.9997E+04  0.000E+00  0.000E+00  0.000E+00  4.02409E+01  1.159E-01  2.000E+01  2.000E+04  1.253E-04
   1    9   29     2     2    4.9997E+04 -2.8629E+02   5.0284E+04  0.000E+00  0.000E+00  0.000E+00  3.99911E+01  1.161E-01  2.000E+01  2.000E+04 -1.431E-02
   1    9   28     2     3    5.0284E+04 -4.7682E+02   5.0761E+04  0.000E+00  0.000E+00  0.000E+00  3.97416E+01  1.166E-01  2.000E+01  2.000E+04 -2.384E-02
   1    9   27     2     4    5.0761E+04 -3.5130E+02   5.1112E+04  0.000E+00  0.000E+00  0.000E+00  3.94922E+01  1.172E-01  2.000E+01  2.000E+04 -1.756E-02
   1   10   26     2     5    5.1112E+04  1.4429E+03   4.9669E+04  0.000E+00  0.000E+00  0.000E+00  3.92414E+01  1.164E-01  2.000E+01  2.000E+04  7.215E-02
   1   11   25     2     6    4.9669E+04  6.6147E+02   4.9008E+04  0.000E+00  0.000E+00  0.000E+00  3.89899E+01  1.149E-01  2.000E+01  2.000E+04  3.307E-02
   1   12   24     2     7    4.9008E+04 -7.1310E+02   4.9721E+04  0.000E+00  0.000E+00  0.000E+00  3.87400E+01  1.150E-01  2.000E+01  2.000E+04 -3.566E-02
   1   13   23     2     8    4.9721E+04 -1.6736E+02   4.9888E+04  0.000E+00  0.000E+00  0.000E+00  3.84906E+01  1.156E-01  2.000E+01  2.000E+04 -8.368E-03
   1   14   22     2     9    4.9888E+04  2.0481E+03   4.7840E+04  0.000E+00  0.000E+00  0.000E+00  3.82393E+01  1.143E-01  2.000E+01  2.000E+04  1.024E-01
   1   14   22     3     1    1.6308E+05 -8.3577E+03   1.7144E+05  0.000E+00  0.000E+00  0.000E+00  3.77190E+01  1.634E-01  2.000E+01  2.000E+04 -4.179E-01
   1   15   23     3     2    1.7144E+05 -2.8668E+02   1.7172E+05  0.000E+00  0.000E+00  0.000E+00  3.68326E+01  1.660E-01  2.000E+01  2.000E+04 -1.433E-02
   1   15   24     3     3    1.7172E+05 -2.1108E+02   1.7194E+05  0.000E+00  0.000E+00  0.000E+00  3.59439E+01  1.661E-01  2.000E+01  2.000E+04 -1.055E-02
   1   15   25     3     4    1.7194E+05 -2.0150E+02   1.7214E+05  0.000E+00  0.000E+00  0.000E+00  3.50551E+01  1.662E-01  2.000E+01  2.000E+04 -1.007E-02
   1   15   26     3     5    1.7214E+05  4.8099E+01   1.7209E+05  0.000E+00  0.000E+00  0.000E+00  3.41663E+01  1.663E-01  2.000E+01  2.000E+04  2.405E-03
   1   16   27     3     6    1.7209E+05  3.7453E+02   1.7171E+05  0.000E+00  0.000E+00  0.000E+00  3.32772E+01  1.661E-01  2.000E+01  2.000E+04  1.873E-02
   1   17   28     3     7    1.7171E+05  1.5451E+03   1.7017E+05  0.000E+00  0.000E+00  0.000E+00  3.23878E+01  1.656E-01  2.000E+01  2.000E+04  7.726E-02
   1   18   29     3     8    1.7017E+05 -1.9983E+03   1.7217E+05  0.000E+00  0.000E+00  0.000E+00  3.14990E+01  1.657E-01  2.000E+01  2.000E+04 -9.991E-02
   1   18   30     3     9    1.7217E+05 -2.2370E+03   1.7440E+05  0.000E+00  0.000E+00  0.000E+00  3.06114E+01  1.669E-01  2.000E+01  2.000E+04 -1.118E-01



1
              HEAD IN LAYER   1 AT END OF TIME STEP   1 IN STRESS PERIOD    5
  ---------------------------------------------------------------------------

          1      2      3      4      5      6      7      8      9     10
         11     12     13     14     15     16     17     18     19     20
         21     22     23     24     25     26     27     28     29     30
 .........................................................................
   1  ****** ****** ****** ****** ****** ****** ****** ****** ****** ******
      ****** ****** ****** ****** ****** ****** ****** ****** ****** ******
      ****** ****** ****** ****** ****** ****** ****** ****** ****** ******
   2  ****** ****** ****** ****** ****** ****** ****** ****** ****** ******
      ****** ****** ****** ****** ****** ****** ****** ****** ****** ******
      ****** ****** ****** ****** ****** ****** ****** ****** ****** ******
   3  ****** ****** ****** ****** ****** ****** ****** ****** ****** ******
      ****** ****** ****** ****** ****** ****** ****** ****** ****** ******
      ****** ****** ****** ****** ****** ****** ****** ****** ****** ******
   4  ****** ****** ****** ****** ****** ****** ****** ****** ****** ******
      ****** ****** ****** ****** ****** ****** ****** ****** ****** ******
      ****** ****** ****** ****** ****** ****** ****** ****** ****** ******
   5  ****** ****** ****** ****** ****** ****** ****** ****** ****** ******
      ****** ****** ****** ****** ****** ****** ****** ****** ****** ******
      ****** ****** ****** ****** ****** ****** ****** ****** ****** ******
   6  ****** ****** ****** ****** ****** ****** ****** ****** ****** ******
      ****** ****** ****** ****** ****** ****** ****** ****** ****** ******
      ****** ****** ****** ****** ****** ****** ****** ****** ****** ******
   7  ****** ****** ****** ****** ****** ****** ****** ****** ****** ******
      ****** ****** ****** ****** ****** ****** ****** ****** ****** ******
      ****** ****** ****** ****** ****** ****** ****** ****** ****** ******
   8  ****** ****** ****** ****** ****** ****** ****** ****** ****** ******
      ****** ****** ****** ****** ****** ****** ****** ****** ****** ******
      ****** ****** ****** ****** ****** ****** ****** ****** ****** ******
   9  ****** ****** ****** ****** ****** ****** ****** ****** ****** ******
      ****** ****** ****** ****** ****** ****** ****** ****** ****** ******
      ****** ****** ****** ****** ****** ****** ****** ****** ****** ******
  10  ****** ****** ****** ****** ****** ****** ****** ****** ****** ******
      ****** ****** ****** ****** ****** ****** ****** ****** ****** ******
      ****** ****** ****** ****** ****** ****** ****** ****** ****** ******
  11  ****** ****** ****** ****** ****** ****** ****** ****** ****** ******
      ****** ****** ****** ****** ****** ****** ****** ****** ****** ******
      ****** ****** ****** ****** ****** ****** ****** ****** ****** ******
  12  ****** ****** ****** ****** ****** ****** ****** ****** ****** ******
      ****** ****** ****** ****** ****** ****** ****** ****** ****** ******
      ****** ****** ****** ****** ****** ****** ****** ****** ****** ******
  13  ****** ****** ****** ****** ****** ****** ****** ****** ****** ******
      ****** ****** ****** ****** ****** ****** ****** ****** ****** ******
      ****** ****** ****** ****** ****** ****** ****** ****** ****** ******
  14  ****** ****** ****** ****** ****** ****** ****** ****** ****** ******
      ****** ****** ****** ****** ****** ****** ****** ****** ****** ******
      ****** ****** ****** ****** ****** ****** ****** ****** ****** ******
  15  ****** ****** ****** ****** ****** ****** ****** ****** ****** ******
      ****** ****** ****** ****** ****** ****** ****** ****** ****** ******
      ****** ****** ****** ****** ****** ****** ****** ****** ****** ******
  16  ****** ****** ****** ****** ****** ****** ****** ****** ****** ******
      ****** ****** ****** ****** ****** ****** ****** ****** ****** ******
      ****** ****** ****** ****** ****** ****** ****** ****** ****** ******
  17  ****** ****** ****** ****** ****** ****** ****** ****** ****** ******
      ****** ****** ****** ****** ****** ****** ****** ****** ****** ******
      ****** ****** ****** ****** ****** ****** ****** ****** ****** ******
  18  ****** ****** ****** ****** ****** ****** ****** ****** ****** ******
      ****** ****** ****** ****** ****** ****** ****** ****** ****** ******
      ****** ****** ****** ****** ****** ****** ****** ****** ****** ******
  19  ****** ****** ****** ****** ****** ****** ****** ****** ****** ******
      ****** ****** ****** ****** ****** ****** ****** ****** ****** ******
      ****** ****** ****** ****** ****** ****** ****** ****** ****** ******
  20  ****** ****** ****** ****** ****** ****** ****** ****** ****** ******
      ****** ****** ****** ****** ****** ****** ****** ****** ****** ******
      ****** ****** ****** ****** ****** ****** ****** ****** ****** ******
  21  ****** ****** ****** ****** ****** ****** ****** ****** ****** ******
      ****** ****** ****** ****** ****** ****** ****** ****** ****** ******
      ****** ****** ****** ****** ****** ****** ****** ****** ****** ******
  22  ****** ****** ****** ****** ****** ****** ****** ****** ****** ******
      ****** ****** ****** ****** ****** ****** ****** ****** ****** ******
      ****** ****** ****** ****** ****** ****** ****** ****** ****** ******
  23  ****** ****** ****** ****** ****** ****** ****** ****** ****** ******
      ****** ****** ****** ****** ****** ****** ****** ****** ****** ******
      ****** ****** ****** ****** ****** ****** ****** ****** ****** ******
  24  ****** ****** ****** ****** ****** ****** ****** ****** ****** ******
      ****** ****** ****** ****** ****** ****** ****** ****** ****** ******
      ****** ****** ****** ****** ****** ****** ****** ****** ****** ******
  25  ****** ****** ****** ****** ****** ****** ****** ****** ****** ******
      ****** ****** ****** ****** ****** ****** ****** ****** ****** ******
      ****** ****** ****** ****** ****** ****** ****** ****** ****** ******

 HEAD WILL BE SAVED ON UNIT   51 AT END OF TIME STEP    1, STRESS PERIOD    5
1
  VOLUMETRIC BUDGET FOR ENTIRE MODEL AT END OF TIME STEP    1, STRESS PERIOD   5
  ------------------------------------------------------------------------------

     CUMULATIVE VOLUMES      L**3       RATES FOR THIS TIME STEP      L**3/T
     ------------------                 ------------------------

           IN:                                      IN:
           ---                                      ---
             STORAGE =    30819104.7125               STORAGE =       17967.0940
       CONSTANT HEAD =    10344498.9869         CONSTANT HEAD =       30770.6845
               WELLS =           0.0000                 WELLS =           0.0000
            RECHARGE =    10074000.0000              RECHARGE =       13800.0000
      STREAM LEAKAGE =     3945436.0668        STREAM LEAKAGE =       12574.3017

            TOTAL IN =    55183039.7662              TOTAL IN =       75112.0802

          OUT:                                     OUT:
          ----                                     ----
             STORAGE =         606.6621               STORAGE =           0.0000
       CONSTANT HEAD =           0.0000         CONSTANT HEAD =           0.0000
               WELLS =    17426817.2094                 WELLS =       38133.0792
            RECHARGE =           0.0000              RECHARGE =           0.0000
      STREAM LEAKAGE =    37755618.2207        STREAM LEAKAGE =       36979.0041

           TOTAL OUT =    55183042.0922             TOTAL OUT =       75112.0834

            IN - OUT =          -2.3260              IN - OUT =      -3.1522E-03

 PERCENT DISCREPANCY =          -0.00     PERCENT DISCREPANCY =          -0.00






         TIME SUMMARY AT END OF TIME STEP    1 IN STRESS PERIOD    5
                    SECONDS     MINUTES      HOURS       DAYS        YEARS
                    -----------------------------------------------------------
   TIME STEP LENGTH 7.94880E+06 1.32480E+05  2208.0      92.000     0.25188    
 STRESS PERIOD TIME 7.94880E+06 1.32480E+05  2208.0      92.000     0.25188    
         TOTAL TIME 3.94848E+07 6.58080E+05  10968.      457.00      1.2512    
1
1
                            STRESS PERIOD NO.    6, LENGTH =   91.00000    
                            -----------------------------------------------

                              NUMBER OF TIME STEPS =     1

                               MULTIPLIER FOR DELT =     1.500

                            INITIAL TIME STEP SIZE =   91.00000    

 WELL NO.  LAYER   ROW   COL   STRESS RATE         
 --------------------------------------------------
      1      1     14      6       0.000    
      2      1      3      9       0.000    
      3      1     20     10       0.000    
      4      1     14     20       0.000    
      5      1     15     19     -0.1065E+05
      6      1     15     28      -8067.    
      7      1     19     14      -9238.    
      8      1      9     25     -0.1018E+05

      8 WELLS

                 RECHARGE =  2.000000E-03

 REUSING STREAM SEGMENT DATA FROM LAST STRESS PERIOD
 
 SOLVING FOR HEAD 


     7 CALLS TO PCG ROUTINE FOR TIME STEP   1 IN STRESS PERIOD    6
    26 TOTAL ITERATIONS

 OUTPUT CONTROL FOR STRESS PERIOD    6   TIME STEP    1
    SAVE BUDGET
    SAVE HEAD FOR ALL LAYERS
    PRINT HEAD FOR ALL LAYERS
 UBDSV2 SAVING "STREAMFLOW OUT  " ON UNIT  50 AT TIME STEP  1, STRESS PERIOD   6



 STREAM LISTING     PERIOD      6   STEP        1

 LAYER ROW COL. STREAM  RCH.  FLOW INTO     FLOW TO   FLOW OUT OF   OVRLND.     DIRECT     STREAM       STREAM     STREAM     STREAM   STREAMBED  STREAMBED
                SEG.NO.  NO.  STRM. RCH.    AQUIFER    STRM. RCH.    RUNOFF     PRECIP       ET          HEAD       DEPTH      WIDTH   CONDCTNC.   GRADIENT

   1   13    1     1     1    1.0000E+05 -2.4310E+03   1.0243E+05  0.000E+00  0.000E+00  0.000E+00  4.84071E+01  1.457E-01  2.000E+01  2.000E+04 -1.215E-01
   1   13    2     1     2    1.0243E+05 -3.4846E+03   1.0592E+05  0.000E+00  0.000E+00  0.000E+00  4.79323E+01  1.482E-01  2.000E+01  2.000E+04 -1.742E-01
   1   14    3     1     3    1.0592E+05 -6.5171E+02   1.0657E+05  0.000E+00  0.000E+00  0.000E+00  4.74568E+01  1.500E-01  2.000E+01  2.000E+04 -3.259E-02
   1   15    4     1     4    1.0657E+05 -6.1883E+02   1.0719E+05  0.000E+00  0.000E+00  0.000E+00  4.69801E+01  1.505E-01  2.000E+01  2.000E+04 -3.094E-02
   1   16    5     1     5    1.0719E+05 -1.9943E+03   1.0918E+05  0.000E+00  0.000E+00  0.000E+00  4.65039E+01  1.516E-01  2.000E+01  2.000E+04 -9.972E-02
   1   16    6     1     6    1.0918E+05 -1.2295E+03   1.1041E+05  0.000E+00  0.000E+00  0.000E+00  4.60280E+01  1.530E-01  2.000E+01  2.000E+04 -6.147E-02
   1   16    7     1     7    1.1041E+05 -1.1621E+03   1.1157E+05  0.000E+00  0.000E+00  0.000E+00  4.55517E+01  1.540E-01  2.000E+01  2.000E+04 -5.810E-02
   1   16    8     1     8    1.1157E+05 -1.0923E+03   1.1266E+05  0.000E+00  0.000E+00  0.000E+00  4.50754E+01  1.549E-01  2.000E+01  2.000E+04 -5.461E-02
   1   16    9     1     9    1.1266E+05 -9.8909E+02   1.1365E+05  0.000E+00  0.000E+00  0.000E+00  4.45990E+01  1.558E-01  2.000E+01  2.000E+04 -4.945E-02
   1   16   10     1    10    1.1365E+05 -8.3488E+02   1.1449E+05  0.000E+00  0.000E+00  0.000E+00  4.41225E+01  1.565E-01  2.000E+01  2.000E+04 -4.174E-02
   1   16   11     1    11    1.1449E+05 -6.0844E+02   1.1510E+05  0.000E+00  0.000E+00  0.000E+00  4.36458E+01  1.571E-01  2.000E+01  2.000E+04 -3.042E-02
   1   16   12     1    12    1.1510E+05 -5.5827E+02   1.1565E+05  0.000E+00  0.000E+00  0.000E+00  4.31690E+01  1.576E-01  2.000E+01  2.000E+04 -2.791E-02
   1   15   13     1    13    1.1565E+05 -9.4483E+02   1.1660E+05  0.000E+00  0.000E+00  0.000E+00  4.26923E+01  1.582E-01  2.000E+01  2.000E+04 -4.724E-02
   1   14   14     1    14    1.1660E+05 -1.4860E+03   1.1809E+05  0.000E+00  0.000E+00  0.000E+00  4.22160E+01  1.592E-01  2.000E+01  2.000E+04 -7.430E-02
   1   13   15     1    15    1.1809E+05 -1.9954E+03   1.2008E+05  0.000E+00  0.000E+00  0.000E+00  4.17402E+01  1.606E-01  2.000E+01  2.000E+04 -9.977E-02
   1   12   16     1    16    1.2008E+05 -3.1237E+03   1.2320E+05  0.000E+00  0.000E+00  0.000E+00  4.12650E+01  1.627E-01  2.000E+01  2.000E+04 -1.562E-01
   1   12   17     1    17    1.2320E+05 -1.6433E+03   1.2485E+05  0.000E+00  0.000E+00  0.000E+00  4.07896E+01  1.646E-01  2.000E+01  2.000E+04 -8.217E-02
   1   12   18     1    18    1.2485E+05 -1.3246E+03   1.2617E+05  0.000E+00  0.000E+00  0.000E+00  4.03135E+01  1.658E-01  2.000E+01  2.000E+04 -6.623E-02
   1   12   19     1    19    1.2617E+05 -1.8498E+03   1.2802E+05  0.000E+00  0.000E+00  0.000E+00  3.98375E+01  1.670E-01  2.000E+01  2.000E+04 -9.249E-02
   1   13   20     1    20    1.2802E+05 -7.6103E+01   1.2810E+05  0.000E+00  0.000E+00  0.000E+00  3.93610E+01  1.678E-01  2.000E+01  2.000E+04 -3.805E-03
   1   14   21     1    21    1.2810E+05  4.7648E+02   1.2762E+05  0.000E+00  0.000E+00  0.000E+00  3.88835E+01  1.676E-01  2.000E+01  2.000E+04  2.382E-02
   1   14   22     1    22    1.2762E+05  5.1213E+03   1.2250E+05  0.000E+00  0.000E+00  0.000E+00  3.84041E+01  1.654E-01  2.000E+01  2.000E+04  2.561E-01
   1    9   30     2     1    5.0000E+04 -3.6229E+02   5.0362E+04  0.000E+00  0.000E+00  0.000E+00  4.02411E+01  1.161E-01  2.000E+01  2.000E+04 -1.811E-02
   1    9   29     2     2    5.0362E+04 -6.4688E+02   5.1009E+04  0.000E+00  0.000E+00  0.000E+00  3.99918E+01  1.168E-01  2.000E+01  2.000E+04 -3.234E-02
   1    9   28     2     3    5.1009E+04 -8.3106E+02   5.1840E+04  0.000E+00  0.000E+00  0.000E+00  3.97428E+01  1.178E-01  2.000E+01  2.000E+04 -4.155E-02
   1    9   27     2     4    5.1840E+04 -8.0107E+02   5.2641E+04  0.000E+00  0.000E+00  0.000E+00  3.94940E+01  1.190E-01  2.000E+01  2.000E+04 -4.005E-02
   1   10   26     2     5    5.2641E+04  9.6966E+02   5.1672E+04  0.000E+00  0.000E+00  0.000E+00  3.92438E+01  1.188E-01  2.000E+01  2.000E+04  4.848E-02
   1   11   25     2     6    5.1672E+04  2.0304E+02   5.1469E+04  0.000E+00  0.000E+00  0.000E+00  3.89930E+01  1.180E-01  2.000E+01  2.000E+04  1.015E-02
   1   12   24     2     7    5.1469E+04 -1.1267E+03   5.2595E+04  0.000E+00  0.000E+00  0.000E+00  3.87437E+01  1.187E-01  2.000E+01  2.000E+04 -5.634E-02
   1   13   23     2     8    5.2595E+04 -3.0576E+02   5.2901E+04  0.000E+00  0.000E+00  0.000E+00  3.84946E+01  1.196E-01  2.000E+01  2.000E+04 -1.529E-02
   1   14   22     2     9    5.2901E+04  1.9111E+03   5.0990E+04  0.000E+00  0.000E+00  0.000E+00  3.82435E+01  1.185E-01  2.000E+01  2.000E+04  9.555E-02
   1   14   22     3     1    1.7349E+05 -8.4590E+03   1.8195E+05  0.000E+00  0.000E+00  0.000E+00  3.77250E+01  1.695E-01  2.000E+01  2.000E+04 -4.230E-01
   1   15   23     3     2    1.8195E+05 -4.2163E+02   1.8237E+05  0.000E+00  0.000E+00  0.000E+00  3.68387E+01  1.720E-01  2.000E+01  2.000E+04 -2.108E-02
   1   15   24     3     3    1.8237E+05 -3.3185E+02   1.8270E+05  0.000E+00  0.000E+00  0.000E+00  3.59500E+01  1.722E-01  2.000E+01  2.000E+04 -1.659E-02
   1   15   25     3     4    1.8270E+05 -3.2692E+02   1.8303E+05  0.000E+00  0.000E+00  0.000E+00  3.50613E+01  1.724E-01  2.000E+01  2.000E+04 -1.635E-02
   1   15   26     3     5    1.8303E+05 -1.0251E+02   1.8313E+05  0.000E+00  0.000E+00  0.000E+00  3.41725E+01  1.725E-01  2.000E+01  2.000E+04 -5.126E-03
   1   16   27     3     6    1.8313E+05  2.0699E+02   1.8293E+05  0.000E+00  0.000E+00  0.000E+00  3.32836E+01  1.725E-01  2.000E+01  2.000E+04  1.035E-02
   1   17   28     3     7    1.8293E+05  1.0864E+03   1.8184E+05  0.000E+00  0.000E+00  0.000E+00  3.23944E+01  1.721E-01  2.000E+01  2.000E+04  5.432E-02
   1   18   29     3     8    1.8184E+05 -2.4303E+03   1.8427E+05  0.000E+00  0.000E+00  0.000E+00  3.15059E+01  1.725E-01  2.000E+01  2.000E+04 -1.215E-01
   1   18   30     3     9    1.8427E+05 -2.5886E+03   1.8686E+05  0.000E+00  0.000E+00  0.000E+00  3.06184E+01  1.739E-01  2.000E+01  2.000E+04 -1.294E-01



1
              HEAD IN LAYER   1 AT END OF TIME STEP   1 IN STRESS PERIOD    6
  ---------------------------------------------------------------------------

          1      2      3      4      5      6      7      8      9     10
         11     12     13     14     15     16     17     18     19     20
         21     22     23     24     25     26     27     28     29     30
 .........................................................................
   1  ****** ****** ****** ****** ****** ****** ****** ****** ****** ******
      ****** ****** ****** ****** ****** ****** ****** ****** ****** ******
      ****** ****** ****** ****** ****** ****** ****** ****** ****** ******
   2  ****** ****** ****** ****** ****** ****** ****** ****** ****** ******
      ****** ****** ****** ****** ****** ****** ****** ****** ****** ******
      ****** ****** ****** ****** ****** ****** ****** ****** ****** ******
   3  ****** ****** ****** ****** ****** ****** ****** ****** ****** ******
      ****** ****** ****** ****** ****** ****** ****** ****** ****** ******
      ****** ****** ****** ****** ****** ****** ****** ****** ****** ******
   4  ****** ****** ****** ****** ****** ****** ****** ****** ****** ******
      ****** ****** ****** ****** ****** ****** ****** ****** ****** ******
      ****** ****** ****** ****** ****** ****** ****** ****** ****** ******
   5  ****** ****** ****** ****** ****** ****** ****** ****** ****** ******
      ****** ****** ****** ****** ****** ****** ****** ****** ****** ******
      ****** ****** ****** ****** ****** ****** ****** ****** ****** ******
   6  ****** ****** ****** ****** ****** ****** ****** ****** ****** ******
      ****** ****** ****** ****** ****** ****** ****** ****** ****** ******
      ****** ****** ****** ****** ****** ****** ****** ****** ****** ******
   7  ****** ****** ****** ****** ****** ****** ****** ****** ****** ******
      ****** ****** ****** ****** ****** ****** ****** ****** ****** ******
      ****** ****** ****** ****** ****** ****** ****** ****** ****** ******
   8  ****** ****** ****** ****** ****** ****** ****** ****** ****** ******
      ****** ****** ****** ****** ****** ****** ****** ****** ****** ******
      ****** ****** ****** ****** ****** ****** ****** ****** ****** ******
   9  ****** ****** ****** ****** ****** ****** ****** ****** ****** ******
      ****** ****** ****** ****** ****** ****** ****** ****** ****** ******
      ****** ****** ****** ****** ****** ****** ****** ****** ****** ******
  10  ****** ****** ****** ****** ****** ****** ****** ****** ****** ******
      ****** ****** ****** ****** ****** ****** ****** ****** ****** ******
      ****** ****** ****** ****** ****** ****** ****** ****** ****** ******
  11  ****** ****** ****** ****** ****** ****** ****** ****** ****** ******
      ****** ****** ****** ****** ****** ****** ****** ****** ****** ******
      ****** ****** ****** ****** ****** ****** ****** ****** ****** ******
  12  ****** ****** ****** ****** ****** ****** ****** ****** ****** ******
      ****** ****** ****** ****** ****** ****** ****** ****** ****** ******
      ****** ****** ****** ****** ****** ****** ****** ****** ****** ******
  13  ****** ****** ****** ****** ****** ****** ****** ****** ****** ******
      ****** ****** ****** ****** ****** ****** ****** ****** ****** ******
      ****** ****** ****** ****** ****** ****** ****** ****** ****** ******
  14  ****** ****** ****** ****** ****** ****** ****** ****** ****** ******
      ****** ****** ****** ****** ****** ****** ****** ****** ****** ******
      ****** ****** ****** ****** ****** ****** ****** ****** ****** ******
  15  ****** ****** ****** ****** ****** ****** ****** ****** ****** ******
      ****** ****** ****** ****** ****** ****** ****** ****** ****** ******
      ****** ****** ****** ****** ****** ****** ****** ****** ****** ******
  16  ****** ****** ****** ****** ****** ****** ****** ****** ****** ******
      ****** ****** ****** ****** ****** ****** ****** ****** ****** ******
      ****** ****** ****** ****** ****** ****** ****** ****** ****** ******
  17  ****** ****** ****** ****** ****** ****** ****** ****** ****** ******
      ****** ****** ****** ****** ****** ****** ****** ****** ****** ******
      ****** ****** ****** ****** ****** ****** ****** ****** ****** ******
  18  ****** ****** ****** ****** ****** ****** ****** ****** ****** ******
      ****** ****** ****** ****** ****** ****** ****** ****** ****** ******
      ****** ****** ****** ****** ****** ****** ****** ****** ****** ******
  19  ****** ****** ****** ****** ****** ****** ****** ****** ****** ******
      ****** ****** ****** ****** ****** ****** ****** ****** ****** ******
      ****** ****** ****** ****** ****** ****** ****** ****** ****** ******
  20  ****** ****** ****** ****** ****** ****** ****** ****** ****** ******
      ****** ****** ****** ****** ****** ****** ****** ****** ****** ******
      ****** ****** ****** ****** ****** ****** ****** ****** ****** ******
  21  ****** ****** ****** ****** ****** ****** ****** ****** ****** ******
      ****** ****** ****** ****** ****** ****** ****** ****** ****** ******
      ****** ****** ****** ****** ****** ****** ****** ****** ****** ******
  22  ****** ****** ****** ****** ****** ****** ****** ****** ****** ******
      ****** ****** ****** ****** ****** ****** ****** ****** ****** ******
      ****** ****** ****** ****** ****** ****** ****** ****** ****** ******
  23  ****** ****** ****** ****** ****** ****** ****** ****** ****** ******
      ****** ****** ****** ****** ****** ****** ****** ****** ****** ******
      ****** ****** ****** ****** ****** ****** ****** ****** ****** ******
  24  ****** ****** ****** ****** ****** ****** ****** ****** ****** ******
      ****** ****** ****** ****** ****** ****** ****** ****** ****** ******
      ****** ****** ****** ****** ****** ****** ****** ****** ****** ******
  25  ****** ****** ****** ****** ****** ****** ****** ****** ****** ******
      ****** ****** ****** ****** ****** ****** ****** ****** ****** ******
      ****** ****** ****** ****** ****** ****** ****** ****** ****** ******

 HEAD WILL BE SAVED ON UNIT   51 AT END OF TIME STEP    1, STRESS PERIOD    6
1
  VOLUMETRIC BUDGET FOR ENTIRE MODEL AT END OF TIME STEP    1, STRESS PERIOD   6
  ------------------------------------------------------------------------------

     CUMULATIVE VOLUMES      L**3       RATES FOR THIS TIME STEP      L**3/T
     ------------------                 ------------------------

           IN:                                      IN:
           ---                                      ---
             STORAGE =    30819104.7125               STORAGE =           0.0000
       CONSTANT HEAD =    12968957.7973         CONSTANT HEAD =       28840.2067
               WELLS =           0.0000                 WELLS =           0.0000
            RECHARGE =    15097200.0000              RECHARGE =       55200.0000
      STREAM LEAKAGE =     4853158.5036        STREAM LEAKAGE =        9974.9718

            TOTAL IN =    63738421.0134              TOTAL IN =       94015.1785

          OUT:                                     OUT:
          ----                                     ----
             STORAGE =      824038.8821               STORAGE =        9048.7057
       CONSTANT HEAD =           0.0000         CONSTANT HEAD =           0.0000
               WELLS =    20896927.4196                 WELLS =       38133.0792
            RECHARGE =           0.0000              RECHARGE =           0.0000
      STREAM LEAKAGE =    42017456.7710        STREAM LEAKAGE =       46833.3907

           TOTAL OUT =    63738423.0727             TOTAL OUT =       94015.1756

            IN - OUT =          -2.0593              IN - OUT =       2.9305E-03

 PERCENT DISCREPANCY =          -0.00     PERCENT DISCREPANCY =           0.00






         TIME SUMMARY AT END OF TIME STEP    1 IN STRESS PERIOD    6
                    SECONDS     MINUTES      HOURS       DAYS        YEARS
                    -----------------------------------------------------------
   TIME STEP LENGTH 7.86240E+06 1.31040E+05  2184.0      91.000     0.24914    
 STRESS PERIOD TIME 7.86240E+06 1.31040E+05  2184.0      91.000     0.24914    
         TOTAL TIME 4.73472E+07 7.89120E+05  13152.      548.00      1.5003    
1
1
                            STRESS PERIOD NO.    7, LENGTH =   91.00000    
                            -----------------------------------------------

                              NUMBER OF TIME STEPS =     1

                               MULTIPLIER FOR DELT =     1.500

                            INITIAL TIME STEP SIZE =   91.00000    

 WELL NO.  LAYER   ROW   COL   STRESS RATE         
 --------------------------------------------------
      1      1     14      6       0.000    
      2      1      3      9       0.000    
      3      1     20     10       0.000    
      4      1     14     20       0.000    
      5      1     15     19     -0.1065E+05
      6      1     15     28      -8067.    
      7      1     19     14      -9238.    
      8      1      9     25     -0.1018E+05

      8 WELLS

                 RECHARGE =   0.00000    

 REUSING STREAM SEGMENT DATA FROM LAST STRESS PERIOD
 
 SOLVING FOR HEAD 


     7 CALLS TO PCG ROUTINE FOR TIME STEP   1 IN STRESS PERIOD    7
    26 TOTAL ITERATIONS

 OUTPUT CONTROL FOR STRESS PERIOD    7   TIME STEP    1
    SAVE BUDGET
    SAVE HEAD FOR ALL LAYERS
    PRINT HEAD FOR ALL LAYERS
 UBDSV2 SAVING "STREAMFLOW OUT  " ON UNIT  50 AT TIME STEP  1, STRESS PERIOD   7



 STREAM LISTING     PERIOD      7   STEP        1

 LAYER ROW COL. STREAM  RCH.  FLOW INTO     FLOW TO   FLOW OUT OF   OVRLND.     DIRECT     STREAM       STREAM     STREAM     STREAM   STREAMBED  STREAMBED
                SEG.NO.  NO.  STRM. RCH.    AQUIFER    STRM. RCH.    RUNOFF     PRECIP       ET          HEAD       DEPTH      WIDTH   CONDCTNC.   GRADIENT

   1   13    1     1     1    1.0000E+05 -1.7713E+03   1.0177E+05  0.000E+00  0.000E+00  0.000E+00  4.84068E+01  1.454E-01  2.000E+01  2.000E+04 -8.856E-02
   1   13    2     1     2    1.0177E+05 -2.7469E+03   1.0452E+05  0.000E+00  0.000E+00  0.000E+00  4.79315E+01  1.474E-01  2.000E+01  2.000E+04 -1.373E-01
   1   14    3     1     3    1.0452E+05 -4.0056E+02   1.0492E+05  0.000E+00  0.000E+00  0.000E+00  4.74555E+01  1.487E-01  2.000E+01  2.000E+04 -2.003E-02
   1   15    4     1     4    1.0492E+05 -3.5650E+02   1.0528E+05  0.000E+00  0.000E+00  0.000E+00  4.69786E+01  1.490E-01  2.000E+01  2.000E+04 -1.782E-02
   1   16    5     1     5    1.0528E+05 -1.2377E+03   1.0651E+05  0.000E+00  0.000E+00  0.000E+00  4.65020E+01  1.497E-01  2.000E+01  2.000E+04 -6.188E-02
   1   16    6     1     6    1.0651E+05 -7.7377E+02   1.0729E+05  0.000E+00  0.000E+00  0.000E+00  4.60256E+01  1.506E-01  2.000E+01  2.000E+04 -3.869E-02
   1   16    7     1     7    1.0729E+05 -7.2492E+02   1.0801E+05  0.000E+00  0.000E+00  0.000E+00  4.55489E+01  1.512E-01  2.000E+01  2.000E+04 -3.625E-02
   1   16    8     1     8    1.0801E+05 -6.6102E+02   1.0867E+05  0.000E+00  0.000E+00  0.000E+00  4.50722E+01  1.518E-01  2.000E+01  2.000E+04 -3.305E-02
   1   16    9     1     9    1.0867E+05 -5.6074E+02   1.0923E+05  0.000E+00  0.000E+00  0.000E+00  4.45955E+01  1.523E-01  2.000E+01  2.000E+04 -2.804E-02
   1   16   10     1    10    1.0923E+05 -4.0860E+02   1.0964E+05  0.000E+00  0.000E+00  0.000E+00  4.41186E+01  1.527E-01  2.000E+01  2.000E+04 -2.043E-02
   1   16   11     1    11    1.0964E+05 -1.8033E+02   1.0982E+05  0.000E+00  0.000E+00  0.000E+00  4.36416E+01  1.529E-01  2.000E+01  2.000E+04 -9.016E-03
   1   16   12     1    12    1.0982E+05  1.6130E+02   1.0966E+05  0.000E+00  0.000E+00  0.000E+00  4.31643E+01  1.529E-01  2.000E+01  2.000E+04  8.065E-03
   1   15   13     1    13    1.0966E+05 -1.7687E+02   1.0984E+05  0.000E+00  0.000E+00  0.000E+00  4.26870E+01  1.530E-01  2.000E+01  2.000E+04 -8.843E-03
   1   14   14     1    14    1.0984E+05 -6.9254E+02   1.1053E+05  0.000E+00  0.000E+00  0.000E+00  4.22101E+01  1.533E-01  2.000E+01  2.000E+04 -3.463E-02
   1   13   15     1    15    1.1053E+05 -1.2021E+03   1.1173E+05  0.000E+00  0.000E+00  0.000E+00  4.17337E+01  1.541E-01  2.000E+01  2.000E+04 -6.011E-02
   1   12   16     1    16    1.1173E+05 -2.3403E+03   1.1407E+05  0.000E+00  0.000E+00  0.000E+00  4.12579E+01  1.556E-01  2.000E+01  2.000E+04 -1.170E-01
   1   12   17     1    17    1.1407E+05 -1.0711E+03   1.1514E+05  0.000E+00  0.000E+00  0.000E+00  4.07820E+01  1.570E-01  2.000E+01  2.000E+04 -5.355E-02
   1   12   18     1    18    1.1514E+05 -7.6560E+02   1.1591E+05  0.000E+00  0.000E+00  0.000E+00  4.03055E+01  1.577E-01  2.000E+01  2.000E+04 -3.828E-02
   1   12   19     1    19    1.1591E+05 -1.1674E+03   1.1708E+05  0.000E+00  0.000E+00  0.000E+00  3.98290E+01  1.585E-01  2.000E+01  2.000E+04 -5.837E-02
   1   13   20     1    20    1.1708E+05  5.9322E+02   1.1648E+05  0.000E+00  0.000E+00  0.000E+00  3.93519E+01  1.588E-01  2.000E+01  2.000E+04  2.966E-02
   1   14   21     1    21    1.1648E+05  1.1408E+03   1.1534E+05  0.000E+00  0.000E+00  0.000E+00  3.88740E+01  1.581E-01  2.000E+01  2.000E+04  5.704E-02
   1   14   22     1    22    1.1534E+05  5.2809E+03   1.1006E+05  0.000E+00  0.000E+00  0.000E+00  3.83940E+01  1.554E-01  2.000E+01  2.000E+04  2.640E-01
   1    9   30     2     1    5.0000E+04  1.5026E+02   4.9850E+04  0.000E+00  0.000E+00  0.000E+00  4.02408E+01  1.158E-01  2.000E+01  2.000E+04  7.513E-03
   1    9   29     2     2    4.9850E+04 -1.3622E+02   4.9986E+04  0.000E+00  0.000E+00  0.000E+00  3.99908E+01  1.158E-01  2.000E+01  2.000E+04 -6.811E-03
   1    9   28     2     3    4.9986E+04 -3.1931E+02   5.0305E+04  0.000E+00  0.000E+00  0.000E+00  3.97411E+01  1.161E-01  2.000E+01  2.000E+04 -1.597E-02
   1    9   27     2     4    5.0305E+04 -1.0696E+02   5.0412E+04  0.000E+00  0.000E+00  0.000E+00  3.94914E+01  1.164E-01  2.000E+01  2.000E+04 -5.348E-03
   1   10   26     2     5    5.0412E+04  1.6661E+03   4.8746E+04  0.000E+00  0.000E+00  0.000E+00  3.92403E+01  1.153E-01  2.000E+01  2.000E+04  8.330E-02
   1   11   25     2     6    4.8746E+04  8.7088E+02   4.7875E+04  0.000E+00  0.000E+00  0.000E+00  3.89885E+01  1.135E-01  2.000E+01  2.000E+04  4.354E-02
   1   12   24     2     7    4.7875E+04 -5.1812E+02   4.8393E+04  0.000E+00  0.000E+00  0.000E+00  3.87383E+01  1.133E-01  2.000E+01  2.000E+04 -2.591E-02
   1   13   23     2     8    4.8393E+04 -1.1434E+02   4.8508E+04  0.000E+00  0.000E+00  0.000E+00  3.84887E+01  1.137E-01  2.000E+01  2.000E+04 -5.717E-03
   1   14   22     2     9    4.8508E+04  2.1452E+03   4.6363E+04  0.000E+00  0.000E+00  0.000E+00  3.82373E+01  1.123E-01  2.000E+01  2.000E+04  1.073E-01
   1   14   22     3     1    1.5642E+05 -8.2994E+03   1.6472E+05  0.000E+00  0.000E+00  0.000E+00  3.77150E+01  1.595E-01  2.000E+01  2.000E+04 -4.150E-01
   1   15   23     3     2    1.6472E+05 -2.1441E+02   1.6494E+05  0.000E+00  0.000E+00  0.000E+00  3.68287E+01  1.620E-01  2.000E+01  2.000E+04 -1.072E-02
   1   15   24     3     3    1.6494E+05 -1.5785E+02   1.6510E+05  0.000E+00  0.000E+00  0.000E+00  3.59399E+01  1.621E-01  2.000E+01  2.000E+04 -7.892E-03
   1   15   25     3     4    1.6510E+05 -1.4992E+02   1.6525E+05  0.000E+00  0.000E+00  0.000E+00  3.50511E+01  1.622E-01  2.000E+01  2.000E+04 -7.496E-03
   1   15   26     3     5    1.6525E+05  9.8885E+01   1.6515E+05  0.000E+00  0.000E+00  0.000E+00  3.41622E+01  1.622E-01  2.000E+01  2.000E+04  4.944E-03
   1   16   27     3     6    1.6515E+05  4.3965E+02   1.6471E+05  0.000E+00  0.000E+00  0.000E+00  3.32732E+01  1.621E-01  2.000E+01  2.000E+04  2.198E-02
   1   17   28     3     7    1.6471E+05  1.7291E+03   1.6298E+05  0.000E+00  0.000E+00  0.000E+00  3.23836E+01  1.614E-01  2.000E+01  2.000E+04  8.645E-02
   1   18   29     3     8    1.6298E+05 -1.7418E+03   1.6472E+05  0.000E+00  0.000E+00  0.000E+00  3.14948E+01  1.614E-01  2.000E+01  2.000E+04 -8.709E-02
   1   18   30     3     9    1.6472E+05 -2.0587E+03   1.6678E+05  0.000E+00  0.000E+00  0.000E+00  3.06070E+01  1.625E-01  2.000E+01  2.000E+04 -1.029E-01



1
              HEAD IN LAYER   1 AT END OF TIME STEP   1 IN STRESS PERIOD    7
  ---------------------------------------------------------------------------

          1      2      3      4      5      6      7      8      9     10
         11     12     13     14     15     16     17     18     19     20
         21     22     23     24     25     26     27     28     29     30
 .........................................................................
   1  ****** ****** ****** ****** ****** ****** ****** ****** ****** ******
      ****** ****** ****** ****** ****** ****** ****** ****** ****** ******
      ****** ****** ****** ****** ****** ****** ****** ****** ****** ******
   2  ****** ****** ****** ****** ****** ****** ****** ****** ****** ******
      ****** ****** ****** ****** ****** ****** ****** ****** ****** ******
      ****** ****** ****** ****** ****** ****** ****** ****** ****** ******
   3  ****** ****** ****** ****** ****** ****** ****** ****** ****** ******
      ****** ****** ****** ****** ****** ****** ****** ****** ****** ******
      ****** ****** ****** ****** ****** ****** ****** ****** ****** ******
   4  ****** ****** ****** ****** ****** ****** ****** ****** ****** ******
      ****** ****** ****** ****** ****** ****** ****** ****** ****** ******
      ****** ****** ****** ****** ****** ****** ****** ****** ****** ******
   5  ****** ****** ****** ****** ****** ****** ****** ****** ****** ******
      ****** ****** ****** ****** ****** ****** ****** ****** ****** ******
      ****** ****** ****** ****** ****** ****** ****** ****** ****** ******
   6  ****** ****** ****** ****** ****** ****** ****** ****** ****** ******
      ****** ****** ****** ****** ****** ****** ****** ****** ****** ******
      ****** ****** ****** ****** ****** ****** ****** ****** ****** ******
   7  ****** ****** ****** ****** ****** ****** ****** ****** ****** ******
      ****** ****** ****** ****** ****** ****** ****** ****** ****** ******
      ****** ****** ****** ****** ****** ****** ****** ****** ****** ******
   8  ****** ****** ****** ****** ****** ****** ****** ****** ****** ******
      ****** ****** ****** ****** ****** ****** ****** ****** ****** ******
      ****** ****** ****** ****** ****** ****** ****** ****** ****** ******
   9  ****** ****** ****** ****** ****** ****** ****** ****** ****** ******
      ****** ****** ****** ****** ****** ****** ****** ****** ****** ******
      ****** ****** ****** ****** ****** ****** ****** ****** ****** ******
  10  ****** ****** ****** ****** ****** ****** ****** ****** ****** ******
      ****** ****** ****** ****** ****** ****** ****** ****** ****** ******
      ****** ****** ****** ****** ****** ****** ****** ****** ****** ******
  11  ****** ****** ****** ****** ****** ****** ****** ****** ****** ******
      ****** ****** ****** ****** ****** ****** ****** ****** ****** ******
      ****** ****** ****** ****** ****** ****** ****** ****** ****** ******
  12  ****** ****** ****** ****** ****** ****** ****** ****** ****** ******
      ****** ****** ****** ****** ****** ****** ****** ****** ****** ******
      ****** ****** ****** ****** ****** ****** ****** ****** ****** ******
  13  ****** ****** ****** ****** ****** ****** ****** ****** ****** ******
      ****** ****** ****** ****** ****** ****** ****** ****** ****** ******
      ****** ****** ****** ****** ****** ****** ****** ****** ****** ******
  14  ****** ****** ****** ****** ****** ****** ****** ****** ****** ******
      ****** ****** ****** ****** ****** ****** ****** ****** ****** ******
      ****** ****** ****** ****** ****** ****** ****** ****** ****** ******
  15  ****** ****** ****** ****** ****** ****** ****** ****** ****** ******
      ****** ****** ****** ****** ****** ****** ****** ****** ****** ******
      ****** ****** ****** ****** ****** ****** ****** ****** ****** ******
  16  ****** ****** ****** ****** ****** ****** ****** ****** ****** ******
      ****** ****** ****** ****** ****** ****** ****** ****** ****** ******
      ****** ****** ****** ****** ****** ****** ****** ****** ****** ******
  17  ****** ****** ****** ****** ****** ****** ****** ****** ****** ******
      ****** ****** ****** ****** ****** ****** ****** ****** ****** ******
      ****** ****** ****** ****** ****** ****** ****** ****** ****** ******
  18  ****** ****** ****** ****** ****** ****** ****** ****** ****** ******
      ****** ****** ****** ****** ****** ****** ****** ****** ****** ******
      ****** ****** ****** ****** ****** ****** ****** ****** ****** ******
  19  ****** ****** ****** ****** ****** ****** ****** ****** ****** ******
      ****** ****** ****** ****** ****** ****** ****** ****** ****** ******
      ****** ****** ****** ****** ****** ****** ****** ****** ****** ******
  20  ****** ****** ****** ****** ****** ****** ****** ****** ****** ******
      ****** ****** ****** ****** ****** ****** ****** ****** ****** ******
      ****** ****** ****** ****** ****** ****** ****** ****** ****** ******
  21  ****** ****** ****** ****** ****** ****** ****** ****** ****** ******
      ****** ****** ****** ****** ****** ****** ****** ****** ****** ******
      ****** ****** ****** ****** ****** ****** ****** ****** ****** ******
  22  ****** ****** ****** ****** ****** ****** ****** ****** ****** ******
      ****** ****** ****** ****** ****** ****** ****** ****** ****** ******
      ****** ****** ****** ****** ****** ****** ****** ****** ****** ******
  23  ****** ****** ****** ****** ****** ****** ****** ****** ****** ******
      ****** ****** ****** ****** ****** ****** ****** ****** ****** ******
      ****** ****** ****** ****** ****** ****** ****** ****** ****** ******
  24  ****** ****** ****** ****** ****** ****** ****** ****** ****** ******
      ****** ****** ****** ****** ****** ****** ****** ****** ****** ******
      ****** ****** ****** ****** ****** ****** ****** ****** ****** ******
  25  ****** ****** ****** ****** ****** ****** ****** ****** ****** ******
      ****** ****** ****** ****** ****** ****** ****** ****** ****** ******
      ****** ****** ****** ****** ****** ****** ****** ****** ****** ******

 HEAD WILL BE SAVED ON UNIT   51 AT END OF TIME STEP    1, STRESS PERIOD    7
1
  VOLUMETRIC BUDGET FOR ENTIRE MODEL AT END OF TIME STEP    1, STRESS PERIOD   7
  ------------------------------------------------------------------------------

     CUMULATIVE VOLUMES      L**3       RATES FOR THIS TIME STEP      L**3/T
     ------------------                 ------------------------

           IN:                                      IN:
           ---                                      ---
             STORAGE =    32836084.1353               STORAGE =       22164.6090
       CONSTANT HEAD =    15948961.3483         CONSTANT HEAD =       32747.2918
               WELLS =           0.0000                 WELLS =           0.0000
            RECHARGE =    15097200.0000              RECHARGE =           0.0000
      STREAM LEAKAGE =     6152298.0490        STREAM LEAKAGE =       14276.2587

            TOTAL IN =    70034543.5326              TOTAL IN =       69188.1596

          OUT:                                     OUT:
          ----                                     ----
             STORAGE =      824038.8821               STORAGE =           0.0000
       CONSTANT HEAD =           0.0000         CONSTANT HEAD =           0.0000
               WELLS =    24367037.6298                 WELLS =       38133.0792
            RECHARGE =           0.0000              RECHARGE =           0.0000
      STREAM LEAKAGE =    44843469.5864        STREAM LEAKAGE =       31055.0859

           TOTAL OUT =    70034546.0983             TOTAL OUT =       69188.1651

            IN - OUT =          -2.5657              IN - OUT =      -5.5644E-03

 PERCENT DISCREPANCY =          -0.00     PERCENT DISCREPANCY =          -0.00






         TIME SUMMARY AT END OF TIME STEP    1 IN STRESS PERIOD    7
                    SECONDS     MINUTES      HOURS       DAYS        YEARS
                    -----------------------------------------------------------
   TIME STEP LENGTH 7.86240E+06 1.31040E+05  2184.0      91.000     0.24914    
 STRESS PERIOD TIME 7.86240E+06 1.31040E+05  2184.0      91.000     0.24914    
         TOTAL TIME 5.52096E+07 9.20160E+05  15336.      639.00      1.7495    
1
1
                            STRESS PERIOD NO.    8, LENGTH =   91.00000    
                            -----------------------------------------------

                              NUMBER OF TIME STEPS =     1

                               MULTIPLIER FOR DELT =     1.500

                            INITIAL TIME STEP SIZE =   91.00000    

 WELL NO.  LAYER   ROW   COL   STRESS RATE         
 --------------------------------------------------
      1      1     14      6       0.000    
      2      1      3      9       0.000    
      3      1     20     10       0.000    
      4      1     14     20       0.000    
      5      1     15     19     -0.1065E+05
      6      1     15     28      -8067.    
      7      1     19     14      -9238.    
      8      1      9     25     -0.1018E+05

      8 WELLS

                 RECHARGE =  1.000000E-03

 REUSING STREAM SEGMENT DATA FROM LAST STRESS PERIOD
 
 SOLVING FOR HEAD 


     6 CALLS TO PCG ROUTINE FOR TIME STEP   1 IN STRESS PERIOD    8
    22 TOTAL ITERATIONS

 OUTPUT CONTROL FOR STRESS PERIOD    8   TIME STEP    1
    SAVE BUDGET
    SAVE HEAD FOR ALL LAYERS
    PRINT HEAD FOR ALL LAYERS
 UBDSV2 SAVING "STREAMFLOW OUT  " ON UNIT  50 AT TIME STEP  1, STRESS PERIOD   8



 STREAM LISTING     PERIOD      8   STEP        1

 LAYER ROW COL. STREAM  RCH.  FLOW INTO     FLOW TO   FLOW OUT OF   OVRLND.     DIRECT     STREAM       STREAM     STREAM     STREAM   STREAMBED  STREAMBED
                SEG.NO.  NO.  STRM. RCH.    AQUIFER    STRM. RCH.    RUNOFF     PRECIP       ET          HEAD       DEPTH      WIDTH   CONDCTNC.   GRADIENT

   1   13    1     1     1    1.0000E+05 -1.8498E+03   1.0185E+05  0.000E+00  0.000E+00  0.000E+00  4.84068E+01  1.455E-01  2.000E+01  2.000E+04 -9.249E-02
   1   13    2     1     2    1.0185E+05 -2.8260E+03   1.0468E+05  0.000E+00  0.000E+00  0.000E+00  4.79316E+01  1.475E-01  2.000E+01  2.000E+04 -1.413E-01
   1   14    3     1     3    1.0468E+05 -4.6533E+02   1.0514E+05  0.000E+00  0.000E+00  0.000E+00  4.74557E+01  1.489E-01  2.000E+01  2.000E+04 -2.327E-02
   1   15    4     1     4    1.0514E+05 -4.2561E+02   1.0557E+05  0.000E+00  0.000E+00  0.000E+00  4.69788E+01  1.493E-01  2.000E+01  2.000E+04 -2.128E-02
   1   16    5     1     5    1.0557E+05 -1.4100E+03   1.0698E+05  0.000E+00  0.000E+00  0.000E+00  4.65023E+01  1.500E-01  2.000E+01  2.000E+04 -7.050E-02
   1   16    6     1     6    1.0698E+05 -8.8027E+02   1.0786E+05  0.000E+00  0.000E+00  0.000E+00  4.60260E+01  1.510E-01  2.000E+01  2.000E+04 -4.401E-02
   1   16    7     1     7    1.0786E+05 -8.2654E+02   1.0868E+05  0.000E+00  0.000E+00  0.000E+00  4.55494E+01  1.517E-01  2.000E+01  2.000E+04 -4.133E-02
   1   16    8     1     8    1.0868E+05 -7.6178E+02   1.0945E+05  0.000E+00  0.000E+00  0.000E+00  4.50728E+01  1.524E-01  2.000E+01  2.000E+04 -3.809E-02
   1   16    9     1     9    1.0945E+05 -6.6254E+02   1.1011E+05  0.000E+00  0.000E+00  0.000E+00  4.45962E+01  1.530E-01  2.000E+01  2.000E+04 -3.313E-02
   1   16   10     1    10    1.1011E+05 -5.1270E+02   1.1062E+05  0.000E+00  0.000E+00  0.000E+00  4.41194E+01  1.535E-01  2.000E+01  2.000E+04 -2.563E-02
   1   16   11     1    11    1.1062E+05 -2.8716E+02   1.1091E+05  0.000E+00  0.000E+00  0.000E+00  4.36424E+01  1.538E-01  2.000E+01  2.000E+04 -1.436E-02
   1   16   12     1    12    1.1091E+05  1.6362E+00   1.1091E+05  0.000E+00  0.000E+00  0.000E+00  4.31653E+01  1.539E-01  2.000E+01  2.000E+04  8.181E-05
   1   15   13     1    13    1.1091E+05 -3.4532E+02   1.1125E+05  0.000E+00  0.000E+00  0.000E+00  4.26882E+01  1.541E-01  2.000E+01  2.000E+04 -1.727E-02
   1   14   14     1    14    1.1125E+05 -8.5517E+02   1.1211E+05  0.000E+00  0.000E+00  0.000E+00  4.22114E+01  1.546E-01  2.000E+01  2.000E+04 -4.276E-02
   1   13   15     1    15    1.1211E+05 -1.3529E+03   1.1346E+05  0.000E+00  0.000E+00  0.000E+00  4.17350E+01  1.555E-01  2.000E+01  2.000E+04 -6.764E-02
   1   12   16     1    16    1.1346E+05 -2.4548E+03   1.1591E+05  0.000E+00  0.000E+00  0.000E+00  4.12593E+01  1.570E-01  2.000E+01  2.000E+04 -1.227E-01
   1   12   17     1    17    1.1591E+05 -1.1836E+03   1.1710E+05  0.000E+00  0.000E+00  0.000E+00  4.07835E+01  1.585E-01  2.000E+01  2.000E+04 -5.918E-02
   1   12   18     1    18    1.1710E+05 -8.8455E+02   1.1798E+05  0.000E+00  0.000E+00  0.000E+00  4.03071E+01  1.594E-01  2.000E+01  2.000E+04 -4.423E-02
   1   12   19     1    19    1.1798E+05 -1.3176E+03   1.1930E+05  0.000E+00  0.000E+00  0.000E+00  3.98307E+01  1.603E-01  2.000E+01  2.000E+04 -6.588E-02
   1   13   20     1    20    1.1930E+05  4.1560E+02   1.1888E+05  0.000E+00  0.000E+00  0.000E+00  3.93538E+01  1.606E-01  2.000E+01  2.000E+04  2.078E-02
   1   14   21     1    21    1.1888E+05  9.8438E+02   1.1790E+05  0.000E+00  0.000E+00  0.000E+00  3.88760E+01  1.601E-01  2.000E+01  2.000E+04  4.922E-02
   1   14   22     1    22    1.1790E+05  5.2330E+03   1.1267E+05  0.000E+00  0.000E+00  0.000E+00  3.83962E+01  1.575E-01  2.000E+01  2.000E+04  2.617E-01
   1    9   30     2     1    5.0000E+04 -1.3268E+01   5.0013E+04  0.000E+00  0.000E+00  0.000E+00  4.02409E+01  1.159E-01  2.000E+01  2.000E+04 -6.634E-04
   1    9   29     2     2    5.0013E+04 -2.9698E+02   5.0310E+04  0.000E+00  0.000E+00  0.000E+00  3.99911E+01  1.161E-01  2.000E+01  2.000E+04 -1.485E-02
   1    9   28     2     3    5.0310E+04 -4.7459E+02   5.0785E+04  0.000E+00  0.000E+00  0.000E+00  3.97416E+01  1.166E-01  2.000E+01  2.000E+04 -2.373E-02
   1    9   27     2     4    5.0785E+04 -2.8596E+02   5.1071E+04  0.000E+00  0.000E+00  0.000E+00  3.94922E+01  1.172E-01  2.000E+01  2.000E+04 -1.430E-02
   1   10   26     2     5    5.1071E+04  1.4601E+03   4.9611E+04  0.000E+00  0.000E+00  0.000E+00  3.92413E+01  1.163E-01  2.000E+01  2.000E+04  7.301E-02
   1   11   25     2     6    4.9611E+04  6.6649E+02   4.8944E+04  0.000E+00  0.000E+00  0.000E+00  3.89899E+01  1.149E-01  2.000E+01  2.000E+04  3.332E-02
   1   12   24     2     7    4.8944E+04 -7.0369E+02   4.9648E+04  0.000E+00  0.000E+00  0.000E+00  3.87399E+01  1.149E-01  2.000E+01  2.000E+04 -3.518E-02
   1   13   23     2     8    4.9648E+04 -1.8869E+02   4.9837E+04  0.000E+00  0.000E+00  0.000E+00  3.84905E+01  1.155E-01  2.000E+01  2.000E+04 -9.435E-03
   1   14   22     2     9    4.9837E+04  2.0931E+03   4.7744E+04  0.000E+00  0.000E+00  0.000E+00  3.82392E+01  1.142E-01  2.000E+01  2.000E+04  1.047E-01
   1   14   22     3     1    1.6041E+05 -8.3422E+03   1.6875E+05  0.000E+00  0.000E+00  0.000E+00  3.77174E+01  1.619E-01  2.000E+01  2.000E+04 -4.171E-01
   1   15   23     3     2    1.6875E+05 -2.7801E+02   1.6903E+05  0.000E+00  0.000E+00  0.000E+00  3.68311E+01  1.644E-01  2.000E+01  2.000E+04 -1.390E-02
   1   15   24     3     3    1.6903E+05 -2.1804E+02   1.6925E+05  0.000E+00  0.000E+00  0.000E+00  3.59423E+01  1.645E-01  2.000E+01  2.000E+04 -1.090E-02
   1   15   25     3     4    1.6925E+05 -2.1188E+02   1.6946E+05  0.000E+00  0.000E+00  0.000E+00  3.50535E+01  1.647E-01  2.000E+01  2.000E+04 -1.059E-02
   1   15   26     3     5    1.6946E+05  2.4416E+01   1.6944E+05  0.000E+00  0.000E+00  0.000E+00  3.41647E+01  1.647E-01  2.000E+01  2.000E+04  1.221E-03
   1   16   27     3     6    1.6944E+05  3.5815E+02   1.6908E+05  0.000E+00  0.000E+00  0.000E+00  3.32757E+01  1.646E-01  2.000E+01  2.000E+04  1.791E-02
   1   17   28     3     7    1.6908E+05  1.5265E+03   1.6755E+05  0.000E+00  0.000E+00  0.000E+00  3.23863E+01  1.640E-01  2.000E+01  2.000E+04  7.632E-02
   1   18   29     3     8    1.6755E+05 -1.9049E+03   1.6946E+05  0.000E+00  0.000E+00  0.000E+00  3.14975E+01  1.642E-01  2.000E+01  2.000E+04 -9.524E-02
   1   18   30     3     9    1.6946E+05 -2.2039E+03   1.7166E+05  0.000E+00  0.000E+00  0.000E+00  3.06098E+01  1.654E-01  2.000E+01  2.000E+04 -1.102E-01



1
              HEAD IN LAYER   1 AT END OF TIME STEP   1 IN STRESS PERIOD    8
  ---------------------------------------------------------------------------

          1      2      3      4      5      6      7      8      9     10
         11     12     13     14     15     16     17     18     19     20
         21     22     23     24     25     26     27     28     29     30
 .........................................................................
   1  ****** ****** ****** ****** ****** ****** ****** ****** ****** ******
      ****** ****** ****** ****** ****** ****** ****** ****** ****** ******
      ****** ****** ****** ****** ****** ****** ****** ****** ****** ******
   2  ****** ****** ****** ****** ****** ****** ****** ****** ****** ******
      ****** ****** ****** ****** ****** ****** ****** ****** ****** ******
      ****** ****** ****** ****** ****** ****** ****** ****** ****** ******
   3  ****** ****** ****** ****** ****** ****** ****** ****** ****** ******
      ****** ****** ****** ****** ****** ****** ****** ****** ****** ******
      ****** ****** ****** ****** ****** ****** ****** ****** ****** ******
   4  ****** ****** ****** ****** ****** ****** ****** ****** ****** ******
      ****** ****** ****** ****** ****** ****** ****** ****** ****** ******
      ****** ****** ****** ****** ****** ****** ****** ****** ****** ******
   5  ****** ****** ****** ****** ****** ****** ****** ****** ****** ******
      ****** ****** ****** ****** ****** ****** ****** ****** ****** ******
      ****** ****** ****** ****** ****** ****** ****** ****** ****** ******
   6  ****** ****** ****** ****** ****** ****** ****** ****** ****** ******
      ****** ****** ****** ****** ****** ****** ****** ****** ****** ******
      ****** ****** ****** ****** ****** ****** ****** ****** ****** ******
   7  ****** ****** ****** ****** ****** ****** ****** ****** ****** ******
      ****** ****** ****** ****** ****** ****** ****** ****** ****** ******
      ****** ****** ****** ****** ****** ****** ****** ****** ****** ******
   8  ****** ****** ****** ****** ****** ****** ****** ****** ****** ******
      ****** ****** ****** ****** ****** ****** ****** ****** ****** ******
      ****** ****** ****** ****** ****** ****** ****** ****** ****** ******
   9  ****** ****** ****** ****** ****** ****** ****** ****** ****** ******
      ****** ****** ****** ****** ****** ****** ****** ****** ****** ******
      ****** ****** ****** ****** ****** ****** ****** ****** ****** ******
  10  ****** ****** ****** ****** ****** ****** ****** ****** ****** ******
      ****** ****** ****** ****** ****** ****** ****** ****** ****** ******
      ****** ****** ****** ****** ****** ****** ****** ****** ****** ******
  11  ****** ****** ****** ****** ****** ****** ****** ****** ****** ******
      ****** ****** ****** ****** ****** ****** ****** ****** ****** ******
      ****** ****** ****** ****** ****** ****** ****** ****** ****** ******
  12  ****** ****** ****** ****** ****** ****** ****** ****** ****** ******
      ****** ****** ****** ****** ****** ****** ****** ****** ****** ******
      ****** ****** ****** ****** ****** ****** ****** ****** ****** ******
  13  ****** ****** ****** ****** ****** ****** ****** ****** ****** ******
      ****** ****** ****** ****** ****** ****** ****** ****** ****** ******
      ****** ****** ****** ****** ****** ****** ****** ****** ****** ******
  14  ****** ****** ****** ****** ****** ****** ****** ****** ****** ******
      ****** ****** ****** ****** ****** ****** ****** ****** ****** ******
      ****** ****** ****** ****** ****** ****** ****** ****** ****** ******
  15  ****** ****** ****** ****** ****** ****** ****** ****** ****** ******
      ****** ****** ****** ****** ****** ****** ****** ****** ****** ******
      ****** ****** ****** ****** ****** ****** ****** ****** ****** ******
  16  ****** ****** ****** ****** ****** ****** ****** ****** ****** ******
      ****** ****** ****** ****** ****** ****** ****** ****** ****** ******
      ****** ****** ****** ****** ****** ****** ****** ****** ****** ******
  17  ****** ****** ****** ****** ****** ****** ****** ****** ****** ******
      ****** ****** ****** ****** ****** ****** ****** ****** ****** ******
      ****** ****** ****** ****** ****** ****** ****** ****** ****** ******
  18  ****** ****** ****** ****** ****** ****** ****** ****** ****** ******
      ****** ****** ****** ****** ****** ****** ****** ****** ****** ******
      ****** ****** ****** ****** ****** ****** ****** ****** ****** ******
  19  ****** ****** ****** ****** ****** ****** ****** ****** ****** ******
      ****** ****** ****** ****** ****** ****** ****** ****** ****** ******
      ****** ****** ****** ****** ****** ****** ****** ****** ****** ******
  20  ****** ****** ****** ****** ****** ****** ****** ****** ****** ******
      ****** ****** ****** ****** ****** ****** ****** ****** ****** ******
      ****** ****** ****** ****** ****** ****** ****** ****** ****** ******
  21  ****** ****** ****** ****** ****** ****** ****** ****** ****** ******
      ****** ****** ****** ****** ****** ****** ****** ****** ****** ******
      ****** ****** ****** ****** ****** ****** ****** ****** ****** ******
  22  ****** ****** ****** ****** ****** ****** ****** ****** ****** ******
      ****** ****** ****** ****** ****** ****** ****** ****** ****** ******
      ****** ****** ****** ****** ****** ****** ****** ****** ****** ******
  23  ****** ****** ****** ****** ****** ****** ****** ****** ****** ******
      ****** ****** ****** ****** ****** ****** ****** ****** ****** ******
      ****** ****** ****** ****** ****** ****** ****** ****** ****** ******
  24  ****** ****** ****** ****** ****** ****** ****** ****** ****** ******
      ****** ****** ****** ****** ****** ****** ****** ****** ****** ******
      ****** ****** ****** ****** ****** ****** ****** ****** ****** ******
  25  ****** ****** ****** ****** ****** ****** ****** ****** ****** ******
      ****** ****** ****** ****** ****** ****** ****** ****** ****** ******
      ****** ****** ****** ****** ****** ****** ****** ****** ****** ******

 HEAD WILL BE SAVED ON UNIT   51 AT END OF TIME STEP    1, STRESS PERIOD    8
1
  VOLUMETRIC BUDGET FOR ENTIRE MODEL AT END OF TIME STEP    1, STRESS PERIOD   8
  ------------------------------------------------------------------------------

     CUMULATIVE VOLUMES      L**3       RATES FOR THIS TIME STEP      L**3/T
     ------------------                 ------------------------

           IN:                                      IN:
           ---                                      ---
             STORAGE =    32955212.6468               STORAGE =        1309.1045
       CONSTANT HEAD =    18900730.5047         CONSTANT HEAD =       32437.0237
               WELLS =           0.0000                 WELLS =           0.0000
            RECHARGE =    17608800.0000              RECHARGE =       27600.0000
      STREAM LEAKAGE =     7313762.1887        STREAM LEAKAGE =       12763.3422

            TOTAL IN =    76778505.3401              TOTAL IN =       74109.4704

          OUT:                                     OUT:
          ----                                     ----
             STORAGE =      965329.5825               STORAGE =        1552.6451
       CONSTANT HEAD =           0.0000         CONSTANT HEAD =           0.0000
               WELLS =    27837147.8400                 WELLS =       38133.0792
            RECHARGE =           0.0000              RECHARGE =           0.0000
      STREAM LEAKAGE =    47976029.7011        STREAM LEAKAGE =       34423.7375

           TOTAL OUT =    76778507.1236             TOTAL OUT =       74109.4618

            IN - OUT =          -1.7835              IN - OUT =       8.5958E-03

 PERCENT DISCREPANCY =          -0.00     PERCENT DISCREPANCY =           0.00






         TIME SUMMARY AT END OF TIME STEP    1 IN STRESS PERIOD    8
                    SECONDS     MINUTES      HOURS       DAYS        YEARS
                    -----------------------------------------------------------
   TIME STEP LENGTH 7.86240E+06 1.31040E+05  2184.0      91.000     0.24914    
 STRESS PERIOD TIME 7.86240E+06 1.31040E+05  2184.0      91.000     0.24914    
         TOTAL TIME 6.30720E+07 1.05120E+06  17520.      730.00      1.9986    
1
1
                            STRESS PERIOD NO.    9, LENGTH =   92.00000    
                            -----------------------------------------------

                              NUMBER OF TIME STEPS =     1

                               MULTIPLIER FOR DELT =     1.500

                            INITIAL TIME STEP SIZE =   92.00000    

 WELL NO.  LAYER   ROW   COL   STRESS RATE         
 --------------------------------------------------
      1      1     14      6       0.000    
      2      1      3      9       0.000    
      3      1     20     10       0.000    
      4      1     14     20       0.000    
      5      1     15     19     -0.1065E+05
      6      1     15     28      -8067.    
      7      1     19     14      -9238.    
      8      1      9     25     -0.1018E+05

      8 WELLS

                 RECHARGE =  5.000000E-04

 REUSING STREAM SEGMENT DATA FROM LAST STRESS PERIOD
 
 SOLVING FOR HEAD 


     6 CALLS TO PCG ROUTINE FOR TIME STEP   1 IN STRESS PERIOD    9
    23 TOTAL ITERATIONS

 OUTPUT CONTROL FOR STRESS PERIOD    9   TIME STEP    1
    SAVE BUDGET
    SAVE HEAD FOR ALL LAYERS
    PRINT HEAD FOR ALL LAYERS
 UBDSV2 SAVING "STREAMFLOW OUT  " ON UNIT  50 AT TIME STEP  1, STRESS PERIOD   9



 STREAM LISTING     PERIOD      9   STEP        1

 LAYER ROW COL. STREAM  RCH.  FLOW INTO     FLOW TO   FLOW OUT OF   OVRLND.     DIRECT     STREAM       STREAM     STREAM     STREAM   STREAMBED  STREAMBED
                SEG.NO.  NO.  STRM. RCH.    AQUIFER    STRM. RCH.    RUNOFF     PRECIP       ET          HEAD       DEPTH      WIDTH   CONDCTNC.   GRADIENT

   1   13    1     1     1    1.0000E+05 -1.6394E+03   1.0164E+05  0.000E+00  0.000E+00  0.000E+00  4.84067E+01  1.454E-01  2.000E+01  2.000E+04 -8.197E-02
   1   13    2     1     2    1.0164E+05 -2.5879E+03   1.0423E+05  0.000E+00  0.000E+00  0.000E+00  4.79313E+01  1.472E-01  2.000E+01  2.000E+04 -1.294E-01
   1   14    3     1     3    1.0423E+05 -3.9513E+02   1.0462E+05  0.000E+00  0.000E+00  0.000E+00  4.74553E+01  1.485E-01  2.000E+01  2.000E+04 -1.976E-02
   1   15    4     1     4    1.0462E+05 -3.5421E+02   1.0498E+05  0.000E+00  0.000E+00  0.000E+00  4.69783E+01  1.488E-01  2.000E+01  2.000E+04 -1.771E-02
   1   16    5     1     5    1.0498E+05 -1.2169E+03   1.0619E+05  0.000E+00  0.000E+00  0.000E+00  4.65017E+01  1.494E-01  2.000E+01  2.000E+04 -6.085E-02
   1   16    6     1     6    1.0619E+05 -7.6029E+02   1.0695E+05  0.000E+00  0.000E+00  0.000E+00  4.60253E+01  1.503E-01  2.000E+01  2.000E+04 -3.801E-02
   1   16    7     1     7    1.0695E+05 -7.1036E+02   1.0766E+05  0.000E+00  0.000E+00  0.000E+00  4.55486E+01  1.509E-01  2.000E+01  2.000E+04 -3.552E-02
   1   16    8     1     8    1.0766E+05 -6.4712E+02   1.0831E+05  0.000E+00  0.000E+00  0.000E+00  4.50719E+01  1.515E-01  2.000E+01  2.000E+04 -3.236E-02
   1   16    9     1     9    1.0831E+05 -5.4941E+02   1.0886E+05  0.000E+00  0.000E+00  0.000E+00  4.45952E+01  1.520E-01  2.000E+01  2.000E+04 -2.747E-02
   1   16   10     1    10    1.0886E+05 -4.0144E+02   1.0926E+05  0.000E+00  0.000E+00  0.000E+00  4.41183E+01  1.524E-01  2.000E+01  2.000E+04 -2.007E-02
   1   16   11     1    11    1.0926E+05 -1.7669E+02   1.0944E+05  0.000E+00  0.000E+00  0.000E+00  4.36413E+01  1.526E-01  2.000E+01  2.000E+04 -8.835E-03
   1   16   12     1    12    1.0944E+05  1.9054E+02   1.0925E+05  0.000E+00  0.000E+00  0.000E+00  4.31640E+01  1.526E-01  2.000E+01  2.000E+04  9.527E-03
   1   15   13     1    13    1.0925E+05 -1.3649E+02   1.0938E+05  0.000E+00  0.000E+00  0.000E+00  4.26867E+01  1.526E-01  2.000E+01  2.000E+04 -6.824E-03
   1   14   14     1    14    1.0938E+05 -6.3378E+02   1.1002E+05  0.000E+00  0.000E+00  0.000E+00  4.22097E+01  1.529E-01  2.000E+01  2.000E+04 -3.169E-02
   1   13   15     1    15    1.1002E+05 -1.1264E+03   1.1115E+05  0.000E+00  0.000E+00  0.000E+00  4.17332E+01  1.537E-01  2.000E+01  2.000E+04 -5.632E-02
   1   12   16     1    16    1.1115E+05 -2.2214E+03   1.1337E+05  0.000E+00  0.000E+00  0.000E+00  4.12573E+01  1.550E-01  2.000E+01  2.000E+04 -1.111E-01
   1   12   17     1    17    1.1337E+05 -1.0226E+03   1.1439E+05  0.000E+00  0.000E+00  0.000E+00  4.07814E+01  1.564E-01  2.000E+01  2.000E+04 -5.113E-02
   1   12   18     1    18    1.1439E+05 -7.3064E+02   1.1512E+05  0.000E+00  0.000E+00  0.000E+00  4.03048E+01  1.571E-01  2.000E+01  2.000E+04 -3.653E-02
   1   12   19     1    19    1.1512E+05 -1.1324E+03   1.1625E+05  0.000E+00  0.000E+00  0.000E+00  3.98283E+01  1.579E-01  2.000E+01  2.000E+04 -5.662E-02
   1   13   20     1    20    1.1625E+05  5.8887E+02   1.1566E+05  0.000E+00  0.000E+00  0.000E+00  3.93513E+01  1.581E-01  2.000E+01  2.000E+04  2.944E-02
   1   14   21     1    21    1.1566E+05  1.1568E+03   1.1451E+05  0.000E+00  0.000E+00  0.000E+00  3.88733E+01  1.574E-01  2.000E+01  2.000E+04  5.784E-02
   1   14   22     1    22    1.1451E+05  5.2718E+03   1.0923E+05  0.000E+00  0.000E+00  0.000E+00  3.83934E+01  1.547E-01  2.000E+01  2.000E+04  2.636E-01
   1    9   30     2     1    5.0000E+04  1.0964E+02   4.9890E+04  0.000E+00  0.000E+00  0.000E+00  4.02408E+01  1.158E-01  2.000E+01  2.000E+04  5.482E-03
   1    9   29     2     2    4.9890E+04 -1.7389E+02   5.0064E+04  0.000E+00  0.000E+00  0.000E+00  3.99908E+01  1.158E-01  2.000E+01  2.000E+04 -8.694E-03
   1    9   28     2     3    5.0064E+04 -3.4969E+02   5.0414E+04  0.000E+00  0.000E+00  0.000E+00  3.97412E+01  1.162E-01  2.000E+01  2.000E+04 -1.748E-02
   1    9   27     2     4    5.0414E+04 -1.1060E+02   5.0525E+04  0.000E+00  0.000E+00  0.000E+00  3.94915E+01  1.165E-01  2.000E+01  2.000E+04 -5.530E-03
   1   10   26     2     5    5.0525E+04  1.6328E+03   4.8892E+04  0.000E+00  0.000E+00  0.000E+00  3.92405E+01  1.155E-01  2.000E+01  2.000E+04  8.164E-02
   1   11   25     2     6    4.8892E+04  8.3170E+02   4.8060E+04  0.000E+00  0.000E+00  0.000E+00  3.89887E+01  1.137E-01  2.000E+01  2.000E+04  4.158E-02
   1   12   24     2     7    4.8060E+04 -5.5187E+02   4.8612E+04  0.000E+00  0.000E+00  0.000E+00  3.87385E+01  1.135E-01  2.000E+01  2.000E+04 -2.759E-02
   1   13   23     2     8    4.8612E+04 -1.4174E+02   4.8754E+04  0.000E+00  0.000E+00  0.000E+00  3.84890E+01  1.140E-01  2.000E+01  2.000E+04 -7.087E-03
   1   14   22     2     9    4.8754E+04  2.1566E+03   4.6597E+04  0.000E+00  0.000E+00  0.000E+00  3.82376E+01  1.126E-01  2.000E+01  2.000E+04  1.078E-01
   1   14   22     3     1    1.5583E+05 -8.3018E+03   1.6413E+05  0.000E+00  0.000E+00  0.000E+00  3.77147E+01  1.591E-01  2.000E+01  2.000E+04 -4.151E-01
   1   15   23     3     2    1.6413E+05 -2.2520E+02   1.6436E+05  0.000E+00  0.000E+00  0.000E+00  3.68283E+01  1.617E-01  2.000E+01  2.000E+04 -1.126E-02
   1   15   24     3     3    1.6436E+05 -1.7490E+02   1.6453E+05  0.000E+00  0.000E+00  0.000E+00  3.59396E+01  1.618E-01  2.000E+01  2.000E+04 -8.745E-03
   1   15   25     3     4    1.6453E+05 -1.6850E+02   1.6470E+05  0.000E+00  0.000E+00  0.000E+00  3.50508E+01  1.619E-01  2.000E+01  2.000E+04 -8.425E-03
   1   15   26     3     5    1.6470E+05  7.2069E+01   1.6463E+05  0.000E+00  0.000E+00  0.000E+00  3.41619E+01  1.619E-01  2.000E+01  2.000E+04  3.603E-03
   1   16   27     3     6    1.6463E+05  4.1427E+02   1.6422E+05  0.000E+00  0.000E+00  0.000E+00  3.32729E+01  1.618E-01  2.000E+01  2.000E+04  2.071E-02
   1   17   28     3     7    1.6422E+05  1.6804E+03   1.6254E+05  0.000E+00  0.000E+00  0.000E+00  3.23834E+01  1.611E-01  2.000E+01  2.000E+04  8.402E-02
   1   18   29     3     8    1.6254E+05 -1.7280E+03   1.6426E+05  0.000E+00  0.000E+00  0.000E+00  3.14945E+01  1.612E-01  2.000E+01  2.000E+04 -8.640E-02
   1   18   30     3     9    1.6426E+05 -2.0712E+03   1.6633E+05  0.000E+00  0.000E+00  0.000E+00  3.06067E+01  1.623E-01  2.000E+01  2.000E+04 -1.036E-01



1
              HEAD IN LAYER   1 AT END OF TIME STEP   1 IN STRESS PERIOD    9
  ---------------------------------------------------------------------------

          1      2      3      4      5      6      7      8      9     10
         11     12     13     14     15     16     17     18     19     20
         21     22     23     24     25     26     27     28     29     30
 .........................................................................
   1  ****** ****** ****** ****** ****** ****** ****** ****** ****** ******
      ****** ****** ****** ****** ****** ****** ****** ****** ****** ******
      ****** ****** ****** ****** ****** ****** ****** ****** ****** ******
   2  ****** ****** ****** ****** ****** ****** ****** ****** ****** ******
      ****** ****** ****** ****** ****** ****** ****** ****** ****** ******
      ****** ****** ****** ****** ****** ****** ****** ****** ****** ******
   3  ****** ****** ****** ****** ****** ****** ****** ****** ****** ******
      ****** ****** ****** ****** ****** ****** ****** ****** ****** ******
      ****** ****** ****** ****** ****** ****** ****** ****** ****** ******
   4  ****** ****** ****** ****** ****** ****** ****** ****** ****** ******
      ****** ****** ****** ****** ****** ****** ****** ****** ****** ******
      ****** ****** ****** ****** ****** ****** ****** ****** ****** ******
   5  ****** ****** ****** ****** ****** ****** ****** ****** ****** ******
      ****** ****** ****** ****** ****** ****** ****** ****** ****** ******
      ****** ****** ****** ****** ****** ****** ****** ****** ****** ******
   6  ****** ****** ****** ****** ****** ****** ****** ****** ****** ******
      ****** ****** ****** ****** ****** ****** ****** ****** ****** ******
      ****** ****** ****** ****** ****** ****** ****** ****** ****** ******
   7  ****** ****** ****** ****** ****** ****** ****** ****** ****** ******
      ****** ****** ****** ****** ****** ****** ****** ****** ****** ******
      ****** ****** ****** ****** ****** ****** ****** ****** ****** ******
   8  ****** ****** ****** ****** ****** ****** ****** ****** ****** ******
      ****** ****** ****** ****** ****** ****** ****** ****** ****** ******
      ****** ****** ****** ****** ****** ****** ****** ****** ****** ******
   9  ****** ****** ****** ****** ****** ****** ****** ****** ****** ******
      ****** ****** ****** ****** ****** ****** ****** ****** ****** ******
      ****** ****** ****** ****** ****** ****** ****** ****** ****** ******
  10  ****** ****** ****** ****** ****** ****** ****** ****** ****** ******
      ****** ****** ****** ****** ****** ****** ****** ****** ****** ******
      ****** ****** ****** ****** ****** ****** ****** ****** ****** ******
  11  ****** ****** ****** ****** ****** ****** ****** ****** ****** ******
      ****** ****** ****** ****** ****** ****** ****** ****** ****** ******
      ****** ****** ****** ****** ****** ****** ****** ****** ****** ******
  12  ****** ****** ****** ****** ****** ****** ****** ****** ****** ******
      ****** ****** ****** ****** ****** ****** ****** ****** ****** ******
      ****** ****** ****** ****** ****** ****** ****** ****** ****** ******
  13  ****** ****** ****** ****** ****** ****** ****** ****** ****** ******
      ****** ****** ****** ****** ****** ****** ****** ****** ****** ******
      ****** ****** ****** ****** ****** ****** ****** ****** ****** ******
  14  ****** ****** ****** ****** ****** ****** ****** ****** ****** ******
      ****** ****** ****** ****** ****** ****** ****** ****** ****** ******
      ****** ****** ****** ****** ****** ****** ****** ****** ****** ******
  15  ****** ****** ****** ****** ****** ****** ****** ****** ****** ******
      ****** ****** ****** ****** ****** ****** ****** ****** ****** ******
      ****** ****** ****** ****** ****** ****** ****** ****** ****** ******
  16  ****** ****** ****** ****** ****** ****** ****** ****** ****** ******
      ****** ****** ****** ****** ****** ****** ****** ****** ****** ******
      ****** ****** ****** ****** ****** ****** ****** ****** ****** ******
  17  ****** ****** ****** ****** ****** ****** ****** ****** ****** ******
      ****** ****** ****** ****** ****** ****** ****** ****** ****** ******
      ****** ****** ****** ****** ****** ****** ****** ****** ****** ******
  18  ****** ****** ****** ****** ****** ****** ****** ****** ****** ******
      ****** ****** ****** ****** ****** ****** ****** ****** ****** ******
      ****** ****** ****** ****** ****** ****** ****** ****** ****** ******
  19  ****** ****** ****** ****** ****** ****** ****** ****** ****** ******
      ****** ****** ****** ****** ****** ****** ****** ****** ****** ******
      ****** ****** ****** ****** ****** ****** ****** ****** ****** ******
  20  ****** ****** ****** ****** ****** ****** ****** ****** ****** ******
      ****** ****** ****** ****** ****** ****** ****** ****** ****** ******
      ****** ****** ****** ****** ****** ****** ****** ****** ****** ******
  21  ****** ****** ****** ****** ****** ****** ****** ****** ****** ******
      ****** ****** ****** ****** ****** ****** ****** ****** ****** ******
      ****** ****** ****** ****** ****** ****** ****** ****** ****** ******
  22  ****** ****** ****** ****** ****** ****** ****** ****** ****** ******
      ****** ****** ****** ****** ****** ****** ****** ****** ****** ******
      ****** ****** ****** ****** ****** ****** ****** ****** ****** ******
  23  ****** ****** ****** ****** ****** ****** ****** ****** ****** ******
      ****** ****** ****** ****** ****** ****** ****** ****** ****** ******
      ****** ****** ****** ****** ****** ****** ****** ****** ****** ******
  24  ****** ****** ****** ****** ****** ****** ****** ****** ****** ******
      ****** ****** ****** ****** ****** ****** ****** ****** ****** ******
      ****** ****** ****** ****** ****** ****** ****** ****** ****** ******
  25  ****** ****** ****** ****** ****** ****** ****** ****** ****** ******
      ****** ****** ****** ****** ****** ****** ****** ****** ****** ******
      ****** ****** ****** ****** ****** ****** ****** ****** ****** ******

 HEAD WILL BE SAVED ON UNIT   51 AT END OF TIME STEP    1, STRESS PERIOD    9
1
  VOLUMETRIC BUDGET FOR ENTIRE MODEL AT END OF TIME STEP    1, STRESS PERIOD   9
  ------------------------------------------------------------------------------

     CUMULATIVE VOLUMES      L**3       RATES FOR THIS TIME STEP      L**3/T
     ------------------                 ------------------------

           IN:                                      IN:
           ---                                      ---
             STORAGE =    33606303.4087               STORAGE =        7077.0735
       CONSTANT HEAD =    21991067.5019         CONSTANT HEAD =       33590.6195
               WELLS =           0.0000                 WELLS =           0.0000
            RECHARGE =    18878400.0000              RECHARGE =       13800.0000
      STREAM LEAKAGE =     8611459.4551        STREAM LEAKAGE =       14105.4051

            TOTAL IN =    83087230.3658              TOTAL IN =       68573.0981

          OUT:                                     OUT:
          ----                                     ----
             STORAGE =      965329.5825               STORAGE =           0.0000
       CONSTANT HEAD =           0.0000         CONSTANT HEAD =           0.0000
               WELLS =    31345391.1294                 WELLS =       38133.0792
            RECHARGE =           0.0000              RECHARGE =           0.0000
      STREAM LEAKAGE =    50776511.5074        STREAM LEAKAGE =       30440.0196

           TOTAL OUT =    83087232.2193             TOTAL OUT =       68573.0989

            IN - OUT =          -1.8536              IN - OUT =      -7.6190E-04

 PERCENT DISCREPANCY =          -0.00     PERCENT DISCREPANCY =          -0.00






         TIME SUMMARY AT END OF TIME STEP    1 IN STRESS PERIOD    9
                    SECONDS     MINUTES      HOURS       DAYS        YEARS
                    -----------------------------------------------------------
   TIME STEP LENGTH 7.94880E+06 1.32480E+05  2208.0      92.000     0.25188    
 STRESS PERIOD TIME 7.94880E+06 1.32480E+05  2208.0      92.000     0.25188    
         TOTAL TIME 7.10208E+07 1.18368E+06  19728.      822.00      2.2505    
1
1
                            STRESS PERIOD NO.   10, LENGTH =   91.00000    
                            -----------------------------------------------

                              NUMBER OF TIME STEPS =     1

                               MULTIPLIER FOR DELT =     1.500

                            INITIAL TIME STEP SIZE =   91.00000    

 WELL NO.  LAYER   ROW   COL   STRESS RATE         
 --------------------------------------------------
      1      1     14      6       0.000    
      2      1      3      9       0.000    
      3      1     20     10       0.000    
      4      1     14     20       0.000    
      5      1     15     19     -0.1065E+05
      6      1     15     28      -8067.    
      7      1     19     14      -9238.    
      8      1      9     25     -0.1018E+05

      8 WELLS

                 RECHARGE =  2.000000E-03

 REUSING STREAM SEGMENT DATA FROM LAST STRESS PERIOD
 
 SOLVING FOR HEAD 


     7 CALLS TO PCG ROUTINE FOR TIME STEP   1 IN STRESS PERIOD   10
    26 TOTAL ITERATIONS

 OUTPUT CONTROL FOR STRESS PERIOD   10   TIME STEP    1
    SAVE BUDGET
    SAVE HEAD FOR ALL LAYERS
    PRINT HEAD FOR ALL LAYERS
 UBDSV2 SAVING "STREAMFLOW OUT  " ON UNIT  50 AT TIME STEP  1, STRESS PERIOD  10



 STREAM LISTING     PERIOD     10   STEP        1

 LAYER ROW COL. STREAM  RCH.  FLOW INTO     FLOW TO   FLOW OUT OF   OVRLND.     DIRECT     STREAM       STREAM     STREAM     STREAM   STREAMBED  STREAMBED
                SEG.NO.  NO.  STRM. RCH.    AQUIFER    STRM. RCH.    RUNOFF     PRECIP       ET          HEAD       DEPTH      WIDTH   CONDCTNC.   GRADIENT

   1   13    1     1     1    1.0000E+05 -2.0949E+03   1.0209E+05  0.000E+00  0.000E+00  0.000E+00  4.84069E+01  1.456E-01  2.000E+01  2.000E+04 -1.047E-01
   1   13    2     1     2    1.0209E+05 -3.0929E+03   1.0519E+05  0.000E+00  0.000E+00  0.000E+00  4.79319E+01  1.478E-01  2.000E+01  2.000E+04 -1.546E-01
   1   14    3     1     3    1.0519E+05 -5.8215E+02   1.0577E+05  0.000E+00  0.000E+00  0.000E+00  4.74562E+01  1.494E-01  2.000E+01  2.000E+04 -2.911E-02
   1   15    4     1     4    1.0577E+05 -5.5400E+02   1.0632E+05  0.000E+00  0.000E+00  0.000E+00  4.69794E+01  1.498E-01  2.000E+01  2.000E+04 -2.770E-02
   1   16    5     1     5    1.0632E+05 -1.8357E+03   1.0816E+05  0.000E+00  0.000E+00  0.000E+00  4.65031E+01  1.508E-01  2.000E+01  2.000E+04 -9.179E-02
   1   16    6     1     6    1.0816E+05 -1.1227E+03   1.0928E+05  0.000E+00  0.000E+00  0.000E+00  4.60271E+01  1.521E-01  2.000E+01  2.000E+04 -5.613E-02
   1   16    7     1     7    1.0928E+05 -1.0550E+03   1.1034E+05  0.000E+00  0.000E+00  0.000E+00  4.55507E+01  1.530E-01  2.000E+01  2.000E+04 -5.275E-02
   1   16    8     1     8    1.1034E+05 -9.8628E+02   1.1132E+05  0.000E+00  0.000E+00  0.000E+00  4.50743E+01  1.539E-01  2.000E+01  2.000E+04 -4.931E-02
   1   16    9     1     9    1.1132E+05 -8.8699E+02   1.1221E+05  0.000E+00  0.000E+00  0.000E+00  4.45978E+01  1.546E-01  2.000E+01  2.000E+04 -4.435E-02
   1   16   10     1    10    1.1221E+05 -7.3908E+02   1.1295E+05  0.000E+00  0.000E+00  0.000E+00  4.41212E+01  1.553E-01  2.000E+01  2.000E+04 -3.695E-02
   1   16   11     1    11    1.1295E+05 -5.1765E+02   1.1347E+05  0.000E+00  0.000E+00  0.000E+00  4.36445E+01  1.558E-01  2.000E+01  2.000E+04 -2.588E-02
   1   16   12     1    12    1.1347E+05 -3.7873E+02   1.1385E+05  0.000E+00  0.000E+00  0.000E+00  4.31676E+01  1.562E-01  2.000E+01  2.000E+04 -1.894E-02
   1   15   13     1    13    1.1385E+05 -7.2368E+02   1.1457E+05  0.000E+00  0.000E+00  0.000E+00  4.26907E+01  1.567E-01  2.000E+01  2.000E+04 -3.618E-02
   1   14   14     1    14    1.1457E+05 -1.2288E+03   1.1580E+05  0.000E+00  0.000E+00  0.000E+00  4.22143E+01  1.575E-01  2.000E+01  2.000E+04 -6.144E-02
   1   13   15     1    15    1.1580E+05 -1.7119E+03   1.1751E+05  0.000E+00  0.000E+00  0.000E+00  4.17382E+01  1.587E-01  2.000E+01  2.000E+04 -8.560E-02
   1   12   16     1    16    1.1751E+05 -2.7864E+03   1.2030E+05  0.000E+00  0.000E+00  0.000E+00  4.12628E+01  1.605E-01  2.000E+01  2.000E+04 -1.393E-01
   1   12   17     1    17    1.2030E+05 -1.4496E+03   1.2175E+05  0.000E+00  0.000E+00  0.000E+00  4.07872E+01  1.622E-01  2.000E+01  2.000E+04 -7.248E-02
   1   12   18     1    18    1.2175E+05 -1.1532E+03   1.2290E+05  0.000E+00  0.000E+00  0.000E+00  4.03110E+01  1.632E-01  2.000E+01  2.000E+04 -5.766E-02
   1   12   19     1    19    1.2290E+05 -1.6524E+03   1.2455E+05  0.000E+00  0.000E+00  0.000E+00  3.98348E+01  1.644E-01  2.000E+01  2.000E+04 -8.262E-02
   1   13   20     1    20    1.2455E+05  6.7212E+01   1.2448E+05  0.000E+00  0.000E+00  0.000E+00  3.93582E+01  1.650E-01  2.000E+01  2.000E+04  3.361E-03
   1   14   21     1    21    1.2448E+05  6.3205E+02   1.2385E+05  0.000E+00  0.000E+00  0.000E+00  3.88806E+01  1.647E-01  2.000E+01  2.000E+04  3.160E-02
   1   14   22     1    22    1.2385E+05  5.1439E+03   1.1871E+05  0.000E+00  0.000E+00  0.000E+00  3.84010E+01  1.624E-01  2.000E+01  2.000E+04  2.572E-01
   1    9   30     2     1    5.0000E+04 -3.0493E+02   5.0305E+04  0.000E+00  0.000E+00  0.000E+00  4.02411E+01  1.161E-01  2.000E+01  2.000E+04 -1.525E-02
   1    9   29     2     2    5.0305E+04 -5.8619E+02   5.0891E+04  0.000E+00  0.000E+00  0.000E+00  3.99917E+01  1.167E-01  2.000E+01  2.000E+04 -2.931E-02
   1    9   28     2     3    5.0891E+04 -7.6126E+02   5.1652E+04  0.000E+00  0.000E+00  0.000E+00  3.97426E+01  1.176E-01  2.000E+01  2.000E+04 -3.806E-02
   1    9   27     2     4    5.1652E+04 -6.6446E+02   5.2317E+04  0.000E+00  0.000E+00  0.000E+00  3.94936E+01  1.186E-01  2.000E+01  2.000E+04 -3.322E-02
   1   10   26     2     5    5.2317E+04  1.0791E+03   5.1238E+04  0.000E+00  0.000E+00  0.000E+00  3.92433E+01  1.183E-01  2.000E+01  2.000E+04  5.395E-02
   1   11   25     2     6    5.1238E+04  3.0259E+02   5.0935E+04  0.000E+00  0.000E+00  0.000E+00  3.89924E+01  1.174E-01  2.000E+01  2.000E+04  1.513E-02
   1   12   24     2     7    5.0935E+04 -1.0308E+03   5.1966E+04  0.000E+00  0.000E+00  0.000E+00  3.87429E+01  1.179E-01  2.000E+01  2.000E+04 -5.154E-02
   1   13   23     2     8    5.1966E+04 -2.9053E+02   5.2257E+04  0.000E+00  0.000E+00  0.000E+00  3.84938E+01  1.188E-01  2.000E+01  2.000E+04 -1.453E-02
   1   14   22     2     9    5.2257E+04  1.9755E+03   5.0281E+04  0.000E+00  0.000E+00  0.000E+00  3.82426E+01  1.176E-01  2.000E+01  2.000E+04  9.877E-02
   1   14   22     3     1    1.6899E+05 -8.4280E+03   1.7742E+05  0.000E+00  0.000E+00  0.000E+00  3.77224E+01  1.669E-01  2.000E+01  2.000E+04 -4.214E-01
   1   15   23     3     2    1.7742E+05 -3.8759E+02   1.7781E+05  0.000E+00  0.000E+00  0.000E+00  3.68361E+01  1.694E-01  2.000E+01  2.000E+04 -1.938E-02
   1   15   24     3     3    1.7781E+05 -3.1200E+02   1.7812E+05  0.000E+00  0.000E+00  0.000E+00  3.59474E+01  1.696E-01  2.000E+01  2.000E+04 -1.560E-02
   1   15   25     3     4    1.7812E+05 -3.0902E+02   1.7843E+05  0.000E+00  0.000E+00  0.000E+00  3.50587E+01  1.698E-01  2.000E+01  2.000E+04 -1.545E-02
   1   15   26     3     5    1.7843E+05 -9.0124E+01   1.7852E+05  0.000E+00  0.000E+00  0.000E+00  3.41699E+01  1.699E-01  2.000E+01  2.000E+04 -4.506E-03
   1   16   27     3     6    1.7852E+05  2.2849E+02   1.7829E+05  0.000E+00  0.000E+00  0.000E+00  3.32810E+01  1.699E-01  2.000E+01  2.000E+04  1.142E-02
   1   17   28     3     7    1.7829E+05  1.1600E+03   1.7713E+05  0.000E+00  0.000E+00  0.000E+00  3.23917E+01  1.695E-01  2.000E+01  2.000E+04  5.800E-02
   1   18   29     3     8    1.7713E+05 -2.2788E+03   1.7941E+05  0.000E+00  0.000E+00  0.000E+00  3.15031E+01  1.698E-01  2.000E+01  2.000E+04 -1.139E-01
   1   18   30     3     9    1.7941E+05 -2.4961E+03   1.8190E+05  0.000E+00  0.000E+00  0.000E+00  3.06156E+01  1.712E-01  2.000E+01  2.000E+04 -1.248E-01



1
              HEAD IN LAYER   1 AT END OF TIME STEP   1 IN STRESS PERIOD   10
  ---------------------------------------------------------------------------

          1      2      3      4      5      6      7      8      9     10
         11     12     13     14     15     16     17     18     19     20
         21     22     23     24     25     26     27     28     29     30
 .........................................................................
   1  ****** ****** ****** ****** ****** ****** ****** ****** ****** ******
      ****** ****** ****** ****** ****** ****** ****** ****** ****** ******
      ****** ****** ****** ****** ****** ****** ****** ****** ****** ******
   2  ****** ****** ****** ****** ****** ****** ****** ****** ****** ******
      ****** ****** ****** ****** ****** ****** ****** ****** ****** ******
      ****** ****** ****** ****** ****** ****** ****** ****** ****** ******
   3  ****** ****** ****** ****** ****** ****** ****** ****** ****** ******
      ****** ****** ****** ****** ****** ****** ****** ****** ****** ******
      ****** ****** ****** ****** ****** ****** ****** ****** ****** ******
   4  ****** ****** ****** ****** ****** ****** ****** ****** ****** ******
      ****** ****** ****** ****** ****** ****** ****** ****** ****** ******
      ****** ****** ****** ****** ****** ****** ****** ****** ****** ******
   5  ****** ****** ****** ****** ****** ****** ****** ****** ****** ******
      ****** ****** ****** ****** ****** ****** ****** ****** ****** ******
      ****** ****** ****** ****** ****** ****** ****** ****** ****** ******
   6  ****** ****** ****** ****** ****** ****** ****** ****** ****** ******
      ****** ****** ****** ****** ****** ****** ****** ****** ****** ******
      ****** ****** ****** ****** ****** ****** ****** ****** ****** ******
   7  ****** ****** ****** ****** ****** ****** ****** ****** ****** ******
      ****** ****** ****** ****** ****** ****** ****** ****** ****** ******
      ****** ****** ****** ****** ****** ****** ****** ****** ****** ******
   8  ****** ****** ****** ****** ****** ****** ****** ****** ****** ******
      ****** ****** ****** ****** ****** ****** ****** ****** ****** ******
      ****** ****** ****** ****** ****** ****** ****** ****** ****** ******
   9  ****** ****** ****** ****** ****** ****** ****** ****** ****** ******
      ****** ****** ****** ****** ****** ****** ****** ****** ****** ******
      ****** ****** ****** ****** ****** ****** ****** ****** ****** ******
  10  ****** ****** ****** ****** ****** ****** ****** ****** ****** ******
      ****** ****** ****** ****** ****** ****** ****** ****** ****** ******
      ****** ****** ****** ****** ****** ****** ****** ****** ****** ******
  11  ****** ****** ****** ****** ****** ****** ****** ****** ****** ******
      ****** ****** ****** ****** ****** ****** ****** ****** ****** ******
      ****** ****** ****** ****** ****** ****** ****** ****** ****** ******
  12  ****** ****** ****** ****** ****** ****** ****** ****** ****** ******
      ****** ****** ****** ****** ****** ****** ****** ****** ****** ******
      ****** ****** ****** ****** ****** ****** ****** ****** ****** ******
  13  ****** ****** ****** ****** ****** ****** ****** ****** ****** ******
      ****** ****** ****** ****** ****** ****** ****** ****** ****** ******
      ****** ****** ****** ****** ****** ****** ****** ****** ****** ******
  14  ****** ****** ****** ****** ****** ****** ****** ****** ****** ******
      ****** ****** ****** ****** ****** ****** ****** ****** ****** ******
      ****** ****** ****** ****** ****** ****** ****** ****** ****** ******
  15  ****** ****** ****** ****** ****** ****** ****** ****** ****** ******
      ****** ****** ****** ****** ****** ****** ****** ****** ****** ******
      ****** ****** ****** ****** ****** ****** ****** ****** ****** ******
  16  ****** ****** ****** ****** ****** ****** ****** ****** ****** ******
      ****** ****** ****** ****** ****** ****** ****** ****** ****** ******
      ****** ****** ****** ****** ****** ****** ****** ****** ****** ******
  17  ****** ****** ****** ****** ****** ****** ****** ****** ****** ******
      ****** ****** ****** ****** ****** ****** ****** ****** ****** ******
      ****** ****** ****** ****** ****** ****** ****** ****** ****** ******
  18  ****** ****** ****** ****** ****** ****** ****** ****** ****** ******
      ****** ****** ****** ****** ****** ****** ****** ****** ****** ******
      ****** ****** ****** ****** ****** ****** ****** ****** ****** ******
  19  ****** ****** ****** ****** ****** ****** ****** ****** ****** ******
      ****** ****** ****** ****** ****** ****** ****** ****** ****** ******
      ****** ****** ****** ****** ****** ****** ****** ****** ****** ******
  20  ****** ****** ****** ****** ****** ****** ****** ****** ****** ******
      ****** ****** ****** ****** ****** ****** ****** ****** ****** ******
      ****** ****** ****** ****** ****** ****** ****** ****** ****** ******
  21  ****** ****** ****** ****** ****** ****** ****** ****** ****** ******
      ****** ****** ****** ****** ****** ****** ****** ****** ****** ******
      ****** ****** ****** ****** ****** ****** ****** ****** ****** ******
  22  ****** ****** ****** ****** ****** ****** ****** ****** ****** ******
      ****** ****** ****** ****** ****** ****** ****** ****** ****** ******
      ****** ****** ****** ****** ****** ****** ****** ****** ****** ******
  23  ****** ****** ****** ****** ****** ****** ****** ****** ****** ******
      ****** ****** ****** ****** ****** ****** ****** ****** ****** ******
      ****** ****** ****** ****** ****** ****** ****** ****** ****** ******
  24  ****** ****** ****** ****** ****** ****** ****** ****** ****** ******
      ****** ****** ****** ****** ****** ****** ****** ****** ****** ******
      ****** ****** ****** ****** ****** ****** ****** ****** ****** ******
  25  ****** ****** ****** ****** ****** ****** ****** ****** ****** ******
      ****** ****** ****** ****** ****** ****** ****** ****** ****** ******
      ****** ****** ****** ****** ****** ****** ****** ****** ****** ******

 HEAD WILL BE SAVED ON UNIT   51 AT END OF TIME STEP    1, STRESS PERIOD   10
1
  VOLUMETRIC BUDGET FOR ENTIRE MODEL AT END OF TIME STEP    1, STRESS PERIOD  10
  ------------------------------------------------------------------------------

     CUMULATIVE VOLUMES      L**3       RATES FOR THIS TIME STEP      L**3/T
     ------------------                 ------------------------

           IN:                                      IN:
           ---                                      ---
             STORAGE =    33606303.4087               STORAGE =           0.0000
       CONSTANT HEAD =    24778142.4897         CONSTANT HEAD =       30627.1977
               WELLS =           0.0000                 WELLS =           0.0000
            RECHARGE =    23901600.0000              RECHARGE =       55200.0000
      STREAM LEAKAGE =     9575045.1182        STREAM LEAKAGE =       10588.8534

            TOTAL IN =    91861091.0166              TOTAL IN =       96416.0511

          OUT:                                     OUT:
          ----                                     ----
             STORAGE =     2402324.0606               STORAGE =       15791.1481
       CONSTANT HEAD =           0.0000         CONSTANT HEAD =           0.0000
               WELLS =    34815501.3396                 WELLS =       38133.0792
            RECHARGE =           0.0000              RECHARGE =           0.0000
      STREAM LEAKAGE =    54643267.1928        STREAM LEAKAGE =       42491.8207

           TOTAL OUT =    91861092.5930             TOTAL OUT =       96416.0481

            IN - OUT =          -1.5764              IN - OUT =       3.0455E-03

 PERCENT DISCREPANCY =          -0.00     PERCENT DISCREPANCY =           0.00






         TIME SUMMARY AT END OF TIME STEP    1 IN STRESS PERIOD   10
                    SECONDS     MINUTES      HOURS       DAYS        YEARS
                    -----------------------------------------------------------
   TIME STEP LENGTH 7.86240E+06 1.31040E+05  2184.0      91.000     0.24914    
 STRESS PERIOD TIME 7.86240E+06 1.31040E+05  2184.0      91.000     0.24914    
         TOTAL TIME 7.88832E+07 1.31472E+06  21912.      913.00      2.4997    
1
1
                            STRESS PERIOD NO.   11, LENGTH =   91.00000    
                            -----------------------------------------------

                              NUMBER OF TIME STEPS =     1

                               MULTIPLIER FOR DELT =     1.500

                            INITIAL TIME STEP SIZE =   91.00000    

 WELL NO.  LAYER   ROW   COL   STRESS RATE         
 --------------------------------------------------
      1      1     14      6       0.000    
      2      1      3      9       0.000    
      3      1     20     10       0.000    
      4      1     14     20       0.000    
      5      1     15     19     -0.1065E+05
      6      1     15     28      -8067.    
      7      1     19     14      -9238.    
      8      1      9     25     -0.1018E+05

      8 WELLS

                 RECHARGE =   0.00000    

 REUSING STREAM SEGMENT DATA FROM LAST STRESS PERIOD
 
 SOLVING FOR HEAD 


     7 CALLS TO PCG ROUTINE FOR TIME STEP   1 IN STRESS PERIOD   11
    26 TOTAL ITERATIONS

 OUTPUT CONTROL FOR STRESS PERIOD   11   TIME STEP    1
    SAVE BUDGET
    SAVE HEAD FOR ALL LAYERS
    PRINT HEAD FOR ALL LAYERS
 UBDSV2 SAVING "STREAMFLOW OUT  " ON UNIT  50 AT TIME STEP  1, STRESS PERIOD  11



 STREAM LISTING     PERIOD     11   STEP        1

 LAYER ROW COL. STREAM  RCH.  FLOW INTO     FLOW TO   FLOW OUT OF   OVRLND.     DIRECT     STREAM       STREAM     STREAM     STREAM   STREAMBED  STREAMBED
                SEG.NO.  NO.  STRM. RCH.    AQUIFER    STRM. RCH.    RUNOFF     PRECIP       ET          HEAD       DEPTH      WIDTH   CONDCTNC.   GRADIENT

   1   13    1     1     1    1.0000E+05 -1.5294E+03   1.0153E+05  0.000E+00  0.000E+00  0.000E+00  4.84067E+01  1.453E-01  2.000E+01  2.000E+04 -7.647E-02
   1   13    2     1     2    1.0153E+05 -2.4634E+03   1.0399E+05  0.000E+00  0.000E+00  0.000E+00  4.79311E+01  1.470E-01  2.000E+01  2.000E+04 -1.232E-01
   1   14    3     1     3    1.0399E+05 -3.5164E+02   1.0434E+05  0.000E+00  0.000E+00  0.000E+00  4.74551E+01  1.482E-01  2.000E+01  2.000E+04 -1.758E-02
   1   15    4     1     4    1.0434E+05 -3.1240E+02   1.0466E+05  0.000E+00  0.000E+00  0.000E+00  4.69781E+01  1.485E-01  2.000E+01  2.000E+04 -1.562E-02
   1   16    5     1     5    1.0466E+05 -1.1479E+03   1.0580E+05  0.000E+00  0.000E+00  0.000E+00  4.65014E+01  1.491E-01  2.000E+01  2.000E+04 -5.740E-02
   1   16    6     1     6    1.0580E+05 -7.0855E+02   1.0651E+05  0.000E+00  0.000E+00  0.000E+00  4.60249E+01  1.499E-01  2.000E+01  2.000E+04 -3.543E-02
   1   16    7     1     7    1.0651E+05 -6.5852E+02   1.0717E+05  0.000E+00  0.000E+00  0.000E+00  4.55482E+01  1.505E-01  2.000E+01  2.000E+04 -3.293E-02
   1   16    8     1     8    1.0717E+05 -5.9532E+02   1.0777E+05  0.000E+00  0.000E+00  0.000E+00  4.50715E+01  1.510E-01  2.000E+01  2.000E+04 -2.977E-02
   1   16    9     1     9    1.0777E+05 -4.9821E+02   1.0827E+05  0.000E+00  0.000E+00  0.000E+00  4.45947E+01  1.515E-01  2.000E+01  2.000E+04 -2.491E-02
   1   16   10     1    10    1.0827E+05 -3.5130E+02   1.0862E+05  0.000E+00  0.000E+00  0.000E+00  4.41178E+01  1.519E-01  2.000E+01  2.000E+04 -1.757E-02
   1   16   11     1    11    1.0862E+05 -1.2796E+02   1.0874E+05  0.000E+00  0.000E+00  0.000E+00  4.36407E+01  1.521E-01  2.000E+01  2.000E+04 -6.398E-03
   1   16   12     1    12    1.0874E+05  2.6688E+02   1.0848E+05  0.000E+00  0.000E+00  0.000E+00  4.31634E+01  1.520E-01  2.000E+01  2.000E+04  1.334E-02
   1   15   13     1    13    1.0848E+05 -3.5824E+01   1.0851E+05  0.000E+00  0.000E+00  0.000E+00  4.26860E+01  1.519E-01  2.000E+01  2.000E+04 -1.791E-03
   1   14   14     1    14    1.0851E+05 -5.2361E+02   1.0904E+05  0.000E+00  0.000E+00  0.000E+00  4.22090E+01  1.521E-01  2.000E+01  2.000E+04 -2.618E-02
   1   13   15     1    15    1.0904E+05 -1.0127E+03   1.1005E+05  0.000E+00  0.000E+00  0.000E+00  4.17323E+01  1.528E-01  2.000E+01  2.000E+04 -5.064E-02
   1   12   16     1    16    1.1005E+05 -2.1113E+03   1.1216E+05  0.000E+00  0.000E+00  0.000E+00  4.12564E+01  1.541E-01  2.000E+01  2.000E+04 -1.056E-01
   1   12   17     1    17    1.1216E+05 -9.4387E+02   1.1310E+05  0.000E+00  0.000E+00  0.000E+00  4.07804E+01  1.554E-01  2.000E+01  2.000E+04 -4.719E-02
   1   12   18     1    18    1.1310E+05 -6.5500E+02   1.1376E+05  0.000E+00  0.000E+00  0.000E+00  4.03037E+01  1.560E-01  2.000E+01  2.000E+04 -3.275E-02
   1   12   19     1    19    1.1376E+05 -1.0408E+03   1.1480E+05  0.000E+00  0.000E+00  0.000E+00  3.98272E+01  1.567E-01  2.000E+01  2.000E+04 -5.204E-02
   1   13   20     1    20    1.1480E+05  6.7921E+02   1.1412E+05  0.000E+00  0.000E+00  0.000E+00  3.93500E+01  1.569E-01  2.000E+01  2.000E+04  3.396E-02
   1   14   21     1    21    1.1412E+05  1.2291E+03   1.1289E+05  0.000E+00  0.000E+00  0.000E+00  3.88720E+01  1.561E-01  2.000E+01  2.000E+04  6.145E-02
   1   14   22     1    22    1.1289E+05  5.2918E+03   1.0760E+05  0.000E+00  0.000E+00  0.000E+00  3.83920E+01  1.534E-01  2.000E+01  2.000E+04  2.646E-01
   1    9   30     2     1    5.0000E+04  1.8288E+02   4.9817E+04  0.000E+00  0.000E+00  0.000E+00  4.02407E+01  1.157E-01  2.000E+01  2.000E+04  9.144E-03
   1    9   29     2     2    4.9817E+04 -1.0146E+02   4.9919E+04  0.000E+00  0.000E+00  0.000E+00  3.99907E+01  1.157E-01  2.000E+01  2.000E+04 -5.073E-03
   1    9   28     2     3    4.9919E+04 -2.7876E+02   5.0197E+04  0.000E+00  0.000E+00  0.000E+00  3.97409E+01  1.159E-01  2.000E+01  2.000E+04 -1.394E-02
   1    9   27     2     4    5.0197E+04 -2.5418E+01   5.0223E+04  0.000E+00  0.000E+00  0.000E+00  3.94912E+01  1.162E-01  2.000E+01  2.000E+04 -1.271E-03
   1   10   26     2     5    5.0223E+04  1.7326E+03   4.8490E+04  0.000E+00  0.000E+00  0.000E+00  3.92400E+01  1.150E-01  2.000E+01  2.000E+04  8.663E-02
   1   11   25     2     6    4.8490E+04  9.3229E+02   4.7558E+04  0.000E+00  0.000E+00  0.000E+00  3.89881E+01  1.131E-01  2.000E+01  2.000E+04  4.661E-02
   1   12   24     2     7    4.7558E+04 -4.5811E+02   4.8016E+04  0.000E+00  0.000E+00  0.000E+00  3.87378E+01  1.128E-01  2.000E+01  2.000E+04 -2.291E-02
   1   13   23     2     8    4.8016E+04 -1.0479E+02   4.8121E+04  0.000E+00  0.000E+00  0.000E+00  3.84882E+01  1.132E-01  2.000E+01  2.000E+04 -5.240E-03
   1   14   22     2     9    4.8121E+04  2.1853E+03   4.5936E+04  0.000E+00  0.000E+00  0.000E+00  3.82367E+01  1.117E-01  2.000E+01  2.000E+04  1.093E-01
   1   14   22     3     1    1.5354E+05 -8.2823E+03   1.6182E+05  0.000E+00  0.000E+00  0.000E+00  3.77133E+01  1.577E-01  2.000E+01  2.000E+04 -4.141E-01
   1   15   23     3     2    1.6182E+05 -1.9551E+02   1.6201E+05  0.000E+00  0.000E+00  0.000E+00  3.68269E+01  1.603E-01  2.000E+01  2.000E+04 -9.775E-03
   1   15   24     3     3    1.6201E+05 -1.4685E+02   1.6216E+05  0.000E+00  0.000E+00  0.000E+00  3.59382E+01  1.604E-01  2.000E+01  2.000E+04 -7.343E-03
   1   15   25     3     4    1.6216E+05 -1.4005E+02   1.6230E+05  0.000E+00  0.000E+00  0.000E+00  3.50494E+01  1.605E-01  2.000E+01  2.000E+04 -7.003E-03
   1   15   26     3     5    1.6230E+05  1.0556E+02   1.6220E+05  0.000E+00  0.000E+00  0.000E+00  3.41605E+01  1.605E-01  2.000E+01  2.000E+04  5.278E-03
   1   16   27     3     6    1.6220E+05  4.5151E+02   1.6174E+05  0.000E+00  0.000E+00  0.000E+00  3.32714E+01  1.603E-01  2.000E+01  2.000E+04  2.258E-02
   1   17   28     3     7    1.6174E+05  1.7698E+03   1.5997E+05  0.000E+00  0.000E+00  0.000E+00  3.23819E+01  1.596E-01  2.000E+01  2.000E+04  8.849E-02
   1   18   29     3     8    1.5997E+05 -1.6568E+03   1.6163E+05  0.000E+00  0.000E+00  0.000E+00  3.14929E+01  1.596E-01  2.000E+01  2.000E+04 -8.284E-02
   1   18   30     3     9    1.6163E+05 -2.0069E+03   1.6364E+05  0.000E+00  0.000E+00  0.000E+00  3.06051E+01  1.607E-01  2.000E+01  2.000E+04 -1.003E-01



1
              HEAD IN LAYER   1 AT END OF TIME STEP   1 IN STRESS PERIOD   11
  ---------------------------------------------------------------------------

          1      2      3      4      5      6      7      8      9     10
         11     12     13     14     15     16     17     18     19     20
         21     22     23     24     25     26     27     28     29     30
 .........................................................................
   1  ****** ****** ****** ****** ****** ****** ****** ****** ****** ******
      ****** ****** ****** ****** ****** ****** ****** ****** ****** ******
      ****** ****** ****** ****** ****** ****** ****** ****** ****** ******
   2  ****** ****** ****** ****** ****** ****** ****** ****** ****** ******
      ****** ****** ****** ****** ****** ****** ****** ****** ****** ******
      ****** ****** ****** ****** ****** ****** ****** ****** ****** ******
   3  ****** ****** ****** ****** ****** ****** ****** ****** ****** ******
      ****** ****** ****** ****** ****** ****** ****** ****** ****** ******
      ****** ****** ****** ****** ****** ****** ****** ****** ****** ******
   4  ****** ****** ****** ****** ****** ****** ****** ****** ****** ******
      ****** ****** ****** ****** ****** ****** ****** ****** ****** ******
      ****** ****** ****** ****** ****** ****** ****** ****** ****** ******
   5  ****** ****** ****** ****** ****** ****** ****** ****** ****** ******
      ****** ****** ****** ****** ****** ****** ****** ****** ****** ******
      ****** ****** ****** ****** ****** ****** ****** ****** ****** ******
   6  ****** ****** ****** ****** ****** ****** ****** ****** ****** ******
      ****** ****** ****** ****** ****** ****** ****** ****** ****** ******
      ****** ****** ****** ****** ****** ****** ****** ****** ****** ******
   7  ****** ****** ****** ****** ****** ****** ****** ****** ****** ******
      ****** ****** ****** ****** ****** ****** ****** ****** ****** ******
      ****** ****** ****** ****** ****** ****** ****** ****** ****** ******
   8  ****** ****** ****** ****** ****** ****** ****** ****** ****** ******
      ****** ****** ****** ****** ****** ****** ****** ****** ****** ******
      ****** ****** ****** ****** ****** ****** ****** ****** ****** ******
   9  ****** ****** ****** ****** ****** ****** ****** ****** ****** ******
      ****** ****** ****** ****** ****** ****** ****** ****** ****** ******
      ****** ****** ****** ****** ****** ****** ****** ****** ****** ******
  10  ****** ****** ****** ****** ****** ****** ****** ****** ****** ******
      ****** ****** ****** ****** ****** ****** ****** ****** ****** ******
      ****** ****** ****** ****** ****** ****** ****** ****** ****** ******
  11  ****** ****** ****** ****** ****** ****** ****** ****** ****** ******
      ****** ****** ****** ****** ****** ****** ****** ****** ****** ******
      ****** ****** ****** ****** ****** ****** ****** ****** ****** ******
  12  ****** ****** ****** ****** ****** ****** ****** ****** ****** ******
      ****** ****** ****** ****** ****** ****** ****** ****** ****** ******
      ****** ****** ****** ****** ****** ****** ****** ****** ****** ******
  13  ****** ****** ****** ****** ****** ****** ****** ****** ****** ******
      ****** ****** ****** ****** ****** ****** ****** ****** ****** ******
      ****** ****** ****** ****** ****** ****** ****** ****** ****** ******
  14  ****** ****** ****** ****** ****** ****** ****** ****** ****** ******
      ****** ****** ****** ****** ****** ****** ****** ****** ****** ******
      ****** ****** ****** ****** ****** ****** ****** ****** ****** ******
  15  ****** ****** ****** ****** ****** ****** ****** ****** ****** ******
      ****** ****** ****** ****** ****** ****** ****** ****** ****** ******
      ****** ****** ****** ****** ****** ****** ****** ****** ****** ******
  16  ****** ****** ****** ****** ****** ****** ****** ****** ****** ******
      ****** ****** ****** ****** ****** ****** ****** ****** ****** ******
      ****** ****** ****** ****** ****** ****** ****** ****** ****** ******
  17  ****** ****** ****** ****** ****** ****** ****** ****** ****** ******
      ****** ****** ****** ****** ****** ****** ****** ****** ****** ******
      ****** ****** ****** ****** ****** ****** ****** ****** ****** ******
  18  ****** ****** ****** ****** ****** ****** ****** ****** ****** ******
      ****** ****** ****** ****** ****** ****** ****** ****** ****** ******
      ****** ****** ****** ****** ****** ****** ****** ****** ****** ******
  19  ****** ****** ****** ****** ****** ****** ****** ****** ****** ******
      ****** ****** ****** ****** ****** ****** ****** ****** ****** ******
      ****** ****** ****** ****** ****** ****** ****** ****** ****** ******
  20  ****** ****** ****** ****** ****** ****** ****** ****** ****** ******
      ****** ****** ****** ****** ****** ****** ****** ****** ****** ******
      ****** ****** ****** ****** ****** ****** ****** ****** ****** ******
  21  ****** ****** ****** ****** ****** ****** ****** ****** ****** ******
      ****** ****** ****** ****** ****** ****** ****** ****** ****** ******
      ****** ****** ****** ****** ****** ****** ****** ****** ****** ******
  22  ****** ****** ****** ****** ****** ****** ****** ****** ****** ******
      ****** ****** ****** ****** ****** ****** ****** ****** ****** ******
      ****** ****** ****** ****** ****** ****** ****** ****** ****** ******
  23  ****** ****** ****** ****** ****** ****** ****** ****** ****** ******
      ****** ****** ****** ****** ****** ****** ****** ****** ****** ******
      ****** ****** ****** ****** ****** ****** ****** ****** ****** ******
  24  ****** ****** ****** ****** ****** ****** ****** ****** ****** ******
      ****** ****** ****** ****** ****** ****** ****** ****** ****** ******
      ****** ****** ****** ****** ****** ****** ****** ****** ****** ******
  25  ****** ****** ****** ****** ****** ****** ****** ****** ****** ******
      ****** ****** ****** ****** ****** ****** ****** ****** ****** ******
      ****** ****** ****** ****** ****** ****** ****** ****** ****** ******

 HEAD WILL BE SAVED ON UNIT   51 AT END OF TIME STEP    1, STRESS PERIOD   11
1
  VOLUMETRIC BUDGET FOR ENTIRE MODEL AT END OF TIME STEP    1, STRESS PERIOD  11
  ------------------------------------------------------------------------------

     CUMULATIVE VOLUMES      L**3       RATES FOR THIS TIME STEP      L**3/T
     ------------------                 ------------------------

           IN:                                      IN:
           ---                                      ---
             STORAGE =    35232087.3850               STORAGE =       17865.7580
       CONSTANT HEAD =    27863510.1235         CONSTANT HEAD =       33905.1388
               WELLS =           0.0000                 WELLS =           0.0000
            RECHARGE =    23901600.0000              RECHARGE =           0.0000
      STREAM LEAKAGE =    10924285.3285        STREAM LEAKAGE =       14826.8155

            TOTAL IN =    97921482.8370              TOTAL IN =       66597.7123

          OUT:                                     OUT:
          ----                                     ----
             STORAGE =     2402324.0606               STORAGE =           0.0000
       CONSTANT HEAD =           0.0000         CONSTANT HEAD =           0.0000
               WELLS =    38285611.5498                 WELLS =       38133.0792
            RECHARGE =           0.0000              RECHARGE =           0.0000
      STREAM LEAKAGE =    57233549.2510        STREAM LEAKAGE =       28464.6380

           TOTAL OUT =    97921484.8614             TOTAL OUT =       66597.7172

            IN - OUT =          -2.0244              IN - OUT =      -4.9227E-03

 PERCENT DISCREPANCY =          -0.00     PERCENT DISCREPANCY =          -0.00






         TIME SUMMARY AT END OF TIME STEP    1 IN STRESS PERIOD   11
                    SECONDS     MINUTES      HOURS       DAYS        YEARS
                    -----------------------------------------------------------
   TIME STEP LENGTH 7.86240E+06 1.31040E+05  2184.0      91.000     0.24914    
 STRESS PERIOD TIME 7.86240E+06 1.31040E+05  2184.0      91.000     0.24914    
         TOTAL TIME 8.67456E+07 1.44576E+06  24096.      1004.0      2.7488    
1
1
                            STRESS PERIOD NO.   12, LENGTH =   91.00000    
                            -----------------------------------------------

                              NUMBER OF TIME STEPS =     1

                               MULTIPLIER FOR DELT =     1.500

                            INITIAL TIME STEP SIZE =   91.00000    

 WELL NO.  LAYER   ROW   COL   STRESS RATE         
 --------------------------------------------------
      1      1     14      6       0.000    
      2      1      3      9       0.000    
      3      1     20     10       0.000    
      4      1     14     20       0.000    
      5      1     15     19     -0.1065E+05
      6      1     15     28      -8067.    
      7      1     19     14      -9238.    
      8      1      9     25     -0.1018E+05

      8 WELLS

                 RECHARGE =  1.000000E-03

 REUSING STREAM SEGMENT DATA FROM LAST STRESS PERIOD
 
 SOLVING FOR HEAD 


     7 CALLS TO PCG ROUTINE FOR TIME STEP   1 IN STRESS PERIOD   12
    24 TOTAL ITERATIONS

 OUTPUT CONTROL FOR STRESS PERIOD   12   TIME STEP    1
    SAVE BUDGET
    SAVE HEAD FOR ALL LAYERS
    PRINT HEAD FOR ALL LAYERS
 UBDSV2 SAVING "STREAMFLOW OUT  " ON UNIT  50 AT TIME STEP  1, STRESS PERIOD  12



 STREAM LISTING     PERIOD     12   STEP        1

 LAYER ROW COL. STREAM  RCH.  FLOW INTO     FLOW TO   FLOW OUT OF   OVRLND.     DIRECT     STREAM       STREAM     STREAM     STREAM   STREAMBED  STREAMBED
                SEG.NO.  NO.  STRM. RCH.    AQUIFER    STRM. RCH.    RUNOFF     PRECIP       ET          HEAD       DEPTH      WIDTH   CONDCTNC.   GRADIENT

   1   13    1     1     1    1.0000E+05 -1.6753E+03   1.0168E+05  0.000E+00  0.000E+00  0.000E+00  4.84067E+01  1.454E-01  2.000E+01  2.000E+04 -8.376E-02
   1   13    2     1     2    1.0168E+05 -2.6204E+03   1.0430E+05  0.000E+00  0.000E+00  0.000E+00  4.79313E+01  1.472E-01  2.000E+01  2.000E+04 -1.310E-01
   1   14    3     1     3    1.0430E+05 -4.3049E+02   1.0473E+05  0.000E+00  0.000E+00  0.000E+00  4.74554E+01  1.485E-01  2.000E+01  2.000E+04 -2.152E-02
   1   15    4     1     4    1.0473E+05 -3.9499E+02   1.0512E+05  0.000E+00  0.000E+00  0.000E+00  4.69784E+01  1.489E-01  2.000E+01  2.000E+04 -1.975E-02
   1   16    5     1     5    1.0512E+05 -1.3577E+03   1.0648E+05  0.000E+00  0.000E+00  0.000E+00  4.65019E+01  1.496E-01  2.000E+01  2.000E+04 -6.789E-02
   1   16    6     1     6    1.0648E+05 -8.3916E+02   1.0732E+05  0.000E+00  0.000E+00  0.000E+00  4.60256E+01  1.506E-01  2.000E+01  2.000E+04 -4.196E-02
   1   16    7     1     7    1.0732E+05 -7.8408E+02   1.0810E+05  0.000E+00  0.000E+00  0.000E+00  4.55490E+01  1.512E-01  2.000E+01  2.000E+04 -3.920E-02
   1   16    8     1     8    1.0810E+05 -7.1983E+02   1.0882E+05  0.000E+00  0.000E+00  0.000E+00  4.50723E+01  1.519E-01  2.000E+01  2.000E+04 -3.599E-02
   1   16    9     1     9    1.0882E+05 -6.2311E+02   1.0945E+05  0.000E+00  0.000E+00  0.000E+00  4.45956E+01  1.524E-01  2.000E+01  2.000E+04 -3.116E-02
   1   16   10     1    10    1.0945E+05 -4.7748E+02   1.0992E+05  0.000E+00  0.000E+00  0.000E+00  4.41188E+01  1.529E-01  2.000E+01  2.000E+04 -2.387E-02
   1   16   11     1    11    1.0992E+05 -2.5627E+02   1.1018E+05  0.000E+00  0.000E+00  0.000E+00  4.36418E+01  1.532E-01  2.000E+01  2.000E+04 -1.281E-02
   1   16   12     1    12    1.1018E+05  6.5108E+01   1.1011E+05  0.000E+00  0.000E+00  0.000E+00  4.31647E+01  1.533E-01  2.000E+01  2.000E+04  3.255E-03
   1   15   13     1    13    1.1011E+05 -2.5330E+02   1.1037E+05  0.000E+00  0.000E+00  0.000E+00  4.26875E+01  1.534E-01  2.000E+01  2.000E+04 -1.266E-02
   1   14   14     1    14    1.1037E+05 -7.4197E+02   1.1111E+05  0.000E+00  0.000E+00  0.000E+00  4.22106E+01  1.538E-01  2.000E+01  2.000E+04 -3.710E-02
   1   13   15     1    15    1.1111E+05 -1.2240E+03   1.1233E+05  0.000E+00  0.000E+00  0.000E+00  4.17341E+01  1.546E-01  2.000E+01  2.000E+04 -6.120E-02
   1   12   16     1    16    1.1233E+05 -2.2966E+03   1.1463E+05  0.000E+00  0.000E+00  0.000E+00  4.12583E+01  1.561E-01  2.000E+01  2.000E+04 -1.148E-01
   1   12   17     1    17    1.1463E+05 -1.0982E+03   1.1573E+05  0.000E+00  0.000E+00  0.000E+00  4.07825E+01  1.575E-01  2.000E+01  2.000E+04 -5.491E-02
   1   12   18     1    18    1.1573E+05 -8.1137E+02   1.1654E+05  0.000E+00  0.000E+00  0.000E+00  4.03060E+01  1.582E-01  2.000E+01  2.000E+04 -4.057E-02
   1   12   19     1    19    1.1654E+05 -1.2341E+03   1.1777E+05  0.000E+00  0.000E+00  0.000E+00  3.98295E+01  1.591E-01  2.000E+01  2.000E+04 -6.171E-02
   1   13   20     1    20    1.1777E+05  4.6852E+02   1.1730E+05  0.000E+00  0.000E+00  0.000E+00  3.93526E+01  1.594E-01  2.000E+01  2.000E+04  2.343E-02
   1   14   21     1    21    1.1730E+05  1.0350E+03   1.1627E+05  0.000E+00  0.000E+00  0.000E+00  3.88747E+01  1.588E-01  2.000E+01  2.000E+04  5.175E-02
   1   14   22     1    22    1.1627E+05  5.2383E+03   1.1103E+05  0.000E+00  0.000E+00  0.000E+00  3.83948E+01  1.562E-01  2.000E+01  2.000E+04  2.619E-01
   1    9   30     2     1    5.0000E+04  6.2797E+00   4.9994E+04  0.000E+00  0.000E+00  0.000E+00  4.02409E+01  1.159E-01  2.000E+01  2.000E+04  3.140E-04
   1    9   29     2     2    4.9994E+04 -2.7603E+02   5.0270E+04  0.000E+00  0.000E+00  0.000E+00  3.99910E+01  1.160E-01  2.000E+01  2.000E+04 -1.380E-02
   1    9   28     2     3    5.0270E+04 -4.4985E+02   5.0720E+04  0.000E+00  0.000E+00  0.000E+00  3.97416E+01  1.166E-01  2.000E+01  2.000E+04 -2.249E-02
   1    9   27     2     4    5.0720E+04 -2.3508E+02   5.0955E+04  0.000E+00  0.000E+00  0.000E+00  3.94920E+01  1.170E-01  2.000E+01  2.000E+04 -1.175E-02
   1   10   26     2     5    5.0955E+04  1.5024E+03   4.9452E+04  0.000E+00  0.000E+00  0.000E+00  3.92411E+01  1.161E-01  2.000E+01  2.000E+04  7.512E-02
   1   11   25     2     6    4.9452E+04  7.0598E+02   4.8746E+04  0.000E+00  0.000E+00  0.000E+00  3.89896E+01  1.146E-01  2.000E+01  2.000E+04  3.530E-02
   1   12   24     2     7    4.8746E+04 -6.6468E+02   4.9411E+04  0.000E+00  0.000E+00  0.000E+00  3.87396E+01  1.146E-01  2.000E+01  2.000E+04 -3.323E-02
   1   13   23     2     8    4.9411E+04 -1.8248E+02   4.9593E+04  0.000E+00  0.000E+00  0.000E+00  3.84902E+01  1.152E-01  2.000E+01  2.000E+04 -9.124E-03
   1   14   22     2     9    4.9593E+04  2.1180E+03   4.7476E+04  0.000E+00  0.000E+00  0.000E+00  3.82388E+01  1.138E-01  2.000E+01  2.000E+04  1.059E-01
   1   14   22     3     1    1.5851E+05 -8.3327E+03   1.6684E+05  0.000E+00  0.000E+00  0.000E+00  3.77163E+01  1.607E-01  2.000E+01  2.000E+04 -4.166E-01
   1   15   23     3     2    1.6684E+05 -2.6749E+02   1.6711E+05  0.000E+00  0.000E+00  0.000E+00  3.68299E+01  1.633E-01  2.000E+01  2.000E+04 -1.337E-02
   1   15   24     3     3    1.6711E+05 -2.1191E+02   1.6732E+05  0.000E+00  0.000E+00  0.000E+00  3.59412E+01  1.634E-01  2.000E+01  2.000E+04 -1.060E-02
   1   15   25     3     4    1.6732E+05 -2.0639E+02   1.6753E+05  0.000E+00  0.000E+00  0.000E+00  3.50524E+01  1.635E-01  2.000E+01  2.000E+04 -1.032E-02
   1   15   26     3     5    1.6753E+05  2.8099E+01   1.6750E+05  0.000E+00  0.000E+00  0.000E+00  3.41636E+01  1.636E-01  2.000E+01  2.000E+04  1.405E-03
   1   16   27     3     6    1.6750E+05  3.6475E+02   1.6713E+05  0.000E+00  0.000E+00  0.000E+00  3.32746E+01  1.635E-01  2.000E+01  2.000E+04  1.824E-02
   1   17   28     3     7    1.6713E+05  1.5492E+03   1.6558E+05  0.000E+00  0.000E+00  0.000E+00  3.23851E+01  1.629E-01  2.000E+01  2.000E+04  7.746E-02
   1   18   29     3     8    1.6558E+05 -1.8572E+03   1.6744E+05  0.000E+00  0.000E+00  0.000E+00  3.14963E+01  1.630E-01  2.000E+01  2.000E+04 -9.286E-02
   1   18   30     3     9    1.6744E+05 -2.1749E+03   1.6962E+05  0.000E+00  0.000E+00  0.000E+00  3.06086E+01  1.642E-01  2.000E+01  2.000E+04 -1.087E-01



1
              HEAD IN LAYER   1 AT END OF TIME STEP   1 IN STRESS PERIOD   12
  ---------------------------------------------------------------------------

          1      2      3      4      5      6      7      8      9     10
         11     12     13     14     15     16     17     18     19     20
         21     22     23     24     25     26     27     28     29     30
 .........................................................................
   1  ****** ****** ****** ****** ****** ****** ****** ****** ****** ******
      ****** ****** ****** ****** ****** ****** ****** ****** ****** ******
      ****** ****** ****** ****** ****** ****** ****** ****** ****** ******
   2  ****** ****** ****** ****** ****** ****** ****** ****** ****** ******
      ****** ****** ****** ****** ****** ****** ****** ****** ****** ******
      ****** ****** ****** ****** ****** ****** ****** ****** ****** ******
   3  ****** ****** ****** ****** ****** ****** ****** ****** ****** ******
      ****** ****** ****** ****** ****** ****** ****** ****** ****** ******
      ****** ****** ****** ****** ****** ****** ****** ****** ****** ******
   4  ****** ****** ****** ****** ****** ****** ****** ****** ****** ******
      ****** ****** ****** ****** ****** ****** ****** ****** ****** ******
      ****** ****** ****** ****** ****** ****** ****** ****** ****** ******
   5  ****** ****** ****** ****** ****** ****** ****** ****** ****** ******
      ****** ****** ****** ****** ****** ****** ****** ****** ****** ******
      ****** ****** ****** ****** ****** ****** ****** ****** ****** ******
   6  ****** ****** ****** ****** ****** ****** ****** ****** ****** ******
      ****** ****** ****** ****** ****** ****** ****** ****** ****** ******
      ****** ****** ****** ****** ****** ****** ****** ****** ****** ******
   7  ****** ****** ****** ****** ****** ****** ****** ****** ****** ******
      ****** ****** ****** ****** ****** ****** ****** ****** ****** ******
      ****** ****** ****** ****** ****** ****** ****** ****** ****** ******
   8  ****** ****** ****** ****** ****** ****** ****** ****** ****** ******
      ****** ****** ****** ****** ****** ****** ****** ****** ****** ******
      ****** ****** ****** ****** ****** ****** ****** ****** ****** ******
   9  ****** ****** ****** ****** ****** ****** ****** ****** ****** ******
      ****** ****** ****** ****** ****** ****** ****** ****** ****** ******
      ****** ****** ****** ****** ****** ****** ****** ****** ****** ******
  10  ****** ****** ****** ****** ****** ****** ****** ****** ****** ******
      ****** ****** ****** ****** ****** ****** ****** ****** ****** ******
      ****** ****** ****** ****** ****** ****** ****** ****** ****** ******
  11  ****** ****** ****** ****** ****** ****** ****** ****** ****** ******
      ****** ****** ****** ****** ****** ****** ****** ****** ****** ******
      ****** ****** ****** ****** ****** ****** ****** ****** ****** ******
  12  ****** ****** ****** ****** ****** ****** ****** ****** ****** ******
      ****** ****** ****** ****** ****** ****** ****** ****** ****** ******
      ****** ****** ****** ****** ****** ****** ****** ****** ****** ******
  13  ****** ****** ****** ****** ****** ****** ****** ****** ****** ******
      ****** ****** ****** ****** ****** ****** ****** ****** ****** ******
      ****** ****** ****** ****** ****** ****** ****** ****** ****** ******
  14  ****** ****** ****** ****** ****** ****** ****** ****** ****** ******
      ****** ****** ****** ****** ****** ****** ****** ****** ****** ******
      ****** ****** ****** ****** ****** ****** ****** ****** ****** ******
  15  ****** ****** ****** ****** ****** ****** ****** ****** ****** ******
      ****** ****** ****** ****** ****** ****** ****** ****** ****** ******
      ****** ****** ****** ****** ****** ****** ****** ****** ****** ******
  16  ****** ****** ****** ****** ****** ****** ****** ****** ****** ******
      ****** ****** ****** ****** ****** ****** ****** ****** ****** ******
      ****** ****** ****** ****** ****** ****** ****** ****** ****** ******
  17  ****** ****** ****** ****** ****** ****** ****** ****** ****** ******
      ****** ****** ****** ****** ****** ****** ****** ****** ****** ******
      ****** ****** ****** ****** ****** ****** ****** ****** ****** ******
  18  ****** ****** ****** ****** ****** ****** ****** ****** ****** ******
      ****** ****** ****** ****** ****** ****** ****** ****** ****** ******
      ****** ****** ****** ****** ****** ****** ****** ****** ****** ******
  19  ****** ****** ****** ****** ****** ****** ****** ****** ****** ******
      ****** ****** ****** ****** ****** ****** ****** ****** ****** ******
      ****** ****** ****** ****** ****** ****** ****** ****** ****** ******
  20  ****** ****** ****** ****** ****** ****** ****** ****** ****** ******
      ****** ****** ****** ****** ****** ****** ****** ****** ****** ******
      ****** ****** ****** ****** ****** ****** ****** ****** ****** ******
  21  ****** ****** ****** ****** ****** ****** ****** ****** ****** ******
      ****** ****** ****** ****** ****** ****** ****** ****** ****** ******
      ****** ****** ****** ****** ****** ****** ****** ****** ****** ******
  22  ****** ****** ****** ****** ****** ****** ****** ****** ****** ******
      ****** ****** ****** ****** ****** ****** ****** ****** ****** ******
      ****** ****** ****** ****** ****** ****** ****** ****** ****** ******
  23  ****** ****** ****** ****** ****** ****** ****** ****** ****** ******
      ****** ****** ****** ****** ****** ****** ****** ****** ****** ******
      ****** ****** ****** ****** ****** ****** ****** ****** ****** ******
  24  ****** ****** ****** ****** ****** ****** ****** ****** ****** ******
      ****** ****** ****** ****** ****** ****** ****** ****** ****** ******
      ****** ****** ****** ****** ****** ****** ****** ****** ****** ******
  25  ****** ****** ****** ****** ****** ****** ****** ****** ****** ******
      ****** ****** ****** ****** ****** ****** ****** ****** ****** ******
      ****** ****** ****** ****** ****** ****** ****** ****** ****** ******

 HEAD WILL BE SAVED ON UNIT   51 AT END OF TIME STEP    1, STRESS PERIOD   12
1
  VOLUMETRIC BUDGET FOR ENTIRE MODEL AT END OF TIME STEP    1, STRESS PERIOD  12
  ------------------------------------------------------------------------------

     CUMULATIVE VOLUMES      L**3       RATES FOR THIS TIME STEP      L**3/T
     ------------------                 ------------------------

           IN:                                      IN:
           ---                                      ---
             STORAGE =    35232612.2522               STORAGE =           5.7678
       CONSTANT HEAD =    30885006.1581         CONSTANT HEAD =       33203.2531
               WELLS =           0.0000                 WELLS =           0.0000
            RECHARGE =    26413200.0000              RECHARGE =       27600.0000
      STREAM LEAKAGE =    12114704.7779        STREAM LEAKAGE =       13081.5324

            TOTAL IN =   104645523.1882              TOTAL IN =       73890.5533

          OUT:                                     OUT:
          ----                                     ----
             STORAGE =     2680810.2636               STORAGE =        3060.2879
       CONSTANT HEAD =           0.0000         CONSTANT HEAD =           0.0000
               WELLS =    41755721.7600                 WELLS =       38133.0792
            RECHARGE =           0.0000              RECHARGE =           0.0000
      STREAM LEAKAGE =    60208993.1039        STREAM LEAKAGE =       32697.1852

           TOTAL OUT =   104645525.1275             TOTAL OUT =       73890.5524

            IN - OUT =          -1.9393              IN - OUT =       9.3515E-04

 PERCENT DISCREPANCY =          -0.00     PERCENT DISCREPANCY =           0.00






         TIME SUMMARY AT END OF TIME STEP    1 IN STRESS PERIOD   12
                    SECONDS     MINUTES      HOURS       DAYS        YEARS
                    -----------------------------------------------------------
   TIME STEP LENGTH 7.86240E+06 1.31040E+05  2184.0      91.000     0.24914    
 STRESS PERIOD TIME 7.86240E+06 1.31040E+05  2184.0      91.000     0.24914    
         TOTAL TIME 9.46080E+07 1.57680E+06  26280.      1095.0      2.9979    
1

 Run end date and time (yyyy/mm/dd hh:mm:ss): 2019/02/09 14:38:08
 Elapsed run time:  0.110 Seconds

