                                  MODFLOW-2005     
      U.S. GEOLOGICAL SURVEY MODULAR FINITE-DIFFERENCE GROUND-WATER FLOW MODEL
                            VERSION 1.11.00 8/8/2013

 LIST FILE: supply2.lst
                         UNIT   10

 OPENING ..\data\supply.dis
 FILE TYPE:DIS   UNIT   11   STATUS:OLD    
 FORMAT:FORMATTED              ACCESS:SEQUENTIAL          

 OPENING ..\data\supply.ba6
 FILE TYPE:BAS6   UNIT   12   STATUS:OLD    
 FORMAT:FORMATTED              ACCESS:SEQUENTIAL          

 OPENING ..\data\supply_het.bc6
 FILE TYPE:BCF6   UNIT   13   STATUS:OLD    
 FORMAT:FORMATTED              ACCESS:SEQUENTIAL          

 OPENING ..\data\supply.rch
 FILE TYPE:RCH   UNIT   15   STATUS:OLD    
 FORMAT:FORMATTED              ACCESS:SEQUENTIAL          

 OPENING ..\data\supply2.sfr
 FILE TYPE:SFR   UNIT   16   STATUS:OLD    
 FORMAT:FORMATTED              ACCESS:SEQUENTIAL          

 OPENING ..\data\supply.oc
 FILE TYPE:OC   UNIT   17   STATUS:OLD    
 FORMAT:FORMATTED              ACCESS:SEQUENTIAL          

 OPENING ..\data\supply.pcg
 FILE TYPE:PCG   UNIT   18   STATUS:OLD    
 FORMAT:FORMATTED              ACCESS:SEQUENTIAL          

 OPENING supply2.wel
 FILE TYPE:WEL   UNIT   19   STATUS:OLD    
 FORMAT:FORMATTED              ACCESS:SEQUENTIAL          

 OPENING supply2sf.cbc
 FILE TYPE:DATA(BINARY)   UNIT   50   STATUS:UNKNOWN
 FORMAT:BINARY                 ACCESS:SEQUENTIAL          

 OPENING supply2hd.bhd
 FILE TYPE:DATA(BINARY)   UNIT   51   STATUS:UNKNOWN
 FORMAT:BINARY                 ACCESS:SEQUENTIAL          

 BAS -- BASIC PACKAGE, VERSION 7, 5/2/2005 INPUT READ FROM UNIT   12
 
 MODFLOW was compiled using uniform precision
 Precision of REAL and DOUBLE PRECISION variables:          15

 DISCRETIZATION INPUT DATA READ FROM UNIT   11
    1 LAYERS        25 ROWS        30 COLUMNS
   12 STRESS PERIOD(S) IN SIMULATION
 MODEL TIME UNIT IS DAYS
 MODEL LENGTH UNIT IS UNDEFINED
  Confining bed flag for each layer:
   0

                     DELR =   200.000    

                     DELC =   200.000    

 TOP ELEVATION OF LAYER 1 =  100.0000    

   MODEL LAYER BOTTOM EL. =   0.00000     FOR LAYER   1


 STRESS PERIOD     LENGTH       TIME STEPS     MULTIPLIER FOR DELT    SS FLAG
 ----------------------------------------------------------------------------
        1         92.00000          1                    1.500         TR
        2         91.00000          1                    1.500         TR
        3         91.00000          1                    1.500         TR
        4         91.00000          1                    1.500         TR
        5         92.00000          1                    1.500         TR
        6         91.00000          1                    1.500         TR
        7         91.00000          1                    1.500         TR
        8         91.00000          1                    1.500         TR
        9         92.00000          1                    1.500         TR
       10         91.00000          1                    1.500         TR
       11         91.00000          1                    1.500         TR
       12         91.00000          1                    1.500         TR

 TRANSIENT SIMULATION



 
 #MODOFC transient water supply sample problem                                   
 #                                                                               
 THE FREE FORMAT OPTION HAS BEEN SELECTED



                     BOUNDARY ARRAY FOR LAYER   1
 READING ON UNIT   12 WITH FORMAT: (20I4)              

 AQUIFER HEAD WILL BE SET TO   0.0000     AT ALL NO-FLOW NODES (IBOUND=0).



                       INITIAL HEAD FOR LAYER   1
 READING ON UNIT   12 WITH FORMAT: (10F13.0)           

 OUTPUT CONTROL IS SPECIFIED ONLY AT TIME STEPS FOR WHICH OUTPUT IS DESIRED
 COMPACT CELL-BY-CELL BUDGET FILES WILL BE WRITTEN
 HEAD PRINT FORMAT CODE IS  18    DRAWDOWN PRINT FORMAT CODE IS   0
 HEADS WILL BE SAVED ON UNIT   51    DRAWDOWNS WILL BE SAVED ON UNIT    0

 BCF -- BLOCK-CENTERED FLOW PACKAGE, VERSION 7, 5/2/2005
         INPUT READ FROM UNIT 13
 TRANSIENT SIMULATION
 HEAD AT CELLS THAT CONVERT TO DRY=   0.0000    
 WETTING CAPABILITY IS NOT ACTIVE
      LAYER  LAYER-TYPE CODE     INTERBLOCK T
      --------------------------------------------
         1            0          0 -- HARMONIC    

 COLUMN TO ROW ANISOTROPY =  1.000000    

     PRIMARY STORAGE COEF =  5.000000E-02 FOR LAYER   1



               TRANSMIS. ALONG ROWS FOR LAYER   1
 READING ON UNIT   13 WITH FORMAT: (FREE)              

 WEL -- WELL PACKAGE, VERSION 7, 5/2/2005 INPUT READ FROM UNIT   19
 # Well package input file written by MMProc
 No named parameters
 MAXIMUM OF      8 ACTIVE WELLS AT ONE TIME


     0 Well parameters

 RCH -- RECHARGE PACKAGE, VERSION 7, 5/2/2005 INPUT READ FROM UNIT   15
 No named parameters
 OPTION 1 -- RECHARGE TO TOP LAYER


     0 Recharge parameters

 SFR7 -- STREAMFLOW ROUTING PACKAGE, VERSION 1.0.7, 2013-01-15
         INPUT READ FROM UNIT  16
 #  Supply2 test problem for GWM-VI
 #  The eighth entry in the first data line is ISTCB2 -
 #    Setting this to a negative number indicates that
 #    streamflows out of the reach will be saved to a
 #    binary file.  The absolute value of ISTCB2 is the
 #    unit to which unformatted flows will be written.
 #
 No named parameters
 Segment information will not be 
 read by reach
 No named parameters
 No specifed inflow files


 NUMBER OF STREAM REACHES IS   40

 NUMBER OF STREAM SEGMENTS IS    3

 NUMBER OF STREAM PARAMETERS IS    0

 NUMBER OF STREAM SEGMENTS DEFINED USING PARAMETERS IS              0

 MAXIMUM ERROR FOR STREAM LEAKAGE RATES IS  1.00E-04

 CONSTANT FOR MANNINGS EQUATION IS  1.2839E+05





   STREAM NETWORK DESCRIPTION: 

   LAYER    ROW    COL   SEGMENT   REACH     LENGTH
                          NUMBER   NUMBER    IN CELL        
   --------------------------------------------------
      1     13      1       1        1    2.0000E+02
      1     13      2       1        2    2.0000E+02
      1     14      3       1        3    2.0000E+02
      1     15      4       1        4    2.0000E+02
      1     16      5       1        5    2.0000E+02
      1     16      6       1        6    2.0000E+02
      1     16      7       1        7    2.0000E+02
      1     16      8       1        8    2.0000E+02
      1     16      9       1        9    2.0000E+02
      1     16     10       1       10    2.0000E+02
      1     16     11       1       11    2.0000E+02
      1     16     12       1       12    2.0000E+02
      1     15     13       1       13    2.0000E+02
      1     14     14       1       14    2.0000E+02
      1     13     15       1       15    2.0000E+02
      1     12     16       1       16    2.0000E+02
      1     12     17       1       17    2.0000E+02
      1     12     18       1       18    2.0000E+02
      1     12     19       1       19    2.0000E+02
      1     13     20       1       20    2.0000E+02
      1     14     21       1       21    2.0000E+02
      1     14     22       1       22    2.0000E+02
      1      9     30       2        1    2.0000E+02
      1      9     29       2        2    2.0000E+02
      1      9     28       2        3    2.0000E+02
      1      9     27       2        4    2.0000E+02
      1     10     26       2        5    2.0000E+02
      1     11     25       2        6    2.0000E+02
      1     12     24       2        7    2.0000E+02
      1     13     23       2        8    2.0000E+02
      1     14     22       2        9    2.0000E+02
      1     14     22       3        1    2.0000E+02
      1     15     23       3        2    2.0000E+02
      1     15     24       3        3    2.0000E+02
      1     15     25       3        4    2.0000E+02
      1     15     26       3        5    2.0000E+02
      1     16     27       3        6    2.0000E+02
      1     17     28       3        7    2.0000E+02
      1     18     29       3        8    2.0000E+02
      1     18     30       3        9    2.0000E+02




 PCG -- CONJUGATE-GRADIENT SOLUTION PACKAGE, VERSION 7, 5/2/2005
 MAXIMUM OF    500 CALLS OF SOLUTION ROUTINE
 MAXIMUM OF      5 INTERNAL ITERATIONS PER CALL TO SOLUTION ROUTINE
 MATRIX PRECONDITIONING TYPE :    1



                                    SOLUTION BY THE CONJUGATE-GRADIENT METHOD
                                   -------------------------------------------
                    MAXIMUM NUMBER OF CALLS TO PCG ROUTINE =      500
                        MAXIMUM ITERATIONS PER CALL TO PCG =        5
                               MATRIX PRECONDITIONING TYPE =        1
        RELAXATION FACTOR (ONLY USED WITH PRECOND. TYPE 1) =    0.10000E+01
 PARAMETER OF POLYNOMIAL PRECOND. = 2 (2) OR IS CALCULATED :        0
                         HEAD CHANGE CRITERION FOR CLOSURE =    0.10000E-05
                     RESIDUAL CHANGE CRITERION FOR CLOSURE =    0.10000E+01
            PCG HEAD AND RESIDUAL CHANGE PRINTOUT INTERVAL =        1
     PRINTING FROM SOLVER IS LIMITED(1) OR SUPPRESSED (>1) =        1
                            STEADY-STATE DAMPING PARAMETER =    0.10000E+01
                               TRANSIENT DAMPING PARAMETER =    0.10000E+01
1
                            STRESS PERIOD NO.    1, LENGTH =   92.00000    
                            -----------------------------------------------

                              NUMBER OF TIME STEPS =     1

                               MULTIPLIER FOR DELT =     1.500

                            INITIAL TIME STEP SIZE =   92.00000    

 WELL NO.  LAYER   ROW   COL   STRESS RATE         
 --------------------------------------------------
      1      1     14      6       0.000    
      2      1      3      9       0.000    
      3      1     20     10       0.000    
      4      1     14     20       0.000    
      5      1      6     22      -8915.    
      6      1     16     17      -8329.    
      7      1      8     28      -7077.    
      8      1     15     19      -9150.    

      8 WELLS

                 RECHARGE =  5.000000E-04



 CLASSIFICATION & COUNT OF STREAM SEGMENTS BASED ON SOURCE OF INFLOW:

                HEADWATER     DIVERSION     RECEIVES TRIBUTARY FLOW
                ---------     ---------     -----------------------
                     2              0               1



                    INPUT DATA FOR EACH STREAM SEGMENT
 ---------------------------------------------------------------------------------------------

 SEGMENT    SEG.     INFLOW   OVERLAND   STREAM    STREAM   ICALC  OUTFLOW  DIVERSION PRIORITY
    NO.    LENGTH     RATE     RUNOFF      ET       PPT.    METH.  TO SEG.  FROM SEG.    NO.

      1  4.400E+03 1.000E+05 0.000E+00 0.000E+00 0.000E+00    1        3        0        0
      2  1.800E+03 5.000E+04 0.000E+00 0.000E+00 0.000E+00    1        3        0        0
      3  1.800E+03 0.000E+00 0.000E+00 0.000E+00 0.000E+00    1        0        0        0


         STREAMBED PROPERTIES AND STREAM DIMENSIONS

 SEGMENT     BED HYD. COND.      BED THICKNESS     ELEV.-TOP OF BED     WIDTH OF STREAM     DEPTH OF STREAM    STREAM ROUGHNESS
    No.     UPPER     LOWER     UPPER     LOWER     UPPER     LOWER     UPPER     LOWER     UPPER     LOWER   CHANNEL      BANK

     1  5.000E+00 5.000E+00 1.000E+00 1.000E+00 4.850E+01 3.800E+01 2.000E+01 2.000E+01                     5.000E-02
     2  5.000E+00 5.000E+00 1.000E+00 1.000E+00 4.025E+01 3.800E+01 2.000E+01 2.000E+01                     5.000E-02
     3  5.000E+00 5.000E+00 1.000E+00 1.000E+00 3.800E+01 3.000E+01 2.000E+01 2.000E+01                     5.000E-02



 
 SOLVING FOR HEAD 


     9 CALLS TO PCG ROUTINE FOR TIME STEP   1 IN STRESS PERIOD    1
    36 TOTAL ITERATIONS

 OUTPUT CONTROL FOR STRESS PERIOD    1   TIME STEP    1
    SAVE BUDGET
    SAVE HEAD FOR ALL LAYERS
    PRINT HEAD FOR ALL LAYERS
 UBDSV2 SAVING "STREAMFLOW OUT  " ON UNIT  50 AT TIME STEP  1, STRESS PERIOD   1



 STREAM LISTING     PERIOD      1   STEP        1

 LAYER ROW COL. STREAM  RCH.  FLOW INTO     FLOW TO   FLOW OUT OF   OVRLND.     DIRECT     STREAM       STREAM     STREAM     STREAM   STREAMBED  STREAMBED
                SEG.NO.  NO.  STRM. RCH.    AQUIFER    STRM. RCH.    RUNOFF     PRECIP       ET          HEAD       DEPTH      WIDTH   CONDCTNC.   GRADIENT

   1   13    1     1     1    1.0000E+05 -6.1206E+03   1.0612E+05  0.000E+00  0.000E+00  0.000E+00  4.84087E+01  1.473E-01  2.000E+01  2.000E+04 -3.060E-01
   1   13    2     1     2    1.0612E+05 -7.5903E+03   1.1371E+05  0.000E+00  0.000E+00  0.000E+00  4.79372E+01  1.531E-01  2.000E+01  2.000E+04 -3.795E-01
   1   14    3     1     3    1.1371E+05 -2.1984E+03   1.1591E+05  0.000E+00  0.000E+00  0.000E+00  4.74640E+01  1.571E-01  2.000E+01  2.000E+04 -1.099E-01
   1   15    4     1     4    1.1591E+05 -2.2690E+03   1.1818E+05  0.000E+00  0.000E+00  0.000E+00  4.69885E+01  1.590E-01  2.000E+01  2.000E+04 -1.135E-01
   1   16    5     1     5    1.1818E+05 -7.1696E+03   1.2535E+05  0.000E+00  0.000E+00  0.000E+00  4.65151E+01  1.628E-01  2.000E+01  2.000E+04 -3.585E-01
   1   16    6     1     6    1.2535E+05 -4.2898E+03   1.2964E+05  0.000E+00  0.000E+00  0.000E+00  4.60423E+01  1.673E-01  2.000E+01  2.000E+04 -2.145E-01
   1   16    7     1     7    1.2964E+05 -4.1192E+03   1.3376E+05  0.000E+00  0.000E+00  0.000E+00  4.55684E+01  1.706E-01  2.000E+01  2.000E+04 -2.060E-01
   1   16    8     1     8    1.3376E+05 -4.0693E+03   1.3783E+05  0.000E+00  0.000E+00  0.000E+00  4.50943E+01  1.738E-01  2.000E+01  2.000E+04 -2.035E-01
   1   16    9     1     9    1.3783E+05 -4.0439E+03   1.4187E+05  0.000E+00  0.000E+00  0.000E+00  4.46201E+01  1.769E-01  2.000E+01  2.000E+04 -2.022E-01
   1   16   10     1    10    1.4187E+05 -4.0157E+03   1.4589E+05  0.000E+00  0.000E+00  0.000E+00  4.41458E+01  1.799E-01  2.000E+01  2.000E+04 -2.008E-01
   1   16   11     1    11    1.4589E+05 -3.9976E+03   1.4988E+05  0.000E+00  0.000E+00  0.000E+00  4.36716E+01  1.829E-01  2.000E+01  2.000E+04 -1.999E-01
   1   16   12     1    12    1.4988E+05 -6.5197E+03   1.5640E+05  0.000E+00  0.000E+00  0.000E+00  4.31982E+01  1.868E-01  2.000E+01  2.000E+04 -3.260E-01
   1   15   13     1    13    1.5640E+05 -6.6106E+03   1.6301E+05  0.000E+00  0.000E+00  0.000E+00  4.27257E+01  1.916E-01  2.000E+01  2.000E+04 -3.305E-01
   1   14   14     1    14    1.6301E+05 -6.8654E+03   1.6988E+05  0.000E+00  0.000E+00  0.000E+00  4.22532E+01  1.964E-01  2.000E+01  2.000E+04 -3.433E-01
   1   13   15     1    15    1.6988E+05 -7.1787E+03   1.7706E+05  0.000E+00  0.000E+00  0.000E+00  4.17809E+01  2.013E-01  2.000E+01  2.000E+04 -3.589E-01
   1   12   16     1    16    1.7706E+05 -8.2728E+03   1.8533E+05  0.000E+00  0.000E+00  0.000E+00  4.13089E+01  2.066E-01  2.000E+01  2.000E+04 -4.136E-01
   1   12   17     1    17    1.8533E+05 -5.4607E+03   1.9079E+05  0.000E+00  0.000E+00  0.000E+00  4.08363E+01  2.113E-01  2.000E+01  2.000E+04 -2.730E-01
   1   12   18     1    18    1.9079E+05 -5.1524E+03   1.9594E+05  0.000E+00  0.000E+00  0.000E+00  4.03626E+01  2.149E-01  2.000E+01  2.000E+04 -2.576E-01
   1   12   19     1    19    1.9594E+05 -6.6729E+03   2.0262E+05  0.000E+00  0.000E+00  0.000E+00  3.98892E+01  2.188E-01  2.000E+01  2.000E+04 -3.336E-01
   1   13   20     1    20    2.0262E+05 -4.8901E+03   2.0751E+05  0.000E+00  0.000E+00  0.000E+00  3.94157E+01  2.226E-01  2.000E+01  2.000E+04 -2.445E-01
   1   14   21     1    21    2.0751E+05 -4.3313E+03   2.1184E+05  0.000E+00  0.000E+00  0.000E+00  3.89415E+01  2.256E-01  2.000E+01  2.000E+04 -2.166E-01
   1   14   22     1    22    2.1184E+05  3.9131E+03   2.0793E+05  0.000E+00  0.000E+00  0.000E+00  3.84643E+01  2.257E-01  2.000E+01  2.000E+04  1.957E-01
   1    9   30     2     1    5.0000E+04 -4.1675E+03   5.4168E+04  0.000E+00  0.000E+00  0.000E+00  4.02437E+01  1.187E-01  2.000E+01  2.000E+04 -2.084E-01
   1    9   29     2     2    5.4168E+04 -4.0070E+03   5.8175E+04  0.000E+00  0.000E+00  0.000E+00  3.99992E+01  1.242E-01  2.000E+01  2.000E+04 -2.004E-01
   1    9   28     2     3    5.8175E+04 -2.8404E+03   6.1015E+04  0.000E+00  0.000E+00  0.000E+00  3.97537E+01  1.287E-01  2.000E+01  2.000E+04 -1.420E-01
   1    9   27     2     4    6.1015E+04 -6.7124E+03   6.7727E+04  0.000E+00  0.000E+00  0.000E+00  3.95098E+01  1.348E-01  2.000E+01  2.000E+04 -3.356E-01
   1   10   26     2     5    6.7727E+04 -6.6856E+03   7.4413E+04  0.000E+00  0.000E+00  0.000E+00  3.92681E+01  1.431E-01  2.000E+01  2.000E+04 -3.343E-01
   1   11   25     2     6    7.4413E+04 -6.3390E+03   8.0752E+04  0.000E+00  0.000E+00  0.000E+00  3.90258E+01  1.508E-01  2.000E+01  2.000E+04 -3.170E-01
   1   12   24     2     7    8.0752E+04 -5.9510E+03   8.6703E+04  0.000E+00  0.000E+00  0.000E+00  3.87829E+01  1.579E-01  2.000E+01  2.000E+04 -2.975E-01
   1   13   23     2     8    8.6703E+04 -1.6053E+03   8.8308E+04  0.000E+00  0.000E+00  0.000E+00  3.85371E+01  1.621E-01  2.000E+01  2.000E+04 -8.026E-02
   1   14   22     2     9    8.8308E+04  3.8226E+02   8.7926E+04  0.000E+00  0.000E+00  0.000E+00  3.82878E+01  1.628E-01  2.000E+01  2.000E+04  1.911E-02
   1   14   22     3     1    2.9585E+05 -9.6153E+03   3.0547E+05  0.000E+00  0.000E+00  0.000E+00  3.77879E+01  2.324E-01  2.000E+01  2.000E+04 -4.808E-01
   1   15   23     3     2    3.0547E+05 -1.8248E+03   3.0729E+05  0.000E+00  0.000E+00  0.000E+00  3.69017E+01  2.350E-01  2.000E+01  2.000E+04 -9.124E-02
   1   15   24     3     3    3.0729E+05 -1.5102E+03   3.0880E+05  0.000E+00  0.000E+00  0.000E+00  3.60135E+01  2.358E-01  2.000E+01  2.000E+04 -7.551E-02
   1   15   25     3     4    3.0880E+05 -1.5713E+03   3.1037E+05  0.000E+00  0.000E+00  0.000E+00  3.51254E+01  2.365E-01  2.000E+01  2.000E+04 -7.857E-02
   1   15   26     3     5    3.1037E+05 -1.8793E+03   3.1225E+05  0.000E+00  0.000E+00  0.000E+00  3.42373E+01  2.373E-01  2.000E+01  2.000E+04 -9.397E-02
   1   16   27     3     6    3.1225E+05 -2.1589E+03   3.1441E+05  0.000E+00  0.000E+00  0.000E+00  3.33493E+01  2.382E-01  2.000E+01  2.000E+04 -1.079E-01
   1   17   28     3     7    3.1441E+05 -6.5580E+03   3.2097E+05  0.000E+00  0.000E+00  0.000E+00  3.24624E+01  2.402E-01  2.000E+01  2.000E+04 -3.279E-01
   1   18   29     3     8    3.2097E+05 -7.9492E+03   3.2892E+05  0.000E+00  0.000E+00  0.000E+00  3.15768E+01  2.434E-01  2.000E+01  2.000E+04 -3.975E-01
   1   18   30     3     9    3.2892E+05 -7.1485E+03   3.3607E+05  0.000E+00  0.000E+00  0.000E+00  3.06913E+01  2.468E-01  2.000E+01  2.000E+04 -3.574E-01



1
              HEAD IN LAYER   1 AT END OF TIME STEP   1 IN STRESS PERIOD    1
  ---------------------------------------------------------------------------

          1      2      3      4      5      6      7      8      9     10
         11     12     13     14     15     16     17     18     19     20
         21     22     23     24     25     26     27     28     29     30
 .........................................................................
   1  ****** ****** ****** ****** ****** ****** ****** ****** ****** ******
      ****** ****** ****** ****** ****** ****** ****** ****** ****** ******
      ****** ****** ****** ****** ****** ****** ****** ****** ****** ******
   2  ****** ****** ****** ****** ****** ****** ****** ****** ****** ******
      ****** ****** ****** ****** ****** ****** ****** ****** ****** ******
      ****** ****** ****** ****** ****** ****** ****** ****** ****** ******
   3  ****** ****** ****** ****** ****** ****** ****** ****** ****** ******
      ****** ****** ****** ****** ****** ****** ****** ****** ****** ******
      ****** ****** ****** ****** ****** ****** ****** ****** ****** ******
   4  ****** ****** ****** ****** ****** ****** ****** ****** ****** ******
      ****** ****** ****** ****** ****** ****** ****** ****** ****** ******
      ****** ****** ****** ****** ****** ****** ****** ****** ****** ******
   5  ****** ****** ****** ****** ****** ****** ****** ****** ****** ******
      ****** ****** ****** ****** ****** ****** ****** ****** ****** ******
      ****** ****** ****** ****** ****** ****** ****** ****** ****** ******
   6  ****** ****** ****** ****** ****** ****** ****** ****** ****** ******
      ****** ****** ****** ****** ****** ****** ****** ****** ****** ******
      ****** ****** ****** ****** ****** ****** ****** ****** ****** ******
   7  ****** ****** ****** ****** ****** ****** ****** ****** ****** ******
      ****** ****** ****** ****** ****** ****** ****** ****** ****** ******
      ****** ****** ****** ****** ****** ****** ****** ****** ****** ******
   8  ****** ****** ****** ****** ****** ****** ****** ****** ****** ******
      ****** ****** ****** ****** ****** ****** ****** ****** ****** ******
      ****** ****** ****** ****** ****** ****** ****** ****** ****** ******
   9  ****** ****** ****** ****** ****** ****** ****** ****** ****** ******
      ****** ****** ****** ****** ****** ****** ****** ****** ****** ******
      ****** ****** ****** ****** ****** ****** ****** ****** ****** ******
  10  ****** ****** ****** ****** ****** ****** ****** ****** ****** ******
      ****** ****** ****** ****** ****** ****** ****** ****** ****** ******
      ****** ****** ****** ****** ****** ****** ****** ****** ****** ******
  11  ****** ****** ****** ****** ****** ****** ****** ****** ****** ******
      ****** ****** ****** ****** ****** ****** ****** ****** ****** ******
      ****** ****** ****** ****** ****** ****** ****** ****** ****** ******
  12  ****** ****** ****** ****** ****** ****** ****** ****** ****** ******
      ****** ****** ****** ****** ****** ****** ****** ****** ****** ******
      ****** ****** ****** ****** ****** ****** ****** ****** ****** ******
  13  ****** ****** ****** ****** ****** ****** ****** ****** ****** ******
      ****** ****** ****** ****** ****** ****** ****** ****** ****** ******
      ****** ****** ****** ****** ****** ****** ****** ****** ****** ******
  14  ****** ****** ****** ****** ****** ****** ****** ****** ****** ******
      ****** ****** ****** ****** ****** ****** ****** ****** ****** ******
      ****** ****** ****** ****** ****** ****** ****** ****** ****** ******
  15  ****** ****** ****** ****** ****** ****** ****** ****** ****** ******
      ****** ****** ****** ****** ****** ****** ****** ****** ****** ******
      ****** ****** ****** ****** ****** ****** ****** ****** ****** ******
  16  ****** ****** ****** ****** ****** ****** ****** ****** ****** ******
      ****** ****** ****** ****** ****** ****** ****** ****** ****** ******
      ****** ****** ****** ****** ****** ****** ****** ****** ****** ******
  17  ****** ****** ****** ****** ****** ****** ****** ****** ****** ******
      ****** ****** ****** ****** ****** ****** ****** ****** ****** ******
      ****** ****** ****** ****** ****** ****** ****** ****** ****** ******
  18  ****** ****** ****** ****** ****** ****** ****** ****** ****** ******
      ****** ****** ****** ****** ****** ****** ****** ****** ****** ******
      ****** ****** ****** ****** ****** ****** ****** ****** ****** ******
  19  ****** ****** ****** ****** ****** ****** ****** ****** ****** ******
      ****** ****** ****** ****** ****** ****** ****** ****** ****** ******
      ****** ****** ****** ****** ****** ****** ****** ****** ****** ******
  20  ****** ****** ****** ****** ****** ****** ****** ****** ****** ******
      ****** ****** ****** ****** ****** ****** ****** ****** ****** ******
      ****** ****** ****** ****** ****** ****** ****** ****** ****** ******
  21  ****** ****** ****** ****** ****** ****** ****** ****** ****** ******
      ****** ****** ****** ****** ****** ****** ****** ****** ****** ******
      ****** ****** ****** ****** ****** ****** ****** ****** ****** ******
  22  ****** ****** ****** ****** ****** ****** ****** ****** ****** ******
      ****** ****** ****** ****** ****** ****** ****** ****** ****** ******
      ****** ****** ****** ****** ****** ****** ****** ****** ****** ******
  23  ****** ****** ****** ****** ****** ****** ****** ****** ****** ******
      ****** ****** ****** ****** ****** ****** ****** ****** ****** ******
      ****** ****** ****** ****** ****** ****** ****** ****** ****** ******
  24  ****** ****** ****** ****** ****** ****** ****** ****** ****** ******
      ****** ****** ****** ****** ****** ****** ****** ****** ****** ******
      ****** ****** ****** ****** ****** ****** ****** ****** ****** ******
  25  ****** ****** ****** ****** ****** ****** ****** ****** ****** ******
      ****** ****** ****** ****** ****** ****** ****** ****** ****** ******
      ****** ****** ****** ****** ****** ****** ****** ****** ****** ******

 HEAD WILL BE SAVED ON UNIT   51 AT END OF TIME STEP    1, STRESS PERIOD    1
1
  VOLUMETRIC BUDGET FOR ENTIRE MODEL AT END OF TIME STEP    1, STRESS PERIOD   1
  ------------------------------------------------------------------------------

     CUMULATIVE VOLUMES      L**3       RATES FOR THIS TIME STEP      L**3/T
     ------------------                 ------------------------

           IN:                                      IN:
           ---                                      ---
             STORAGE =    17769076.4399               STORAGE =      193142.1352
       CONSTANT HEAD =     1158752.9010         CONSTANT HEAD =       12595.1402
               WELLS =           0.0000                 WELLS =           0.0000
            RECHARGE =     1269600.0000              RECHARGE =       13800.0000
      STREAM LEAKAGE =      395173.1979        STREAM LEAKAGE =        4295.3608

            TOTAL IN =    20592602.5388              TOTAL IN =      223832.6363

          OUT:                                     OUT:
          ----                                     ----
             STORAGE =           0.0000               STORAGE =           0.0000
       CONSTANT HEAD =           0.0000         CONSTANT HEAD =           0.0000
               WELLS =     3079308.9545                 WELLS =       33470.7495
            RECHARGE =           0.0000              RECHARGE =           0.0000
      STREAM LEAKAGE =    17513293.8739        STREAM LEAKAGE =      190361.8899

           TOTAL OUT =    20592602.8283             TOTAL OUT =      223832.6394

            IN - OUT =          -0.2896              IN - OUT =      -3.1473E-03

 PERCENT DISCREPANCY =          -0.00     PERCENT DISCREPANCY =          -0.00






         TIME SUMMARY AT END OF TIME STEP    1 IN STRESS PERIOD    1
                    SECONDS     MINUTES      HOURS       DAYS        YEARS
                    -----------------------------------------------------------
   TIME STEP LENGTH 7.94880E+06 1.32480E+05  2208.0      92.000     0.25188    
 STRESS PERIOD TIME 7.94880E+06 1.32480E+05  2208.0      92.000     0.25188    
         TOTAL TIME 7.94880E+06 1.32480E+05  2208.0      92.000     0.25188    
1
1
                            STRESS PERIOD NO.    2, LENGTH =   91.00000    
                            -----------------------------------------------

                              NUMBER OF TIME STEPS =     1

                               MULTIPLIER FOR DELT =     1.500

                            INITIAL TIME STEP SIZE =   91.00000    

 WELL NO.  LAYER   ROW   COL   STRESS RATE         
 --------------------------------------------------
      1      1     14      6       0.000    
      2      1      3      9       0.000    
      3      1     20     10       0.000    
      4      1     14     20       0.000    
      5      1      6     22      -8915.    
      6      1     16     17      -8329.    
      7      1      8     28      -7077.    
      8      1     15     19      -9150.    

      8 WELLS

                 RECHARGE =  2.000000E-03

 REUSING STREAM SEGMENT DATA FROM LAST STRESS PERIOD
 
 SOLVING FOR HEAD 


     7 CALLS TO PCG ROUTINE FOR TIME STEP   1 IN STRESS PERIOD    2
    27 TOTAL ITERATIONS

 OUTPUT CONTROL FOR STRESS PERIOD    2   TIME STEP    1
    SAVE BUDGET
    SAVE HEAD FOR ALL LAYERS
    PRINT HEAD FOR ALL LAYERS
 UBDSV2 SAVING "STREAMFLOW OUT  " ON UNIT  50 AT TIME STEP  1, STRESS PERIOD   2



 STREAM LISTING     PERIOD      2   STEP        1

 LAYER ROW COL. STREAM  RCH.  FLOW INTO     FLOW TO   FLOW OUT OF   OVRLND.     DIRECT     STREAM       STREAM     STREAM     STREAM   STREAMBED  STREAMBED
                SEG.NO.  NO.  STRM. RCH.    AQUIFER    STRM. RCH.    RUNOFF     PRECIP       ET          HEAD       DEPTH      WIDTH   CONDCTNC.   GRADIENT

   1   13    1     1     1    1.0000E+05 -4.0043E+03   1.0400E+05  0.000E+00  0.000E+00  0.000E+00  4.84077E+01  1.464E-01  2.000E+01  2.000E+04 -2.002E-01
   1   13    2     1     2    1.0400E+05 -5.2667E+03   1.0927E+05  0.000E+00  0.000E+00  0.000E+00  4.79344E+01  1.503E-01  2.000E+01  2.000E+04 -2.633E-01
   1   14    3     1     3    1.0927E+05 -1.1149E+03   1.1039E+05  0.000E+00  0.000E+00  0.000E+00  4.74598E+01  1.530E-01  2.000E+01  2.000E+04 -5.574E-02
   1   15    4     1     4    1.1039E+05 -1.1412E+03   1.1153E+05  0.000E+00  0.000E+00  0.000E+00  4.69835E+01  1.540E-01  2.000E+01  2.000E+04 -5.706E-02
   1   16    5     1     5    1.1153E+05 -4.2202E+03   1.1575E+05  0.000E+00  0.000E+00  0.000E+00  4.65085E+01  1.562E-01  2.000E+01  2.000E+04 -2.110E-01
   1   16    6     1     6    1.1575E+05 -2.4796E+03   1.1823E+05  0.000E+00  0.000E+00  0.000E+00  4.60339E+01  1.589E-01  2.000E+01  2.000E+04 -1.240E-01
   1   16    7     1     7    1.1823E+05 -2.3761E+03   1.2060E+05  0.000E+00  0.000E+00  0.000E+00  4.55586E+01  1.609E-01  2.000E+01  2.000E+04 -1.188E-01
   1   16    8     1     8    1.2060E+05 -2.3319E+03   1.2293E+05  0.000E+00  0.000E+00  0.000E+00  4.50833E+01  1.628E-01  2.000E+01  2.000E+04 -1.166E-01
   1   16    9     1     9    1.2293E+05 -2.2875E+03   1.2522E+05  0.000E+00  0.000E+00  0.000E+00  4.46078E+01  1.646E-01  2.000E+01  2.000E+04 -1.144E-01
   1   16   10     1    10    1.2522E+05 -2.2242E+03   1.2745E+05  0.000E+00  0.000E+00  0.000E+00  4.41323E+01  1.664E-01  2.000E+01  2.000E+04 -1.112E-01
   1   16   11     1    11    1.2745E+05 -2.1527E+03   1.2960E+05  0.000E+00  0.000E+00  0.000E+00  4.36568E+01  1.682E-01  2.000E+01  2.000E+04 -1.076E-01
   1   16   12     1    12    1.2960E+05 -3.4416E+03   1.3304E+05  0.000E+00  0.000E+00  0.000E+00  4.31817E+01  1.703E-01  2.000E+01  2.000E+04 -1.721E-01
   1   15   13     1    13    1.3304E+05 -3.1724E+03   1.3621E+05  0.000E+00  0.000E+00  0.000E+00  4.27070E+01  1.729E-01  2.000E+01  2.000E+04 -1.586E-01
   1   14   14     1    14    1.3621E+05 -3.2889E+03   1.3950E+05  0.000E+00  0.000E+00  0.000E+00  4.22322E+01  1.754E-01  2.000E+01  2.000E+04 -1.644E-01
   1   13   15     1    15    1.3950E+05 -3.6216E+03   1.4312E+05  0.000E+00  0.000E+00  0.000E+00  4.17576E+01  1.780E-01  2.000E+01  2.000E+04 -1.811E-01
   1   12   16     1    16    1.4312E+05 -4.9917E+03   1.4812E+05  0.000E+00  0.000E+00  0.000E+00  4.12835E+01  1.812E-01  2.000E+01  2.000E+04 -2.496E-01
   1   12   17     1    17    1.4812E+05 -2.7803E+03   1.5090E+05  0.000E+00  0.000E+00  0.000E+00  4.08091E+01  1.841E-01  2.000E+01  2.000E+04 -1.390E-01
   1   12   18     1    18    1.5090E+05 -2.4410E+03   1.5334E+05  0.000E+00  0.000E+00  0.000E+00  4.03338E+01  1.861E-01  2.000E+01  2.000E+04 -1.221E-01
   1   12   19     1    19    1.5334E+05 -3.3125E+03   1.5665E+05  0.000E+00  0.000E+00  0.000E+00  3.98586E+01  1.882E-01  2.000E+01  2.000E+04 -1.656E-01
   1   13   20     1    20    1.5665E+05 -1.4373E+03   1.5809E+05  0.000E+00  0.000E+00  0.000E+00  3.93831E+01  1.899E-01  2.000E+01  2.000E+04 -7.187E-02
   1   14   21     1    21    1.5809E+05 -1.2010E+03   1.5929E+05  0.000E+00  0.000E+00  0.000E+00  3.89067E+01  1.908E-01  2.000E+01  2.000E+04 -6.005E-02
   1   14   22     1    22    1.5929E+05  4.7469E+03   1.5454E+05  0.000E+00  0.000E+00  0.000E+00  3.84282E+01  1.895E-01  2.000E+01  2.000E+04  2.373E-01
   1    9   30     2     1    5.0000E+04 -1.2780E+03   5.1278E+04  0.000E+00  0.000E+00  0.000E+00  4.02418E+01  1.168E-01  2.000E+01  2.000E+04 -6.390E-02
   1    9   29     2     2    5.1278E+04 -1.1139E+03   5.2392E+04  0.000E+00  0.000E+00  0.000E+00  3.99934E+01  1.184E-01  2.000E+01  2.000E+04 -5.570E-02
   1    9   28     2     3    5.2392E+04  6.9699E+01   5.2322E+04  0.000E+00  0.000E+00  0.000E+00  3.97441E+01  1.191E-01  2.000E+01  2.000E+04  3.485E-03
   1    9   27     2     4    5.2322E+04 -2.9045E+03   5.5227E+04  0.000E+00  0.000E+00  0.000E+00  3.94960E+01  1.210E-01  2.000E+01  2.000E+04 -1.452E-01
   1   10   26     2     5    5.5227E+04 -2.8634E+03   5.8090E+04  0.000E+00  0.000E+00  0.000E+00  3.92499E+01  1.249E-01  2.000E+01  2.000E+04 -1.432E-01
   1   11   25     2     6    5.8090E+04 -2.7275E+03   6.0818E+04  0.000E+00  0.000E+00  0.000E+00  3.90036E+01  1.286E-01  2.000E+01  2.000E+04 -1.364E-01
   1   12   24     2     7    6.0818E+04 -2.7275E+03   6.3545E+04  0.000E+00  0.000E+00  0.000E+00  3.87571E+01  1.321E-01  2.000E+01  2.000E+04 -1.364E-01
   1   13   23     2     8    6.3545E+04 -5.4437E+02   6.4089E+04  0.000E+00  0.000E+00  0.000E+00  3.85091E+01  1.341E-01  2.000E+01  2.000E+04 -2.722E-02
   1   14   22     2     9    6.4089E+04  1.3556E+03   6.2734E+04  0.000E+00  0.000E+00  0.000E+00  3.82586E+01  1.336E-01  2.000E+01  2.000E+04  6.778E-02
   1   14   22     3     1    2.1727E+05 -8.8350E+03   2.2611E+05  0.000E+00  0.000E+00  0.000E+00  3.77491E+01  1.935E-01  2.000E+01  2.000E+04 -4.418E-01
   1   15   23     3     2    2.2611E+05 -8.2632E+02   2.2694E+05  0.000E+00  0.000E+00  0.000E+00  3.68627E+01  1.961E-01  2.000E+01  2.000E+04 -4.132E-02
   1   15   24     3     3    2.2694E+05 -6.2943E+02   2.2757E+05  0.000E+00  0.000E+00  0.000E+00  3.59742E+01  1.964E-01  2.000E+01  2.000E+04 -3.147E-02
   1   15   25     3     4    2.2757E+05 -6.5415E+02   2.2822E+05  0.000E+00  0.000E+00  0.000E+00  3.50856E+01  1.968E-01  2.000E+01  2.000E+04 -3.271E-02
   1   15   26     3     5    2.2822E+05 -7.6475E+02   2.2898E+05  0.000E+00  0.000E+00  0.000E+00  3.41971E+01  1.971E-01  2.000E+01  2.000E+04 -3.824E-02
   1   16   27     3     6    2.2898E+05 -8.8527E+02   2.2987E+05  0.000E+00  0.000E+00  0.000E+00  3.33087E+01  1.976E-01  2.000E+01  2.000E+04 -4.426E-02
   1   17   28     3     7    2.2987E+05 -3.2085E+03   2.3308E+05  0.000E+00  0.000E+00  0.000E+00  3.24208E+01  1.986E-01  2.000E+01  2.000E+04 -1.604E-01
   1   18   29     3     8    2.3308E+05 -4.9520E+03   2.3803E+05  0.000E+00  0.000E+00  0.000E+00  3.15340E+01  2.007E-01  2.000E+01  2.000E+04 -2.476E-01
   1   18   30     3     9    2.3803E+05 -4.6240E+03   2.4265E+05  0.000E+00  0.000E+00  0.000E+00  3.06476E+01  2.031E-01  2.000E+01  2.000E+04 -2.312E-01



1
              HEAD IN LAYER   1 AT END OF TIME STEP   1 IN STRESS PERIOD    2
  ---------------------------------------------------------------------------

          1      2      3      4      5      6      7      8      9     10
         11     12     13     14     15     16     17     18     19     20
         21     22     23     24     25     26     27     28     29     30
 .........................................................................
   1  ****** ****** ****** ****** ****** ****** ****** ****** ****** ******
      ****** ****** ****** ****** ****** ****** ****** ****** ****** ******
      ****** ****** ****** ****** ****** ****** ****** ****** ****** ******
   2  ****** ****** ****** ****** ****** ****** ****** ****** ****** ******
      ****** ****** ****** ****** ****** ****** ****** ****** ****** ******
      ****** ****** ****** ****** ****** ****** ****** ****** ****** ******
   3  ****** ****** ****** ****** ****** ****** ****** ****** ****** ******
      ****** ****** ****** ****** ****** ****** ****** ****** ****** ******
      ****** ****** ****** ****** ****** ****** ****** ****** ****** ******
   4  ****** ****** ****** ****** ****** ****** ****** ****** ****** ******
      ****** ****** ****** ****** ****** ****** ****** ****** ****** ******
      ****** ****** ****** ****** ****** ****** ****** ****** ****** ******
   5  ****** ****** ****** ****** ****** ****** ****** ****** ****** ******
      ****** ****** ****** ****** ****** ****** ****** ****** ****** ******
      ****** ****** ****** ****** ****** ****** ****** ****** ****** ******
   6  ****** ****** ****** ****** ****** ****** ****** ****** ****** ******
      ****** ****** ****** ****** ****** ****** ****** ****** ****** ******
      ****** ****** ****** ****** ****** ****** ****** ****** ****** ******
   7  ****** ****** ****** ****** ****** ****** ****** ****** ****** ******
      ****** ****** ****** ****** ****** ****** ****** ****** ****** ******
      ****** ****** ****** ****** ****** ****** ****** ****** ****** ******
   8  ****** ****** ****** ****** ****** ****** ****** ****** ****** ******
      ****** ****** ****** ****** ****** ****** ****** ****** ****** ******
      ****** ****** ****** ****** ****** ****** ****** ****** ****** ******
   9  ****** ****** ****** ****** ****** ****** ****** ****** ****** ******
      ****** ****** ****** ****** ****** ****** ****** ****** ****** ******
      ****** ****** ****** ****** ****** ****** ****** ****** ****** ******
  10  ****** ****** ****** ****** ****** ****** ****** ****** ****** ******
      ****** ****** ****** ****** ****** ****** ****** ****** ****** ******
      ****** ****** ****** ****** ****** ****** ****** ****** ****** ******
  11  ****** ****** ****** ****** ****** ****** ****** ****** ****** ******
      ****** ****** ****** ****** ****** ****** ****** ****** ****** ******
      ****** ****** ****** ****** ****** ****** ****** ****** ****** ******
  12  ****** ****** ****** ****** ****** ****** ****** ****** ****** ******
      ****** ****** ****** ****** ****** ****** ****** ****** ****** ******
      ****** ****** ****** ****** ****** ****** ****** ****** ****** ******
  13  ****** ****** ****** ****** ****** ****** ****** ****** ****** ******
      ****** ****** ****** ****** ****** ****** ****** ****** ****** ******
      ****** ****** ****** ****** ****** ****** ****** ****** ****** ******
  14  ****** ****** ****** ****** ****** ****** ****** ****** ****** ******
      ****** ****** ****** ****** ****** ****** ****** ****** ****** ******
      ****** ****** ****** ****** ****** ****** ****** ****** ****** ******
  15  ****** ****** ****** ****** ****** ****** ****** ****** ****** ******
      ****** ****** ****** ****** ****** ****** ****** ****** ****** ******
      ****** ****** ****** ****** ****** ****** ****** ****** ****** ******
  16  ****** ****** ****** ****** ****** ****** ****** ****** ****** ******
      ****** ****** ****** ****** ****** ****** ****** ****** ****** ******
      ****** ****** ****** ****** ****** ****** ****** ****** ****** ******
  17  ****** ****** ****** ****** ****** ****** ****** ****** ****** ******
      ****** ****** ****** ****** ****** ****** ****** ****** ****** ******
      ****** ****** ****** ****** ****** ****** ****** ****** ****** ******
  18  ****** ****** ****** ****** ****** ****** ****** ****** ****** ******
      ****** ****** ****** ****** ****** ****** ****** ****** ****** ******
      ****** ****** ****** ****** ****** ****** ****** ****** ****** ******
  19  ****** ****** ****** ****** ****** ****** ****** ****** ****** ******
      ****** ****** ****** ****** ****** ****** ****** ****** ****** ******
      ****** ****** ****** ****** ****** ****** ****** ****** ****** ******
  20  ****** ****** ****** ****** ****** ****** ****** ****** ****** ******
      ****** ****** ****** ****** ****** ****** ****** ****** ****** ******
      ****** ****** ****** ****** ****** ****** ****** ****** ****** ******
  21  ****** ****** ****** ****** ****** ****** ****** ****** ****** ******
      ****** ****** ****** ****** ****** ****** ****** ****** ****** ******
      ****** ****** ****** ****** ****** ****** ****** ****** ****** ******
  22  ****** ****** ****** ****** ****** ****** ****** ****** ****** ******
      ****** ****** ****** ****** ****** ****** ****** ****** ****** ******
      ****** ****** ****** ****** ****** ****** ****** ****** ****** ******
  23  ****** ****** ****** ****** ****** ****** ****** ****** ****** ******
      ****** ****** ****** ****** ****** ****** ****** ****** ****** ******
      ****** ****** ****** ****** ****** ****** ****** ****** ****** ******
  24  ****** ****** ****** ****** ****** ****** ****** ****** ****** ******
      ****** ****** ****** ****** ****** ****** ****** ****** ****** ******
      ****** ****** ****** ****** ****** ****** ****** ****** ****** ******
  25  ****** ****** ****** ****** ****** ****** ****** ****** ****** ******
      ****** ****** ****** ****** ****** ****** ****** ****** ****** ******
      ****** ****** ****** ****** ****** ****** ****** ****** ****** ******

 HEAD WILL BE SAVED ON UNIT   51 AT END OF TIME STEP    1, STRESS PERIOD    2
1
  VOLUMETRIC BUDGET FOR ENTIRE MODEL AT END OF TIME STEP    1, STRESS PERIOD   2
  ------------------------------------------------------------------------------

     CUMULATIVE VOLUMES      L**3       RATES FOR THIS TIME STEP      L**3/T
     ------------------                 ------------------------

           IN:                                      IN:
           ---                                      ---
             STORAGE =    22661202.7100               STORAGE =       53759.6293
       CONSTANT HEAD =     2720777.3384         CONSTANT HEAD =       17165.1037
               WELLS =           0.0000                 WELLS =           0.0000
            RECHARGE =     6292800.0000              RECHARGE =       55200.0000
      STREAM LEAKAGE =      956852.0068        STREAM LEAKAGE =        6172.2946

            TOTAL IN =    32631632.0551              TOTAL IN =      132297.0277

          OUT:                                     OUT:
          ----                                     ----
             STORAGE =           0.0000               STORAGE =           0.0000
       CONSTANT HEAD =           0.0000         CONSTANT HEAD =           0.0000
               WELLS =     6125147.1594                 WELLS =       33470.7495
            RECHARGE =           0.0000              RECHARGE =           0.0000
      STREAM LEAKAGE =    26506486.1425        STREAM LEAKAGE =       98826.2887

           TOTAL OUT =    32631633.3020             TOTAL OUT =      132297.0382

            IN - OUT =          -1.2468              IN - OUT =      -1.0519E-02

 PERCENT DISCREPANCY =          -0.00     PERCENT DISCREPANCY =          -0.00






         TIME SUMMARY AT END OF TIME STEP    1 IN STRESS PERIOD    2
                    SECONDS     MINUTES      HOURS       DAYS        YEARS
                    -----------------------------------------------------------
   TIME STEP LENGTH 7.86240E+06 1.31040E+05  2184.0      91.000     0.24914    
 STRESS PERIOD TIME 7.86240E+06 1.31040E+05  2184.0      91.000     0.24914    
         TOTAL TIME 1.58112E+07 2.63520E+05  4392.0      183.00     0.50103    
1
1
                            STRESS PERIOD NO.    3, LENGTH =   91.00000    
                            -----------------------------------------------

                              NUMBER OF TIME STEPS =     1

                               MULTIPLIER FOR DELT =     1.500

                            INITIAL TIME STEP SIZE =   91.00000    

 WELL NO.  LAYER   ROW   COL   STRESS RATE         
 --------------------------------------------------
      1      1     14      6       0.000    
      2      1      3      9       0.000    
      3      1     20     10       0.000    
      4      1     14     20       0.000    
      5      1      6     22      -8915.    
      6      1     16     17      -8329.    
      7      1      8     28      -7077.    
      8      1     15     19      -9150.    

      8 WELLS

                 RECHARGE =   0.00000    

 REUSING STREAM SEGMENT DATA FROM LAST STRESS PERIOD
 
 SOLVING FOR HEAD 


     7 CALLS TO PCG ROUTINE FOR TIME STEP   1 IN STRESS PERIOD    3
    27 TOTAL ITERATIONS

 OUTPUT CONTROL FOR STRESS PERIOD    3   TIME STEP    1
    SAVE BUDGET
    SAVE HEAD FOR ALL LAYERS
    PRINT HEAD FOR ALL LAYERS
 UBDSV2 SAVING "STREAMFLOW OUT  " ON UNIT  50 AT TIME STEP  1, STRESS PERIOD   3



 STREAM LISTING     PERIOD      3   STEP        1

 LAYER ROW COL. STREAM  RCH.  FLOW INTO     FLOW TO   FLOW OUT OF   OVRLND.     DIRECT     STREAM       STREAM     STREAM     STREAM   STREAMBED  STREAMBED
                SEG.NO.  NO.  STRM. RCH.    AQUIFER    STRM. RCH.    RUNOFF     PRECIP       ET          HEAD       DEPTH      WIDTH   CONDCTNC.   GRADIENT

   1   13    1     1     1    1.0000E+05 -2.7571E+03   1.0276E+05  0.000E+00  0.000E+00  0.000E+00  4.84072E+01  1.458E-01  2.000E+01  2.000E+04 -1.379E-01
   1   13    2     1     2    1.0276E+05 -3.8666E+03   1.0662E+05  0.000E+00  0.000E+00  0.000E+00  4.79328E+01  1.487E-01  2.000E+01  2.000E+04 -1.933E-01
   1   14    3     1     3    1.0662E+05 -6.5386E+02   1.0728E+05  0.000E+00  0.000E+00  0.000E+00  4.74574E+01  1.506E-01  2.000E+01  2.000E+04 -3.269E-02
   1   15    4     1     4    1.0728E+05 -6.3523E+02   1.0791E+05  0.000E+00  0.000E+00  0.000E+00  4.69807E+01  1.511E-01  2.000E+01  2.000E+04 -3.176E-02
   1   16    5     1     5    1.0791E+05 -2.4126E+03   1.1033E+05  0.000E+00  0.000E+00  0.000E+00  4.65047E+01  1.524E-01  2.000E+01  2.000E+04 -1.206E-01
   1   16    6     1     6    1.1033E+05 -1.4677E+03   1.1179E+05  0.000E+00  0.000E+00  0.000E+00  4.60290E+01  1.540E-01  2.000E+01  2.000E+04 -7.339E-02
   1   16    7     1     7    1.1179E+05 -1.4205E+03   1.1321E+05  0.000E+00  0.000E+00  0.000E+00  4.55530E+01  1.552E-01  2.000E+01  2.000E+04 -7.103E-02
   1   16    8     1     8    1.1321E+05 -1.3915E+03   1.1461E+05  0.000E+00  0.000E+00  0.000E+00  4.50769E+01  1.564E-01  2.000E+01  2.000E+04 -6.957E-02
   1   16    9     1     9    1.1461E+05 -1.3475E+03   1.1595E+05  0.000E+00  0.000E+00  0.000E+00  4.46007E+01  1.575E-01  2.000E+01  2.000E+04 -6.738E-02
   1   16   10     1    10    1.1595E+05 -1.2788E+03   1.1723E+05  0.000E+00  0.000E+00  0.000E+00  4.41245E+01  1.586E-01  2.000E+01  2.000E+04 -6.394E-02
   1   16   11     1    11    1.1723E+05 -1.1925E+03   1.1842E+05  0.000E+00  0.000E+00  0.000E+00  4.36483E+01  1.596E-01  2.000E+01  2.000E+04 -5.963E-02
   1   16   12     1    12    1.1842E+05 -1.7527E+03   1.2018E+05  0.000E+00  0.000E+00  0.000E+00  4.31722E+01  1.608E-01  2.000E+01  2.000E+04 -8.763E-02
   1   15   13     1    13    1.2018E+05 -1.4529E+03   1.2163E+05  0.000E+00  0.000E+00  0.000E+00  4.26962E+01  1.621E-01  2.000E+01  2.000E+04 -7.264E-02
   1   14   14     1    14    1.2163E+05 -1.5251E+03   1.2315E+05  0.000E+00  0.000E+00  0.000E+00  4.22201E+01  1.633E-01  2.000E+01  2.000E+04 -7.625E-02
   1   13   15     1    15    1.2315E+05 -1.8595E+03   1.2501E+05  0.000E+00  0.000E+00  0.000E+00  4.17442E+01  1.646E-01  2.000E+01  2.000E+04 -9.298E-02
   1   12   16     1    16    1.2501E+05 -3.1801E+03   1.2819E+05  0.000E+00  0.000E+00  0.000E+00  4.12689E+01  1.666E-01  2.000E+01  2.000E+04 -1.590E-01
   1   12   17     1    17    1.2819E+05 -1.4492E+03   1.2964E+05  0.000E+00  0.000E+00  0.000E+00  4.07935E+01  1.685E-01  2.000E+01  2.000E+04 -7.246E-02
   1   12   18     1    18    1.2964E+05 -1.1215E+03   1.3076E+05  0.000E+00  0.000E+00  0.000E+00  4.03172E+01  1.695E-01  2.000E+01  2.000E+04 -5.607E-02
   1   12   19     1    19    1.3076E+05 -1.6525E+03   1.3242E+05  0.000E+00  0.000E+00  0.000E+00  3.98410E+01  1.706E-01  2.000E+01  2.000E+04 -8.262E-02
   1   13   20     1    20    1.3242E+05  1.0282E+02   1.3231E+05  0.000E+00  0.000E+00  0.000E+00  3.93643E+01  1.712E-01  2.000E+01  2.000E+04  5.141E-03
   1   14   21     1    21    1.3231E+05  3.8182E+02   1.3193E+05  0.000E+00  0.000E+00  0.000E+00  3.88869E+01  1.710E-01  2.000E+01  2.000E+04  1.909E-02
   1   14   22     1    22    1.3193E+05  5.1284E+03   1.2680E+05  0.000E+00  0.000E+00  0.000E+00  3.84075E+01  1.688E-01  2.000E+01  2.000E+04  2.564E-01
   1    9   30     2     1    5.0000E+04 -1.8197E+01   5.0018E+04  0.000E+00  0.000E+00  0.000E+00  4.02409E+01  1.159E-01  2.000E+01  2.000E+04 -9.099E-04
   1    9   29     2     2    5.0018E+04  1.4662E+02   4.9872E+04  0.000E+00  0.000E+00  0.000E+00  3.99908E+01  1.158E-01  2.000E+01  2.000E+04  7.331E-03
   1    9   28     2     3    4.9872E+04  1.3499E+03   4.8522E+04  0.000E+00  0.000E+00  0.000E+00  3.97397E+01  1.147E-01  2.000E+01  2.000E+04  6.749E-02
   1    9   27     2     4    4.8522E+04 -1.0406E+03   4.9562E+04  0.000E+00  0.000E+00  0.000E+00  3.94895E+01  1.145E-01  2.000E+01  2.000E+04 -5.203E-02
   1   10   26     2     5    4.9562E+04 -1.1549E+03   5.0717E+04  0.000E+00  0.000E+00  0.000E+00  3.92411E+01  1.161E-01  2.000E+01  2.000E+04 -5.775E-02
   1   11   25     2     6    5.0717E+04 -1.1484E+03   5.1866E+04  0.000E+00  0.000E+00  0.000E+00  3.89927E+01  1.177E-01  2.000E+01  2.000E+04 -5.742E-02
   1   12   24     2     7    5.1866E+04 -1.3192E+03   5.3185E+04  0.000E+00  0.000E+00  0.000E+00  3.87443E+01  1.193E-01  2.000E+01  2.000E+04 -6.596E-02
   1   13   23     2     8    5.3185E+04 -2.0101E+02   5.3386E+04  0.000E+00  0.000E+00  0.000E+00  3.84954E+01  1.204E-01  2.000E+01  2.000E+04 -1.005E-02
   1   14   22     2     9    5.3386E+04  1.8641E+03   5.1522E+04  0.000E+00  0.000E+00  0.000E+00  3.82442E+01  1.192E-01  2.000E+01  2.000E+04  9.321E-02
   1   14   22     3     1    1.7833E+05 -8.4648E+03   1.8679E+05  0.000E+00  0.000E+00  0.000E+00  3.77278E+01  1.722E-01  2.000E+01  2.000E+04 -4.232E-01
   1   15   23     3     2    1.8679E+05 -4.1396E+02   1.8720E+05  0.000E+00  0.000E+00  0.000E+00  3.68414E+01  1.747E-01  2.000E+01  2.000E+04 -2.070E-02
   1   15   24     3     3    1.8720E+05 -2.9957E+02   1.8750E+05  0.000E+00  0.000E+00  0.000E+00  3.59527E+01  1.749E-01  2.000E+01  2.000E+04 -1.498E-02
   1   15   25     3     4    1.8750E+05 -3.1033E+02   1.8781E+05  0.000E+00  0.000E+00  0.000E+00  3.50640E+01  1.751E-01  2.000E+01  2.000E+04 -1.552E-02
   1   15   26     3     5    1.8781E+05 -3.5836E+02   1.8817E+05  0.000E+00  0.000E+00  0.000E+00  3.41753E+01  1.753E-01  2.000E+01  2.000E+04 -1.792E-02
   1   16   27     3     6    1.8817E+05 -4.1520E+02   1.8859E+05  0.000E+00  0.000E+00  0.000E+00  3.32866E+01  1.755E-01  2.000E+01  2.000E+04 -2.076E-02
   1   17   28     3     7    1.8859E+05 -1.7801E+03   1.9037E+05  0.000E+00  0.000E+00  0.000E+00  3.23984E+01  1.761E-01  2.000E+01  2.000E+04 -8.900E-02
   1   18   29     3     8    1.9037E+05 -3.3989E+03   1.9377E+05  0.000E+00  0.000E+00  0.000E+00  3.15109E+01  1.776E-01  2.000E+01  2.000E+04 -1.699E-01
   1   18   30     3     9    1.9377E+05 -3.4662E+03   1.9723E+05  0.000E+00  0.000E+00  0.000E+00  3.06239E+01  1.795E-01  2.000E+01  2.000E+04 -1.733E-01



1
              HEAD IN LAYER   1 AT END OF TIME STEP   1 IN STRESS PERIOD    3
  ---------------------------------------------------------------------------

          1      2      3      4      5      6      7      8      9     10
         11     12     13     14     15     16     17     18     19     20
         21     22     23     24     25     26     27     28     29     30
 .........................................................................
   1  ****** ****** ****** ****** ****** ****** ****** ****** ****** ******
      ****** ****** ****** ****** ****** ****** ****** ****** ****** ******
      ****** ****** ****** ****** ****** ****** ****** ****** ****** ******
   2  ****** ****** ****** ****** ****** ****** ****** ****** ****** ******
      ****** ****** ****** ****** ****** ****** ****** ****** ****** ******
      ****** ****** ****** ****** ****** ****** ****** ****** ****** ******
   3  ****** ****** ****** ****** ****** ****** ****** ****** ****** ******
      ****** ****** ****** ****** ****** ****** ****** ****** ****** ******
      ****** ****** ****** ****** ****** ****** ****** ****** ****** ******
   4  ****** ****** ****** ****** ****** ****** ****** ****** ****** ******
      ****** ****** ****** ****** ****** ****** ****** ****** ****** ******
      ****** ****** ****** ****** ****** ****** ****** ****** ****** ******
   5  ****** ****** ****** ****** ****** ****** ****** ****** ****** ******
      ****** ****** ****** ****** ****** ****** ****** ****** ****** ******
      ****** ****** ****** ****** ****** ****** ****** ****** ****** ******
   6  ****** ****** ****** ****** ****** ****** ****** ****** ****** ******
      ****** ****** ****** ****** ****** ****** ****** ****** ****** ******
      ****** ****** ****** ****** ****** ****** ****** ****** ****** ******
   7  ****** ****** ****** ****** ****** ****** ****** ****** ****** ******
      ****** ****** ****** ****** ****** ****** ****** ****** ****** ******
      ****** ****** ****** ****** ****** ****** ****** ****** ****** ******
   8  ****** ****** ****** ****** ****** ****** ****** ****** ****** ******
      ****** ****** ****** ****** ****** ****** ****** ****** ****** ******
      ****** ****** ****** ****** ****** ****** ****** ****** ****** ******
   9  ****** ****** ****** ****** ****** ****** ****** ****** ****** ******
      ****** ****** ****** ****** ****** ****** ****** ****** ****** ******
      ****** ****** ****** ****** ****** ****** ****** ****** ****** ******
  10  ****** ****** ****** ****** ****** ****** ****** ****** ****** ******
      ****** ****** ****** ****** ****** ****** ****** ****** ****** ******
      ****** ****** ****** ****** ****** ****** ****** ****** ****** ******
  11  ****** ****** ****** ****** ****** ****** ****** ****** ****** ******
      ****** ****** ****** ****** ****** ****** ****** ****** ****** ******
      ****** ****** ****** ****** ****** ****** ****** ****** ****** ******
  12  ****** ****** ****** ****** ****** ****** ****** ****** ****** ******
      ****** ****** ****** ****** ****** ****** ****** ****** ****** ******
      ****** ****** ****** ****** ****** ****** ****** ****** ****** ******
  13  ****** ****** ****** ****** ****** ****** ****** ****** ****** ******
      ****** ****** ****** ****** ****** ****** ****** ****** ****** ******
      ****** ****** ****** ****** ****** ****** ****** ****** ****** ******
  14  ****** ****** ****** ****** ****** ****** ****** ****** ****** ******
      ****** ****** ****** ****** ****** ****** ****** ****** ****** ******
      ****** ****** ****** ****** ****** ****** ****** ****** ****** ******
  15  ****** ****** ****** ****** ****** ****** ****** ****** ****** ******
      ****** ****** ****** ****** ****** ****** ****** ****** ****** ******
      ****** ****** ****** ****** ****** ****** ****** ****** ****** ******
  16  ****** ****** ****** ****** ****** ****** ****** ****** ****** ******
      ****** ****** ****** ****** ****** ****** ****** ****** ****** ******
      ****** ****** ****** ****** ****** ****** ****** ****** ****** ******
  17  ****** ****** ****** ****** ****** ****** ****** ****** ****** ******
      ****** ****** ****** ****** ****** ****** ****** ****** ****** ******
      ****** ****** ****** ****** ****** ****** ****** ****** ****** ******
  18  ****** ****** ****** ****** ****** ****** ****** ****** ****** ******
      ****** ****** ****** ****** ****** ****** ****** ****** ****** ******
      ****** ****** ****** ****** ****** ****** ****** ****** ****** ******
  19  ****** ****** ****** ****** ****** ****** ****** ****** ****** ******
      ****** ****** ****** ****** ****** ****** ****** ****** ****** ******
      ****** ****** ****** ****** ****** ****** ****** ****** ****** ******
  20  ****** ****** ****** ****** ****** ****** ****** ****** ****** ******
      ****** ****** ****** ****** ****** ****** ****** ****** ****** ******
      ****** ****** ****** ****** ****** ****** ****** ****** ****** ******
  21  ****** ****** ****** ****** ****** ****** ****** ****** ****** ******
      ****** ****** ****** ****** ****** ****** ****** ****** ****** ******
      ****** ****** ****** ****** ****** ****** ****** ****** ****** ******
  22  ****** ****** ****** ****** ****** ****** ****** ****** ****** ******
      ****** ****** ****** ****** ****** ****** ****** ****** ****** ******
      ****** ****** ****** ****** ****** ****** ****** ****** ****** ******
  23  ****** ****** ****** ****** ****** ****** ****** ****** ****** ******
      ****** ****** ****** ****** ****** ****** ****** ****** ****** ******
      ****** ****** ****** ****** ****** ****** ****** ****** ****** ******
  24  ****** ****** ****** ****** ****** ****** ****** ****** ****** ******
      ****** ****** ****** ****** ****** ****** ****** ****** ****** ******
      ****** ****** ****** ****** ****** ****** ****** ****** ****** ******
  25  ****** ****** ****** ****** ****** ****** ****** ****** ****** ******
      ****** ****** ****** ****** ****** ****** ****** ****** ****** ******
      ****** ****** ****** ****** ****** ****** ****** ****** ****** ******

 HEAD WILL BE SAVED ON UNIT   51 AT END OF TIME STEP    1, STRESS PERIOD    3
1
  VOLUMETRIC BUDGET FOR ENTIRE MODEL AT END OF TIME STEP    1, STRESS PERIOD   3
  ------------------------------------------------------------------------------

     CUMULATIVE VOLUMES      L**3       RATES FOR THIS TIME STEP      L**3/T
     ------------------                 ------------------------

           IN:                                      IN:
           ---                                      ---
             STORAGE =    27661623.1849               STORAGE =       54949.6755
       CONSTANT HEAD =     5064435.8645         CONSTANT HEAD =       25754.4893
               WELLS =           0.0000                 WELLS =           0.0000
            RECHARGE =     6292800.0000              RECHARGE =           0.0000
      STREAM LEAKAGE =     1773452.1763        STREAM LEAKAGE =        8973.6282

            TOTAL IN =    40792311.2257              TOTAL IN =       89677.7931

          OUT:                                     OUT:
          ----                                     ----
             STORAGE =           0.0000               STORAGE =           0.0000
       CONSTANT HEAD =           0.0000         CONSTANT HEAD =           0.0000
               WELLS =     9170985.3644                 WELLS =       33470.7495
            RECHARGE =           0.0000              RECHARGE =           0.0000
      STREAM LEAKAGE =    31621327.7983        STREAM LEAKAGE =       56207.0512

           TOTAL OUT =    40792313.1627             TOTAL OUT =       89677.8007

            IN - OUT =          -1.9370              IN - OUT =      -7.5847E-03

 PERCENT DISCREPANCY =          -0.00     PERCENT DISCREPANCY =          -0.00






         TIME SUMMARY AT END OF TIME STEP    1 IN STRESS PERIOD    3
                    SECONDS     MINUTES      HOURS       DAYS        YEARS
                    -----------------------------------------------------------
   TIME STEP LENGTH 7.86240E+06 1.31040E+05  2184.0      91.000     0.24914    
 STRESS PERIOD TIME 7.86240E+06 1.31040E+05  2184.0      91.000     0.24914    
         TOTAL TIME 2.36736E+07 3.94560E+05  6576.0      274.00     0.75017    
1
1
                            STRESS PERIOD NO.    4, LENGTH =   91.00000    
                            -----------------------------------------------

                              NUMBER OF TIME STEPS =     1

                               MULTIPLIER FOR DELT =     1.500

                            INITIAL TIME STEP SIZE =   91.00000    

 WELL NO.  LAYER   ROW   COL   STRESS RATE         
 --------------------------------------------------
      1      1     14      6       0.000    
      2      1      3      9       0.000    
      3      1     20     10       0.000    
      4      1     14     20       0.000    
      5      1      6     22      -8915.    
      6      1     16     17      -8329.    
      7      1      8     28      -7077.    
      8      1     15     19      -9150.    

      8 WELLS

                 RECHARGE =  1.000000E-03

 REUSING STREAM SEGMENT DATA FROM LAST STRESS PERIOD
 
 SOLVING FOR HEAD 


     6 CALLS TO PCG ROUTINE FOR TIME STEP   1 IN STRESS PERIOD    4
    23 TOTAL ITERATIONS

 OUTPUT CONTROL FOR STRESS PERIOD    4   TIME STEP    1
    SAVE BUDGET
    SAVE HEAD FOR ALL LAYERS
    PRINT HEAD FOR ALL LAYERS
 UBDSV2 SAVING "STREAMFLOW OUT  " ON UNIT  50 AT TIME STEP  1, STRESS PERIOD   4



 STREAM LISTING     PERIOD      4   STEP        1

 LAYER ROW COL. STREAM  RCH.  FLOW INTO     FLOW TO   FLOW OUT OF   OVRLND.     DIRECT     STREAM       STREAM     STREAM     STREAM   STREAMBED  STREAMBED
                SEG.NO.  NO.  STRM. RCH.    AQUIFER    STRM. RCH.    RUNOFF     PRECIP       ET          HEAD       DEPTH      WIDTH   CONDCTNC.   GRADIENT

   1   13    1     1     1    1.0000E+05 -2.5260E+03   1.0253E+05  0.000E+00  0.000E+00  0.000E+00  4.84071E+01  1.457E-01  2.000E+01  2.000E+04 -1.263E-01
   1   13    2     1     2    1.0253E+05 -3.5983E+03   1.0612E+05  0.000E+00  0.000E+00  0.000E+00  4.79325E+01  1.484E-01  2.000E+01  2.000E+04 -1.799E-01
   1   14    3     1     3    1.0612E+05 -6.2570E+02   1.0675E+05  0.000E+00  0.000E+00  0.000E+00  4.74570E+01  1.502E-01  2.000E+01  2.000E+04 -3.128E-02
   1   15    4     1     4    1.0675E+05 -5.9676E+02   1.0735E+05  0.000E+00  0.000E+00  0.000E+00  4.69802E+01  1.507E-01  2.000E+01  2.000E+04 -2.984E-02
   1   16    5     1     5    1.0735E+05 -2.1043E+03   1.0945E+05  0.000E+00  0.000E+00  0.000E+00  4.65041E+01  1.518E-01  2.000E+01  2.000E+04 -1.052E-01
   1   16    6     1     6    1.0945E+05 -1.3153E+03   1.1077E+05  0.000E+00  0.000E+00  0.000E+00  4.60283E+01  1.533E-01  2.000E+01  2.000E+04 -6.577E-02
   1   16    7     1     7    1.1077E+05 -1.2789E+03   1.1205E+05  0.000E+00  0.000E+00  0.000E+00  4.55521E+01  1.543E-01  2.000E+01  2.000E+04 -6.394E-02
   1   16    8     1     8    1.1205E+05 -1.2531E+03   1.1330E+05  0.000E+00  0.000E+00  0.000E+00  4.50758E+01  1.554E-01  2.000E+01  2.000E+04 -6.265E-02
   1   16    9     1     9    1.1330E+05 -1.2106E+03   1.1451E+05  0.000E+00  0.000E+00  0.000E+00  4.45996E+01  1.564E-01  2.000E+01  2.000E+04 -6.053E-02
   1   16   10     1    10    1.1451E+05 -1.1434E+03   1.1565E+05  0.000E+00  0.000E+00  0.000E+00  4.41233E+01  1.574E-01  2.000E+01  2.000E+04 -5.717E-02
   1   16   11     1    11    1.1565E+05 -1.0540E+03   1.1671E+05  0.000E+00  0.000E+00  0.000E+00  4.36469E+01  1.583E-01  2.000E+01  2.000E+04 -5.270E-02
   1   16   12     1    12    1.1671E+05 -1.4609E+03   1.1817E+05  0.000E+00  0.000E+00  0.000E+00  4.31707E+01  1.593E-01  2.000E+01  2.000E+04 -7.304E-02
   1   15   13     1    13    1.1817E+05 -1.1862E+03   1.1935E+05  0.000E+00  0.000E+00  0.000E+00  4.26945E+01  1.604E-01  2.000E+01  2.000E+04 -5.931E-02
   1   14   14     1    14    1.1935E+05 -1.2392E+03   1.2059E+05  0.000E+00  0.000E+00  0.000E+00  4.22182E+01  1.614E-01  2.000E+01  2.000E+04 -6.196E-02
   1   13   15     1    15    1.2059E+05 -1.5514E+03   1.2214E+05  0.000E+00  0.000E+00  0.000E+00  4.17420E+01  1.625E-01  2.000E+01  2.000E+04 -7.757E-02
   1   12   16     1    16    1.2214E+05 -2.7781E+03   1.2492E+05  0.000E+00  0.000E+00  0.000E+00  4.12665E+01  1.642E-01  2.000E+01  2.000E+04 -1.389E-01
   1   12   17     1    17    1.2492E+05 -1.2009E+03   1.2612E+05  0.000E+00  0.000E+00  0.000E+00  4.07908E+01  1.658E-01  2.000E+01  2.000E+04 -6.004E-02
   1   12   18     1    18    1.2612E+05 -8.8708E+02   1.2701E+05  0.000E+00  0.000E+00  0.000E+00  4.03143E+01  1.666E-01  2.000E+01  2.000E+04 -4.435E-02
   1   12   19     1    19    1.2701E+05 -1.3586E+03   1.2837E+05  0.000E+00  0.000E+00  0.000E+00  3.98380E+01  1.675E-01  2.000E+01  2.000E+04 -6.793E-02
   1   13   20     1    20    1.2837E+05  3.0134E+02   1.2807E+05  0.000E+00  0.000E+00  0.000E+00  3.93611E+01  1.679E-01  2.000E+01  2.000E+04  1.507E-02
   1   14   21     1    21    1.2807E+05  6.4656E+02   1.2742E+05  0.000E+00  0.000E+00  0.000E+00  3.88835E+01  1.675E-01  2.000E+01  2.000E+04  3.233E-02
   1   14   22     1    22    1.2742E+05  5.1720E+03   1.2225E+05  0.000E+00  0.000E+00  0.000E+00  3.84039E+01  1.652E-01  2.000E+01  2.000E+04  2.586E-01
   1    9   30     2     1    5.0000E+04  9.3556E+01   4.9906E+04  0.000E+00  0.000E+00  0.000E+00  4.02408E+01  1.158E-01  2.000E+01  2.000E+04  4.678E-03
   1    9   29     2     2    4.9906E+04  2.6621E+02   4.9640E+04  0.000E+00  0.000E+00  0.000E+00  3.99906E+01  1.156E-01  2.000E+01  2.000E+04  1.331E-02
   1    9   28     2     3    4.9640E+04  1.4921E+03   4.8148E+04  0.000E+00  0.000E+00  0.000E+00  3.97393E+01  1.143E-01  2.000E+01  2.000E+04  7.460E-02
   1    9   27     2     4    4.8148E+04 -7.2774E+02   4.8876E+04  0.000E+00  0.000E+00  0.000E+00  3.94888E+01  1.138E-01  2.000E+01  2.000E+04 -3.639E-02
   1   10   26     2     5    4.8876E+04 -9.6841E+02   4.9844E+04  0.000E+00  0.000E+00  0.000E+00  3.92400E+01  1.150E-01  2.000E+01  2.000E+04 -4.842E-02
   1   11   25     2     6    4.9844E+04 -1.0087E+03   5.0853E+04  0.000E+00  0.000E+00  0.000E+00  3.89913E+01  1.163E-01  2.000E+01  2.000E+04 -5.044E-02
   1   12   24     2     7    5.0853E+04 -1.2001E+03   5.2053E+04  0.000E+00  0.000E+00  0.000E+00  3.87429E+01  1.179E-01  2.000E+01  2.000E+04 -6.000E-02
   1   13   23     2     8    5.2053E+04 -2.2359E+02   5.2277E+04  0.000E+00  0.000E+00  0.000E+00  3.84938E+01  1.188E-01  2.000E+01  2.000E+04 -1.118E-02
   1   14   22     2     9    5.2277E+04  1.9478E+03   5.0329E+04  0.000E+00  0.000E+00  0.000E+00  3.82427E+01  1.177E-01  2.000E+01  2.000E+04  9.739E-02
   1   14   22     3     1    1.7258E+05 -8.4154E+03   1.8099E+05  0.000E+00  0.000E+00  0.000E+00  3.77245E+01  1.690E-01  2.000E+01  2.000E+04 -4.208E-01
   1   15   23     3     2    1.8099E+05 -3.8298E+02   1.8138E+05  0.000E+00  0.000E+00  0.000E+00  3.68381E+01  1.715E-01  2.000E+01  2.000E+04 -1.915E-02
   1   15   24     3     3    1.8138E+05 -2.9554E+02   1.8167E+05  0.000E+00  0.000E+00  0.000E+00  3.59494E+01  1.717E-01  2.000E+01  2.000E+04 -1.478E-02
   1   15   25     3     4    1.8167E+05 -3.0709E+02   1.8198E+05  0.000E+00  0.000E+00  0.000E+00  3.50607E+01  1.718E-01  2.000E+01  2.000E+04 -1.535E-02
   1   15   26     3     5    1.8198E+05 -3.6602E+02   1.8234E+05  0.000E+00  0.000E+00  0.000E+00  3.41720E+01  1.720E-01  2.000E+01  2.000E+04 -1.830E-02
   1   16   27     3     6    1.8234E+05 -4.1301E+02   1.8276E+05  0.000E+00  0.000E+00  0.000E+00  3.32833E+01  1.722E-01  2.000E+01  2.000E+04 -2.065E-02
   1   17   28     3     7    1.8276E+05 -1.7078E+03   1.8447E+05  0.000E+00  0.000E+00  0.000E+00  3.23951E+01  1.728E-01  2.000E+01  2.000E+04 -8.539E-02
   1   18   29     3     8    1.8447E+05 -3.1628E+03   1.8763E+05  0.000E+00  0.000E+00  0.000E+00  3.15075E+01  1.742E-01  2.000E+01  2.000E+04 -1.581E-01
   1   18   30     3     9    1.8763E+05 -3.3472E+03   1.9098E+05  0.000E+00  0.000E+00  0.000E+00  3.06205E+01  1.760E-01  2.000E+01  2.000E+04 -1.674E-01



1
              HEAD IN LAYER   1 AT END OF TIME STEP   1 IN STRESS PERIOD    4
  ---------------------------------------------------------------------------

          1      2      3      4      5      6      7      8      9     10
         11     12     13     14     15     16     17     18     19     20
         21     22     23     24     25     26     27     28     29     30
 .........................................................................
   1  ****** ****** ****** ****** ****** ****** ****** ****** ****** ******
      ****** ****** ****** ****** ****** ****** ****** ****** ****** ******
      ****** ****** ****** ****** ****** ****** ****** ****** ****** ******
   2  ****** ****** ****** ****** ****** ****** ****** ****** ****** ******
      ****** ****** ****** ****** ****** ****** ****** ****** ****** ******
      ****** ****** ****** ****** ****** ****** ****** ****** ****** ******
   3  ****** ****** ****** ****** ****** ****** ****** ****** ****** ******
      ****** ****** ****** ****** ****** ****** ****** ****** ****** ******
      ****** ****** ****** ****** ****** ****** ****** ****** ****** ******
   4  ****** ****** ****** ****** ****** ****** ****** ****** ****** ******
      ****** ****** ****** ****** ****** ****** ****** ****** ****** ******
      ****** ****** ****** ****** ****** ****** ****** ****** ****** ******
   5  ****** ****** ****** ****** ****** ****** ****** ****** ****** ******
      ****** ****** ****** ****** ****** ****** ****** ****** ****** ******
      ****** ****** ****** ****** ****** ****** ****** ****** ****** ******
   6  ****** ****** ****** ****** ****** ****** ****** ****** ****** ******
      ****** ****** ****** ****** ****** ****** ****** ****** ****** ******
      ****** ****** ****** ****** ****** ****** ****** ****** ****** ******
   7  ****** ****** ****** ****** ****** ****** ****** ****** ****** ******
      ****** ****** ****** ****** ****** ****** ****** ****** ****** ******
      ****** ****** ****** ****** ****** ****** ****** ****** ****** ******
   8  ****** ****** ****** ****** ****** ****** ****** ****** ****** ******
      ****** ****** ****** ****** ****** ****** ****** ****** ****** ******
      ****** ****** ****** ****** ****** ****** ****** ****** ****** ******
   9  ****** ****** ****** ****** ****** ****** ****** ****** ****** ******
      ****** ****** ****** ****** ****** ****** ****** ****** ****** ******
      ****** ****** ****** ****** ****** ****** ****** ****** ****** ******
  10  ****** ****** ****** ****** ****** ****** ****** ****** ****** ******
      ****** ****** ****** ****** ****** ****** ****** ****** ****** ******
      ****** ****** ****** ****** ****** ****** ****** ****** ****** ******
  11  ****** ****** ****** ****** ****** ****** ****** ****** ****** ******
      ****** ****** ****** ****** ****** ****** ****** ****** ****** ******
      ****** ****** ****** ****** ****** ****** ****** ****** ****** ******
  12  ****** ****** ****** ****** ****** ****** ****** ****** ****** ******
      ****** ****** ****** ****** ****** ****** ****** ****** ****** ******
      ****** ****** ****** ****** ****** ****** ****** ****** ****** ******
  13  ****** ****** ****** ****** ****** ****** ****** ****** ****** ******
      ****** ****** ****** ****** ****** ****** ****** ****** ****** ******
      ****** ****** ****** ****** ****** ****** ****** ****** ****** ******
  14  ****** ****** ****** ****** ****** ****** ****** ****** ****** ******
      ****** ****** ****** ****** ****** ****** ****** ****** ****** ******
      ****** ****** ****** ****** ****** ****** ****** ****** ****** ******
  15  ****** ****** ****** ****** ****** ****** ****** ****** ****** ******
      ****** ****** ****** ****** ****** ****** ****** ****** ****** ******
      ****** ****** ****** ****** ****** ****** ****** ****** ****** ******
  16  ****** ****** ****** ****** ****** ****** ****** ****** ****** ******
      ****** ****** ****** ****** ****** ****** ****** ****** ****** ******
      ****** ****** ****** ****** ****** ****** ****** ****** ****** ******
  17  ****** ****** ****** ****** ****** ****** ****** ****** ****** ******
      ****** ****** ****** ****** ****** ****** ****** ****** ****** ******
      ****** ****** ****** ****** ****** ****** ****** ****** ****** ******
  18  ****** ****** ****** ****** ****** ****** ****** ****** ****** ******
      ****** ****** ****** ****** ****** ****** ****** ****** ****** ******
      ****** ****** ****** ****** ****** ****** ****** ****** ****** ******
  19  ****** ****** ****** ****** ****** ****** ****** ****** ****** ******
      ****** ****** ****** ****** ****** ****** ****** ****** ****** ******
      ****** ****** ****** ****** ****** ****** ****** ****** ****** ******
  20  ****** ****** ****** ****** ****** ****** ****** ****** ****** ******
      ****** ****** ****** ****** ****** ****** ****** ****** ****** ******
      ****** ****** ****** ****** ****** ****** ****** ****** ****** ******
  21  ****** ****** ****** ****** ****** ****** ****** ****** ****** ******
      ****** ****** ****** ****** ****** ****** ****** ****** ****** ******
      ****** ****** ****** ****** ****** ****** ****** ****** ****** ******
  22  ****** ****** ****** ****** ****** ****** ****** ****** ****** ******
      ****** ****** ****** ****** ****** ****** ****** ****** ****** ******
      ****** ****** ****** ****** ****** ****** ****** ****** ****** ******
  23  ****** ****** ****** ****** ****** ****** ****** ****** ****** ******
      ****** ****** ****** ****** ****** ****** ****** ****** ****** ******
      ****** ****** ****** ****** ****** ****** ****** ****** ****** ******
  24  ****** ****** ****** ****** ****** ****** ****** ****** ****** ******
      ****** ****** ****** ****** ****** ****** ****** ****** ****** ******
      ****** ****** ****** ****** ****** ****** ****** ****** ****** ******
  25  ****** ****** ****** ****** ****** ****** ****** ****** ****** ******
      ****** ****** ****** ****** ****** ****** ****** ****** ****** ******
      ****** ****** ****** ****** ****** ****** ****** ****** ****** ******

 HEAD WILL BE SAVED ON UNIT   51 AT END OF TIME STEP    1, STRESS PERIOD    4
1
  VOLUMETRIC BUDGET FOR ENTIRE MODEL AT END OF TIME STEP    1, STRESS PERIOD   4
  ------------------------------------------------------------------------------

     CUMULATIVE VOLUMES      L**3       RATES FOR THIS TIME STEP      L**3/T
     ------------------                 ------------------------

           IN:                                      IN:
           ---                                      ---
             STORAGE =    29343169.0281               STORAGE =       18478.5257
       CONSTANT HEAD =     7647056.6787         CONSTANT HEAD =       28380.4485
               WELLS =           0.0000                 WELLS =           0.0000
            RECHARGE =     8804400.0000              RECHARGE =       27600.0000
      STREAM LEAKAGE =     2676128.5061        STREAM LEAKAGE =        9919.5201

            TOTAL IN =    48470754.2130              TOTAL IN =       84378.4944

          OUT:                                     OUT:
          ----                                     ----
             STORAGE =        1156.1717               STORAGE =          12.7052
       CONSTANT HEAD =           0.0000         CONSTANT HEAD =           0.0000
               WELLS =    12216823.5694                 WELLS =       33470.7495
            RECHARGE =           0.0000              RECHARGE =           0.0000
      STREAM LEAKAGE =    36252776.4808        STREAM LEAKAGE =       50895.0405

           TOTAL OUT =    48470756.2219             TOTAL OUT =       84378.4952

            IN - OUT =          -2.0090              IN - OUT =      -7.9041E-04

 PERCENT DISCREPANCY =          -0.00     PERCENT DISCREPANCY =          -0.00






         TIME SUMMARY AT END OF TIME STEP    1 IN STRESS PERIOD    4
                    SECONDS     MINUTES      HOURS       DAYS        YEARS
                    -----------------------------------------------------------
   TIME STEP LENGTH 7.86240E+06 1.31040E+05  2184.0      91.000     0.24914    
 STRESS PERIOD TIME 7.86240E+06 1.31040E+05  2184.0      91.000     0.24914    
         TOTAL TIME 3.15360E+07 5.25600E+05  8760.0      365.00     0.99932    
1
1
                            STRESS PERIOD NO.    5, LENGTH =   92.00000    
                            -----------------------------------------------

                              NUMBER OF TIME STEPS =     1

                               MULTIPLIER FOR DELT =     1.500

                            INITIAL TIME STEP SIZE =   92.00000    

 WELL NO.  LAYER   ROW   COL   STRESS RATE         
 --------------------------------------------------
      1      1     14      6       0.000    
      2      1      3      9       0.000    
      3      1     20     10       0.000    
      4      1     14     20       0.000    
      5      1      6     22      -8915.    
      6      1     16     17      -8329.    
      7      1      8     28      -7077.    
      8      1     15     19      -9150.    

      8 WELLS

                 RECHARGE =  5.000000E-04

 REUSING STREAM SEGMENT DATA FROM LAST STRESS PERIOD
 
 SOLVING FOR HEAD 


     7 CALLS TO PCG ROUTINE FOR TIME STEP   1 IN STRESS PERIOD    5
    26 TOTAL ITERATIONS

 OUTPUT CONTROL FOR STRESS PERIOD    5   TIME STEP    1
    SAVE BUDGET
    SAVE HEAD FOR ALL LAYERS
    PRINT HEAD FOR ALL LAYERS
 UBDSV2 SAVING "STREAMFLOW OUT  " ON UNIT  50 AT TIME STEP  1, STRESS PERIOD   5



 STREAM LISTING     PERIOD      5   STEP        1

 LAYER ROW COL. STREAM  RCH.  FLOW INTO     FLOW TO   FLOW OUT OF   OVRLND.     DIRECT     STREAM       STREAM     STREAM     STREAM   STREAMBED  STREAMBED
                SEG.NO.  NO.  STRM. RCH.    AQUIFER    STRM. RCH.    RUNOFF     PRECIP       ET          HEAD       DEPTH      WIDTH   CONDCTNC.   GRADIENT

   1   13    1     1     1    1.0000E+05 -2.1149E+03   1.0211E+05  0.000E+00  0.000E+00  0.000E+00  4.84069E+01  1.456E-01  2.000E+01  2.000E+04 -1.057E-01
   1   13    2     1     2    1.0211E+05 -3.1339E+03   1.0525E+05  0.000E+00  0.000E+00  0.000E+00  4.79319E+01  1.478E-01  2.000E+01  2.000E+04 -1.567E-01
   1   14    3     1     3    1.0525E+05 -5.0396E+02   1.0575E+05  0.000E+00  0.000E+00  0.000E+00  4.74562E+01  1.494E-01  2.000E+01  2.000E+04 -2.520E-02
   1   15    4     1     4    1.0575E+05 -4.6815E+02   1.0622E+05  0.000E+00  0.000E+00  0.000E+00  4.69793E+01  1.498E-01  2.000E+01  2.000E+04 -2.341E-02
   1   16    5     1     5    1.0622E+05 -1.6703E+03   1.0789E+05  0.000E+00  0.000E+00  0.000E+00  4.65030E+01  1.507E-01  2.000E+01  2.000E+04 -8.351E-02
   1   16    6     1     6    1.0789E+05 -1.0614E+03   1.0895E+05  0.000E+00  0.000E+00  0.000E+00  4.60268E+01  1.518E-01  2.000E+01  2.000E+04 -5.307E-02
   1   16    7     1     7    1.0895E+05 -1.0352E+03   1.0999E+05  0.000E+00  0.000E+00  0.000E+00  4.55504E+01  1.527E-01  2.000E+01  2.000E+04 -5.176E-02
   1   16    8     1     8    1.0999E+05 -1.0127E+03   1.1100E+05  0.000E+00  0.000E+00  0.000E+00  4.50740E+01  1.536E-01  2.000E+01  2.000E+04 -5.064E-02
   1   16    9     1     9    1.1100E+05 -9.7260E+02   1.1197E+05  0.000E+00  0.000E+00  0.000E+00  4.45976E+01  1.544E-01  2.000E+01  2.000E+04 -4.863E-02
   1   16   10     1    10    1.1197E+05 -9.0802E+02   1.1288E+05  0.000E+00  0.000E+00  0.000E+00  4.41211E+01  1.552E-01  2.000E+01  2.000E+04 -4.540E-02
   1   16   11     1    11    1.1288E+05 -8.1698E+02   1.1370E+05  0.000E+00  0.000E+00  0.000E+00  4.36445E+01  1.559E-01  2.000E+01  2.000E+04 -4.085E-02
   1   16   12     1    12    1.1370E+05 -1.0350E+03   1.1473E+05  0.000E+00  0.000E+00  0.000E+00  4.31680E+01  1.567E-01  2.000E+01  2.000E+04 -5.175E-02
   1   15   13     1    13    1.1473E+05 -7.4162E+02   1.1547E+05  0.000E+00  0.000E+00  0.000E+00  4.26915E+01  1.574E-01  2.000E+01  2.000E+04 -3.708E-02
   1   14   14     1    14    1.1547E+05 -7.6843E+02   1.1624E+05  0.000E+00  0.000E+00  0.000E+00  4.22148E+01  1.580E-01  2.000E+01  2.000E+04 -3.842E-02
   1   13   15     1    15    1.1624E+05 -1.0644E+03   1.1731E+05  0.000E+00  0.000E+00  0.000E+00  4.17383E+01  1.588E-01  2.000E+01  2.000E+04 -5.322E-02
   1   12   16     1    16    1.1731E+05 -2.2457E+03   1.1955E+05  0.000E+00  0.000E+00  0.000E+00  4.12624E+01  1.601E-01  2.000E+01  2.000E+04 -1.123E-01
   1   12   17     1    17    1.1955E+05 -8.4059E+02   1.2039E+05  0.000E+00  0.000E+00  0.000E+00  4.07864E+01  1.614E-01  2.000E+01  2.000E+04 -4.203E-02
   1   12   18     1    18    1.2039E+05 -5.4277E+02   1.2094E+05  0.000E+00  0.000E+00  0.000E+00  4.03096E+01  1.619E-01  2.000E+01  2.000E+04 -2.714E-02
   1   12   19     1    19    1.2094E+05 -9.3984E+02   1.2188E+05  0.000E+00  0.000E+00  0.000E+00  3.98330E+01  1.625E-01  2.000E+01  2.000E+04 -4.699E-02
   1   13   20     1    20    1.2188E+05  6.6777E+02   1.2121E+05  0.000E+00  0.000E+00  0.000E+00  3.93558E+01  1.626E-01  2.000E+01  2.000E+04  3.339E-02
   1   14   21     1    21    1.2121E+05  1.0399E+03   1.2017E+05  0.000E+00  0.000E+00  0.000E+00  3.88778E+01  1.619E-01  2.000E+01  2.000E+04  5.199E-02
   1   14   22     1    22    1.2017E+05  5.2552E+03   1.1491E+05  0.000E+00  0.000E+00  0.000E+00  3.83980E+01  1.594E-01  2.000E+01  2.000E+04  2.628E-01
   1    9   30     2     1    5.0000E+04  3.3432E+02   4.9666E+04  0.000E+00  0.000E+00  0.000E+00  4.02406E+01  1.156E-01  2.000E+01  2.000E+04  1.672E-02
   1    9   29     2     2    4.9666E+04  5.1079E+02   4.9155E+04  0.000E+00  0.000E+00  0.000E+00  3.99900E+01  1.150E-01  2.000E+01  2.000E+04  2.554E-02
   1    9   28     2     3    4.9155E+04  1.7494E+03   4.7406E+04  0.000E+00  0.000E+00  0.000E+00  3.97385E+01  1.135E-01  2.000E+01  2.000E+04  8.747E-02
   1    9   27     2     4    4.7406E+04 -3.2074E+02   4.7726E+04  0.000E+00  0.000E+00  0.000E+00  3.94874E+01  1.124E-01  2.000E+01  2.000E+04 -1.604E-02
   1   10   26     2     5    4.7726E+04 -6.1704E+02   4.8343E+04  0.000E+00  0.000E+00  0.000E+00  3.92381E+01  1.131E-01  2.000E+01  2.000E+04 -3.085E-02
   1   11   25     2     6    4.8343E+04 -6.8788E+02   4.9031E+04  0.000E+00  0.000E+00  0.000E+00  3.89890E+01  1.140E-01  2.000E+01  2.000E+04 -3.439E-02
   1   12   24     2     7    4.9031E+04 -9.0747E+02   4.9939E+04  0.000E+00  0.000E+00  0.000E+00  3.87401E+01  1.151E-01  2.000E+01  2.000E+04 -4.537E-02
   1   13   23     2     8    4.9939E+04 -1.5394E+02   5.0093E+04  0.000E+00  0.000E+00  0.000E+00  3.84909E+01  1.159E-01  2.000E+01  2.000E+04 -7.697E-03
   1   14   22     2     9    5.0093E+04  2.0857E+03   4.8007E+04  0.000E+00  0.000E+00  0.000E+00  3.82395E+01  1.145E-01  2.000E+01  2.000E+04  1.043E-01
   1   14   22     3     1    1.6292E+05 -8.3274E+03   1.7125E+05  0.000E+00  0.000E+00  0.000E+00  3.77189E+01  1.633E-01  2.000E+01  2.000E+04 -4.164E-01
   1   15   23     3     2    1.7125E+05 -2.8069E+02   1.7153E+05  0.000E+00  0.000E+00  0.000E+00  3.68325E+01  1.658E-01  2.000E+01  2.000E+04 -1.403E-02
   1   15   24     3     3    1.7153E+05 -2.2143E+02   1.7175E+05  0.000E+00  0.000E+00  0.000E+00  3.59438E+01  1.660E-01  2.000E+01  2.000E+04 -1.107E-02
   1   15   25     3     4    1.7175E+05 -2.3399E+02   1.7198E+05  0.000E+00  0.000E+00  0.000E+00  3.50550E+01  1.661E-01  2.000E+01  2.000E+04 -1.170E-02
   1   15   26     3     5    1.7198E+05 -2.9279E+02   1.7228E+05  0.000E+00  0.000E+00  0.000E+00  3.41663E+01  1.663E-01  2.000E+01  2.000E+04 -1.464E-02
   1   16   27     3     6    1.7228E+05 -3.2048E+02   1.7260E+05  0.000E+00  0.000E+00  0.000E+00  3.32776E+01  1.664E-01  2.000E+01  2.000E+04 -1.602E-02
   1   17   28     3     7    1.7260E+05 -1.4329E+03   1.7403E+05  0.000E+00  0.000E+00  0.000E+00  3.23892E+01  1.670E-01  2.000E+01  2.000E+04 -7.165E-02
   1   18   29     3     8    1.7403E+05 -2.7739E+03   1.7680E+05  0.000E+00  0.000E+00  0.000E+00  3.15015E+01  1.682E-01  2.000E+01  2.000E+04 -1.387E-01
   1   18   30     3     9    1.7680E+05 -3.0808E+03   1.7988E+05  0.000E+00  0.000E+00  0.000E+00  3.06143E+01  1.698E-01  2.000E+01  2.000E+04 -1.540E-01



1
              HEAD IN LAYER   1 AT END OF TIME STEP   1 IN STRESS PERIOD    5
  ---------------------------------------------------------------------------

          1      2      3      4      5      6      7      8      9     10
         11     12     13     14     15     16     17     18     19     20
         21     22     23     24     25     26     27     28     29     30
 .........................................................................
   1  ****** ****** ****** ****** ****** ****** ****** ****** ****** ******
      ****** ****** ****** ****** ****** ****** ****** ****** ****** ******
      ****** ****** ****** ****** ****** ****** ****** ****** ****** ******
   2  ****** ****** ****** ****** ****** ****** ****** ****** ****** ******
      ****** ****** ****** ****** ****** ****** ****** ****** ****** ******
      ****** ****** ****** ****** ****** ****** ****** ****** ****** ******
   3  ****** ****** ****** ****** ****** ****** ****** ****** ****** ******
      ****** ****** ****** ****** ****** ****** ****** ****** ****** ******
      ****** ****** ****** ****** ****** ****** ****** ****** ****** ******
   4  ****** ****** ****** ****** ****** ****** ****** ****** ****** ******
      ****** ****** ****** ****** ****** ****** ****** ****** ****** ******
      ****** ****** ****** ****** ****** ****** ****** ****** ****** ******
   5  ****** ****** ****** ****** ****** ****** ****** ****** ****** ******
      ****** ****** ****** ****** ****** ****** ****** ****** ****** ******
      ****** ****** ****** ****** ****** ****** ****** ****** ****** ******
   6  ****** ****** ****** ****** ****** ****** ****** ****** ****** ******
      ****** ****** ****** ****** ****** ****** ****** ****** ****** ******
      ****** ****** ****** ****** ****** ****** ****** ****** ****** ******
   7  ****** ****** ****** ****** ****** ****** ****** ****** ****** ******
      ****** ****** ****** ****** ****** ****** ****** ****** ****** ******
      ****** ****** ****** ****** ****** ****** ****** ****** ****** ******
   8  ****** ****** ****** ****** ****** ****** ****** ****** ****** ******
      ****** ****** ****** ****** ****** ****** ****** ****** ****** ******
      ****** ****** ****** ****** ****** ****** ****** ****** ****** ******
   9  ****** ****** ****** ****** ****** ****** ****** ****** ****** ******
      ****** ****** ****** ****** ****** ****** ****** ****** ****** ******
      ****** ****** ****** ****** ****** ****** ****** ****** ****** ******
  10  ****** ****** ****** ****** ****** ****** ****** ****** ****** ******
      ****** ****** ****** ****** ****** ****** ****** ****** ****** ******
      ****** ****** ****** ****** ****** ****** ****** ****** ****** ******
  11  ****** ****** ****** ****** ****** ****** ****** ****** ****** ******
      ****** ****** ****** ****** ****** ****** ****** ****** ****** ******
      ****** ****** ****** ****** ****** ****** ****** ****** ****** ******
  12  ****** ****** ****** ****** ****** ****** ****** ****** ****** ******
      ****** ****** ****** ****** ****** ****** ****** ****** ****** ******
      ****** ****** ****** ****** ****** ****** ****** ****** ****** ******
  13  ****** ****** ****** ****** ****** ****** ****** ****** ****** ******
      ****** ****** ****** ****** ****** ****** ****** ****** ****** ******
      ****** ****** ****** ****** ****** ****** ****** ****** ****** ******
  14  ****** ****** ****** ****** ****** ****** ****** ****** ****** ******
      ****** ****** ****** ****** ****** ****** ****** ****** ****** ******
      ****** ****** ****** ****** ****** ****** ****** ****** ****** ******
  15  ****** ****** ****** ****** ****** ****** ****** ****** ****** ******
      ****** ****** ****** ****** ****** ****** ****** ****** ****** ******
      ****** ****** ****** ****** ****** ****** ****** ****** ****** ******
  16  ****** ****** ****** ****** ****** ****** ****** ****** ****** ******
      ****** ****** ****** ****** ****** ****** ****** ****** ****** ******
      ****** ****** ****** ****** ****** ****** ****** ****** ****** ******
  17  ****** ****** ****** ****** ****** ****** ****** ****** ****** ******
      ****** ****** ****** ****** ****** ****** ****** ****** ****** ******
      ****** ****** ****** ****** ****** ****** ****** ****** ****** ******
  18  ****** ****** ****** ****** ****** ****** ****** ****** ****** ******
      ****** ****** ****** ****** ****** ****** ****** ****** ****** ******
      ****** ****** ****** ****** ****** ****** ****** ****** ****** ******
  19  ****** ****** ****** ****** ****** ****** ****** ****** ****** ******
      ****** ****** ****** ****** ****** ****** ****** ****** ****** ******
      ****** ****** ****** ****** ****** ****** ****** ****** ****** ******
  20  ****** ****** ****** ****** ****** ****** ****** ****** ****** ******
      ****** ****** ****** ****** ****** ****** ****** ****** ****** ******
      ****** ****** ****** ****** ****** ****** ****** ****** ****** ******
  21  ****** ****** ****** ****** ****** ****** ****** ****** ****** ******
      ****** ****** ****** ****** ****** ****** ****** ****** ****** ******
      ****** ****** ****** ****** ****** ****** ****** ****** ****** ******
  22  ****** ****** ****** ****** ****** ****** ****** ****** ****** ******
      ****** ****** ****** ****** ****** ****** ****** ****** ****** ******
      ****** ****** ****** ****** ****** ****** ****** ****** ****** ******
  23  ****** ****** ****** ****** ****** ****** ****** ****** ****** ******
      ****** ****** ****** ****** ****** ****** ****** ****** ****** ******
      ****** ****** ****** ****** ****** ****** ****** ****** ****** ******
  24  ****** ****** ****** ****** ****** ****** ****** ****** ****** ******
      ****** ****** ****** ****** ****** ****** ****** ****** ****** ******
      ****** ****** ****** ****** ****** ****** ****** ****** ****** ******
  25  ****** ****** ****** ****** ****** ****** ****** ****** ****** ******
      ****** ****** ****** ****** ****** ****** ****** ****** ****** ******
      ****** ****** ****** ****** ****** ****** ****** ****** ****** ******

 HEAD WILL BE SAVED ON UNIT   51 AT END OF TIME STEP    1, STRESS PERIOD    5
1
  VOLUMETRIC BUDGET FOR ENTIRE MODEL AT END OF TIME STEP    1, STRESS PERIOD   5
  ------------------------------------------------------------------------------

     CUMULATIVE VOLUMES      L**3       RATES FOR THIS TIME STEP      L**3/T
     ------------------                 ------------------------

           IN:                                      IN:
           ---                                      ---
             STORAGE =    31021438.4177               STORAGE =       18242.0586
       CONSTANT HEAD =    10527908.1335         CONSTANT HEAD =       31313.6028
               WELLS =           0.0000                 WELLS =           0.0000
            RECHARGE =    10074000.0000              RECHARGE =       13800.0000
      STREAM LEAKAGE =     3747287.1468        STREAM LEAKAGE =       11643.0287

            TOTAL IN =    55370633.6981              TOTAL IN =       74998.6901

          OUT:                                     OUT:
          ----                                     ----
             STORAGE =        1156.1717               STORAGE =           0.0000
       CONSTANT HEAD =           0.0000         CONSTANT HEAD =           0.0000
               WELLS =    15296132.5238                 WELLS =       33470.7495
            RECHARGE =           0.0000              RECHARGE =           0.0000
      STREAM LEAKAGE =    40073347.2975        STREAM LEAKAGE =       41527.9437

           TOTAL OUT =    55370635.9931             TOTAL OUT =       74998.6932

            IN - OUT =          -2.2951              IN - OUT =      -3.1099E-03

 PERCENT DISCREPANCY =          -0.00     PERCENT DISCREPANCY =          -0.00






         TIME SUMMARY AT END OF TIME STEP    1 IN STRESS PERIOD    5
                    SECONDS     MINUTES      HOURS       DAYS        YEARS
                    -----------------------------------------------------------
   TIME STEP LENGTH 7.94880E+06 1.32480E+05  2208.0      92.000     0.25188    
 STRESS PERIOD TIME 7.94880E+06 1.32480E+05  2208.0      92.000     0.25188    
         TOTAL TIME 3.94848E+07 6.58080E+05  10968.      457.00      1.2512    
1
1
                            STRESS PERIOD NO.    6, LENGTH =   91.00000    
                            -----------------------------------------------

                              NUMBER OF TIME STEPS =     1

                               MULTIPLIER FOR DELT =     1.500

                            INITIAL TIME STEP SIZE =   91.00000    

 WELL NO.  LAYER   ROW   COL   STRESS RATE         
 --------------------------------------------------
      1      1     14      6       0.000    
      2      1      3      9       0.000    
      3      1     20     10       0.000    
      4      1     14     20       0.000    
      5      1      6     22      -8915.    
      6      1     16     17      -8329.    
      7      1      8     28      -7077.    
      8      1     15     19      -9150.    

      8 WELLS

                 RECHARGE =  2.000000E-03

 REUSING STREAM SEGMENT DATA FROM LAST STRESS PERIOD
 
 SOLVING FOR HEAD 


     7 CALLS TO PCG ROUTINE FOR TIME STEP   1 IN STRESS PERIOD    6
    26 TOTAL ITERATIONS

 OUTPUT CONTROL FOR STRESS PERIOD    6   TIME STEP    1
    SAVE BUDGET
    SAVE HEAD FOR ALL LAYERS
    PRINT HEAD FOR ALL LAYERS
 UBDSV2 SAVING "STREAMFLOW OUT  " ON UNIT  50 AT TIME STEP  1, STRESS PERIOD   6



 STREAM LISTING     PERIOD      6   STEP        1

 LAYER ROW COL. STREAM  RCH.  FLOW INTO     FLOW TO   FLOW OUT OF   OVRLND.     DIRECT     STREAM       STREAM     STREAM     STREAM   STREAMBED  STREAMBED
                SEG.NO.  NO.  STRM. RCH.    AQUIFER    STRM. RCH.    RUNOFF     PRECIP       ET          HEAD       DEPTH      WIDTH   CONDCTNC.   GRADIENT

   1   13    1     1     1    1.0000E+05 -2.4332E+03   1.0243E+05  0.000E+00  0.000E+00  0.000E+00  4.84071E+01  1.457E-01  2.000E+01  2.000E+04 -1.217E-01
   1   13    2     1     2    1.0243E+05 -3.4827E+03   1.0592E+05  0.000E+00  0.000E+00  0.000E+00  4.79323E+01  1.482E-01  2.000E+01  2.000E+04 -1.741E-01
   1   14    3     1     3    1.0592E+05 -6.5938E+02   1.0658E+05  0.000E+00  0.000E+00  0.000E+00  4.74568E+01  1.500E-01  2.000E+01  2.000E+04 -3.297E-02
   1   15    4     1     4    1.0658E+05 -6.3481E+02   1.0721E+05  0.000E+00  0.000E+00  0.000E+00  4.69801E+01  1.506E-01  2.000E+01  2.000E+04 -3.174E-02
   1   16    5     1     5    1.0721E+05 -2.1651E+03   1.0938E+05  0.000E+00  0.000E+00  0.000E+00  4.65040E+01  1.517E-01  2.000E+01  2.000E+04 -1.083E-01
   1   16    6     1     6    1.0938E+05 -1.3520E+03   1.1073E+05  0.000E+00  0.000E+00  0.000E+00  4.60282E+01  1.532E-01  2.000E+01  2.000E+04 -6.760E-02
   1   16    7     1     7    1.1073E+05 -1.3105E+03   1.1204E+05  0.000E+00  0.000E+00  0.000E+00  4.55520E+01  1.543E-01  2.000E+01  2.000E+04 -6.553E-02
   1   16    8     1     8    1.1204E+05 -1.2833E+03   1.1332E+05  0.000E+00  0.000E+00  0.000E+00  4.50758E+01  1.554E-01  2.000E+01  2.000E+04 -6.416E-02
   1   16    9     1     9    1.1332E+05 -1.2424E+03   1.1456E+05  0.000E+00  0.000E+00  0.000E+00  4.45996E+01  1.564E-01  2.000E+01  2.000E+04 -6.212E-02
   1   16   10     1    10    1.1456E+05 -1.1791E+03   1.1574E+05  0.000E+00  0.000E+00  0.000E+00  4.41233E+01  1.574E-01  2.000E+01  2.000E+04 -5.895E-02
   1   16   11     1    11    1.1574E+05 -1.0907E+03   1.1683E+05  0.000E+00  0.000E+00  0.000E+00  4.36470E+01  1.584E-01  2.000E+01  2.000E+04 -5.454E-02
   1   16   12     1    12    1.1683E+05 -1.4762E+03   1.1831E+05  0.000E+00  0.000E+00  0.000E+00  4.31708E+01  1.594E-01  2.000E+01  2.000E+04 -7.381E-02
   1   15   13     1    13    1.1831E+05 -1.1945E+03   1.1950E+05  0.000E+00  0.000E+00  0.000E+00  4.26946E+01  1.605E-01  2.000E+01  2.000E+04 -5.972E-02
   1   14   14     1    14    1.1950E+05 -1.2172E+03   1.2072E+05  0.000E+00  0.000E+00  0.000E+00  4.22183E+01  1.615E-01  2.000E+01  2.000E+04 -6.086E-02
   1   13   15     1    15    1.2072E+05 -1.4943E+03   1.2222E+05  0.000E+00  0.000E+00  0.000E+00  4.17421E+01  1.626E-01  2.000E+01  2.000E+04 -7.471E-02
   1   12   16     1    16    1.2222E+05 -2.6299E+03   1.2485E+05  0.000E+00  0.000E+00  0.000E+00  4.12665E+01  1.642E-01  2.000E+01  2.000E+04 -1.315E-01
   1   12   17     1    17    1.2485E+05 -1.1525E+03   1.2600E+05  0.000E+00  0.000E+00  0.000E+00  4.07907E+01  1.657E-01  2.000E+01  2.000E+04 -5.763E-02
   1   12   18     1    18    1.2600E+05 -8.5791E+02   1.2686E+05  0.000E+00  0.000E+00  0.000E+00  4.03142E+01  1.665E-01  2.000E+01  2.000E+04 -4.290E-02
   1   12   19     1    19    1.2686E+05 -1.3309E+03   1.2819E+05  0.000E+00  0.000E+00  0.000E+00  3.98378E+01  1.674E-01  2.000E+01  2.000E+04 -6.655E-02
   1   13   20     1    20    1.2819E+05  2.4989E+02   1.2794E+05  0.000E+00  0.000E+00  0.000E+00  3.93610E+01  1.678E-01  2.000E+01  2.000E+04  1.249E-02
   1   14   21     1    21    1.2794E+05  6.3398E+02   1.2730E+05  0.000E+00  0.000E+00  0.000E+00  3.88834E+01  1.674E-01  2.000E+01  2.000E+04  3.170E-02
   1   14   22     1    22    1.2730E+05  5.1488E+03   1.2215E+05  0.000E+00  0.000E+00  0.000E+00  3.84038E+01  1.652E-01  2.000E+01  2.000E+04  2.574E-01
   1    9   30     2     1    5.0000E+04 -2.5861E+01   5.0026E+04  0.000E+00  0.000E+00  0.000E+00  4.02409E+01  1.159E-01  2.000E+01  2.000E+04 -1.293E-03
   1    9   29     2     2    5.0026E+04  1.5506E+02   4.9871E+04  0.000E+00  0.000E+00  0.000E+00  3.99908E+01  1.158E-01  2.000E+01  2.000E+04  7.753E-03
   1    9   28     2     3    4.9871E+04  1.4007E+03   4.8470E+04  0.000E+00  0.000E+00  0.000E+00  3.97397E+01  1.147E-01  2.000E+01  2.000E+04  7.003E-02
   1    9   27     2     4    4.8470E+04 -7.5993E+02   4.9230E+04  0.000E+00  0.000E+00  0.000E+00  3.94893E+01  1.143E-01  2.000E+01  2.000E+04 -3.800E-02
   1   10   26     2     5    4.9230E+04 -1.0828E+03   5.0313E+04  0.000E+00  0.000E+00  0.000E+00  3.92405E+01  1.155E-01  2.000E+01  2.000E+04 -5.414E-02
   1   11   25     2     6    5.0313E+04 -1.1400E+03   5.1453E+04  0.000E+00  0.000E+00  0.000E+00  3.89921E+01  1.171E-01  2.000E+01  2.000E+04 -5.700E-02
   1   12   24     2     7    5.1453E+04 -1.3152E+03   5.2768E+04  0.000E+00  0.000E+00  0.000E+00  3.87438E+01  1.188E-01  2.000E+01  2.000E+04 -6.576E-02
   1   13   23     2     8    5.2768E+04 -2.9149E+02   5.3060E+04  0.000E+00  0.000E+00  0.000E+00  3.84949E+01  1.199E-01  2.000E+01  2.000E+04 -1.457E-02
   1   14   22     2     9    5.3060E+04  1.9477E+03   5.1112E+04  0.000E+00  0.000E+00  0.000E+00  3.82437E+01  1.187E-01  2.000E+01  2.000E+04  9.739E-02
   1   14   22     3     1    1.7327E+05 -8.4290E+03   1.8169E+05  0.000E+00  0.000E+00  0.000E+00  3.77249E+01  1.694E-01  2.000E+01  2.000E+04 -4.214E-01
   1   15   23     3     2    1.8169E+05 -4.1656E+02   1.8211E+05  0.000E+00  0.000E+00  0.000E+00  3.68385E+01  1.719E-01  2.000E+01  2.000E+04 -2.083E-02
   1   15   24     3     3    1.8211E+05 -3.4262E+02   1.8245E+05  0.000E+00  0.000E+00  0.000E+00  3.59499E+01  1.721E-01  2.000E+01  2.000E+04 -1.713E-02
   1   15   25     3     4    1.8245E+05 -3.5980E+02   1.8281E+05  0.000E+00  0.000E+00  0.000E+00  3.50612E+01  1.723E-01  2.000E+01  2.000E+04 -1.799E-02
   1   15   26     3     5    1.8281E+05 -4.4380E+02   1.8326E+05  0.000E+00  0.000E+00  0.000E+00  3.41725E+01  1.725E-01  2.000E+01  2.000E+04 -2.219E-02
   1   16   27     3     6    1.8326E+05 -4.8852E+02   1.8375E+05  0.000E+00  0.000E+00  0.000E+00  3.32839E+01  1.728E-01  2.000E+01  2.000E+04 -2.443E-02
   1   17   28     3     7    1.8375E+05 -1.8936E+03   1.8564E+05  0.000E+00  0.000E+00  0.000E+00  3.23957E+01  1.734E-01  2.000E+01  2.000E+04 -9.468E-02
   1   18   29     3     8    1.8564E+05 -3.2092E+03   1.8885E+05  0.000E+00  0.000E+00  0.000E+00  3.15082E+01  1.749E-01  2.000E+01  2.000E+04 -1.605E-01
   1   18   30     3     9    1.8885E+05 -3.4345E+03   1.9228E+05  0.000E+00  0.000E+00  0.000E+00  3.06212E+01  1.767E-01  2.000E+01  2.000E+04 -1.717E-01



1
              HEAD IN LAYER   1 AT END OF TIME STEP   1 IN STRESS PERIOD    6
  ---------------------------------------------------------------------------

          1      2      3      4      5      6      7      8      9     10
         11     12     13     14     15     16     17     18     19     20
         21     22     23     24     25     26     27     28     29     30
 .........................................................................
   1  ****** ****** ****** ****** ****** ****** ****** ****** ****** ******
      ****** ****** ****** ****** ****** ****** ****** ****** ****** ******
      ****** ****** ****** ****** ****** ****** ****** ****** ****** ******
   2  ****** ****** ****** ****** ****** ****** ****** ****** ****** ******
      ****** ****** ****** ****** ****** ****** ****** ****** ****** ******
      ****** ****** ****** ****** ****** ****** ****** ****** ****** ******
   3  ****** ****** ****** ****** ****** ****** ****** ****** ****** ******
      ****** ****** ****** ****** ****** ****** ****** ****** ****** ******
      ****** ****** ****** ****** ****** ****** ****** ****** ****** ******
   4  ****** ****** ****** ****** ****** ****** ****** ****** ****** ******
      ****** ****** ****** ****** ****** ****** ****** ****** ****** ******
      ****** ****** ****** ****** ****** ****** ****** ****** ****** ******
   5  ****** ****** ****** ****** ****** ****** ****** ****** ****** ******
      ****** ****** ****** ****** ****** ****** ****** ****** ****** ******
      ****** ****** ****** ****** ****** ****** ****** ****** ****** ******
   6  ****** ****** ****** ****** ****** ****** ****** ****** ****** ******
      ****** ****** ****** ****** ****** ****** ****** ****** ****** ******
      ****** ****** ****** ****** ****** ****** ****** ****** ****** ******
   7  ****** ****** ****** ****** ****** ****** ****** ****** ****** ******
      ****** ****** ****** ****** ****** ****** ****** ****** ****** ******
      ****** ****** ****** ****** ****** ****** ****** ****** ****** ******
   8  ****** ****** ****** ****** ****** ****** ****** ****** ****** ******
      ****** ****** ****** ****** ****** ****** ****** ****** ****** ******
      ****** ****** ****** ****** ****** ****** ****** ****** ****** ******
   9  ****** ****** ****** ****** ****** ****** ****** ****** ****** ******
      ****** ****** ****** ****** ****** ****** ****** ****** ****** ******
      ****** ****** ****** ****** ****** ****** ****** ****** ****** ******
  10  ****** ****** ****** ****** ****** ****** ****** ****** ****** ******
      ****** ****** ****** ****** ****** ****** ****** ****** ****** ******
      ****** ****** ****** ****** ****** ****** ****** ****** ****** ******
  11  ****** ****** ****** ****** ****** ****** ****** ****** ****** ******
      ****** ****** ****** ****** ****** ****** ****** ****** ****** ******
      ****** ****** ****** ****** ****** ****** ****** ****** ****** ******
  12  ****** ****** ****** ****** ****** ****** ****** ****** ****** ******
      ****** ****** ****** ****** ****** ****** ****** ****** ****** ******
      ****** ****** ****** ****** ****** ****** ****** ****** ****** ******
  13  ****** ****** ****** ****** ****** ****** ****** ****** ****** ******
      ****** ****** ****** ****** ****** ****** ****** ****** ****** ******
      ****** ****** ****** ****** ****** ****** ****** ****** ****** ******
  14  ****** ****** ****** ****** ****** ****** ****** ****** ****** ******
      ****** ****** ****** ****** ****** ****** ****** ****** ****** ******
      ****** ****** ****** ****** ****** ****** ****** ****** ****** ******
  15  ****** ****** ****** ****** ****** ****** ****** ****** ****** ******
      ****** ****** ****** ****** ****** ****** ****** ****** ****** ******
      ****** ****** ****** ****** ****** ****** ****** ****** ****** ******
  16  ****** ****** ****** ****** ****** ****** ****** ****** ****** ******
      ****** ****** ****** ****** ****** ****** ****** ****** ****** ******
      ****** ****** ****** ****** ****** ****** ****** ****** ****** ******
  17  ****** ****** ****** ****** ****** ****** ****** ****** ****** ******
      ****** ****** ****** ****** ****** ****** ****** ****** ****** ******
      ****** ****** ****** ****** ****** ****** ****** ****** ****** ******
  18  ****** ****** ****** ****** ****** ****** ****** ****** ****** ******
      ****** ****** ****** ****** ****** ****** ****** ****** ****** ******
      ****** ****** ****** ****** ****** ****** ****** ****** ****** ******
  19  ****** ****** ****** ****** ****** ****** ****** ****** ****** ******
      ****** ****** ****** ****** ****** ****** ****** ****** ****** ******
      ****** ****** ****** ****** ****** ****** ****** ****** ****** ******
  20  ****** ****** ****** ****** ****** ****** ****** ****** ****** ******
      ****** ****** ****** ****** ****** ****** ****** ****** ****** ******
      ****** ****** ****** ****** ****** ****** ****** ****** ****** ******
  21  ****** ****** ****** ****** ****** ****** ****** ****** ****** ******
      ****** ****** ****** ****** ****** ****** ****** ****** ****** ******
      ****** ****** ****** ****** ****** ****** ****** ****** ****** ******
  22  ****** ****** ****** ****** ****** ****** ****** ****** ****** ******
      ****** ****** ****** ****** ****** ****** ****** ****** ****** ******
      ****** ****** ****** ****** ****** ****** ****** ****** ****** ******
  23  ****** ****** ****** ****** ****** ****** ****** ****** ****** ******
      ****** ****** ****** ****** ****** ****** ****** ****** ****** ******
      ****** ****** ****** ****** ****** ****** ****** ****** ****** ******
  24  ****** ****** ****** ****** ****** ****** ****** ****** ****** ******
      ****** ****** ****** ****** ****** ****** ****** ****** ****** ******
      ****** ****** ****** ****** ****** ****** ****** ****** ****** ******
  25  ****** ****** ****** ****** ****** ****** ****** ****** ****** ******
      ****** ****** ****** ****** ****** ****** ****** ****** ****** ******
      ****** ****** ****** ****** ****** ****** ****** ****** ****** ******

 HEAD WILL BE SAVED ON UNIT   51 AT END OF TIME STEP    1, STRESS PERIOD    6
1
  VOLUMETRIC BUDGET FOR ENTIRE MODEL AT END OF TIME STEP    1, STRESS PERIOD   6
  ------------------------------------------------------------------------------

     CUMULATIVE VOLUMES      L**3       RATES FOR THIS TIME STEP      L**3/T
     ------------------                 ------------------------

           IN:                                      IN:
           ---                                      ---
             STORAGE =    31021438.4177               STORAGE =           0.0000
       CONSTANT HEAD =    13204077.4277         CONSTANT HEAD =       29408.4538
               WELLS =           0.0000                 WELLS =           0.0000
            RECHARGE =    15097200.0000              RECHARGE =       55200.0000
      STREAM LEAKAGE =     4615076.2607        STREAM LEAKAGE =        9536.1441

            TOTAL IN =    63937792.1061              TOTAL IN =       94144.5979

          OUT:                                     OUT:
          ----                                     ----
             STORAGE =      806907.1748               STORAGE =        8854.4066
       CONSTANT HEAD =           0.0000         CONSTANT HEAD =           0.0000
               WELLS =    18341970.7288                 WELLS =       33470.7495
            RECHARGE =           0.0000              RECHARGE =           0.0000
      STREAM LEAKAGE =    44788916.2342        STREAM LEAKAGE =       51819.4389

           TOTAL OUT =    63937794.1378             TOTAL OUT =       94144.5950

            IN - OUT =          -2.0316              IN - OUT =       2.8951E-03

 PERCENT DISCREPANCY =          -0.00     PERCENT DISCREPANCY =           0.00






         TIME SUMMARY AT END OF TIME STEP    1 IN STRESS PERIOD    6
                    SECONDS     MINUTES      HOURS       DAYS        YEARS
                    -----------------------------------------------------------
   TIME STEP LENGTH 7.86240E+06 1.31040E+05  2184.0      91.000     0.24914    
 STRESS PERIOD TIME 7.86240E+06 1.31040E+05  2184.0      91.000     0.24914    
         TOTAL TIME 4.73472E+07 7.89120E+05  13152.      548.00      1.5003    
1
1
                            STRESS PERIOD NO.    7, LENGTH =   91.00000    
                            -----------------------------------------------

                              NUMBER OF TIME STEPS =     1

                               MULTIPLIER FOR DELT =     1.500

                            INITIAL TIME STEP SIZE =   91.00000    

 WELL NO.  LAYER   ROW   COL   STRESS RATE         
 --------------------------------------------------
      1      1     14      6       0.000    
      2      1      3      9       0.000    
      3      1     20     10       0.000    
      4      1     14     20       0.000    
      5      1      6     22      -8915.    
      6      1     16     17      -8329.    
      7      1      8     28      -7077.    
      8      1     15     19      -9150.    

      8 WELLS

                 RECHARGE =   0.00000    

 REUSING STREAM SEGMENT DATA FROM LAST STRESS PERIOD
 
 SOLVING FOR HEAD 


     7 CALLS TO PCG ROUTINE FOR TIME STEP   1 IN STRESS PERIOD    7
    26 TOTAL ITERATIONS

 OUTPUT CONTROL FOR STRESS PERIOD    7   TIME STEP    1
    SAVE BUDGET
    SAVE HEAD FOR ALL LAYERS
    PRINT HEAD FOR ALL LAYERS
 UBDSV2 SAVING "STREAMFLOW OUT  " ON UNIT  50 AT TIME STEP  1, STRESS PERIOD   7



 STREAM LISTING     PERIOD      7   STEP        1

 LAYER ROW COL. STREAM  RCH.  FLOW INTO     FLOW TO   FLOW OUT OF   OVRLND.     DIRECT     STREAM       STREAM     STREAM     STREAM   STREAMBED  STREAMBED
                SEG.NO.  NO.  STRM. RCH.    AQUIFER    STRM. RCH.    RUNOFF     PRECIP       ET          HEAD       DEPTH      WIDTH   CONDCTNC.   GRADIENT

   1   13    1     1     1    1.0000E+05 -1.7703E+03   1.0177E+05  0.000E+00  0.000E+00  0.000E+00  4.84068E+01  1.454E-01  2.000E+01  2.000E+04 -8.851E-02
   1   13    2     1     2    1.0177E+05 -2.7412E+03   1.0451E+05  0.000E+00  0.000E+00  0.000E+00  4.79315E+01  1.474E-01  2.000E+01  2.000E+04 -1.371E-01
   1   14    3     1     3    1.0451E+05 -4.0794E+02   1.0492E+05  0.000E+00  0.000E+00  0.000E+00  4.74555E+01  1.487E-01  2.000E+01  2.000E+04 -2.040E-02
   1   15    4     1     4    1.0492E+05 -3.7244E+02   1.0529E+05  0.000E+00  0.000E+00  0.000E+00  4.69786E+01  1.490E-01  2.000E+01  2.000E+04 -1.862E-02
   1   16    5     1     5    1.0529E+05 -1.4111E+03   1.0670E+05  0.000E+00  0.000E+00  0.000E+00  4.65021E+01  1.498E-01  2.000E+01  2.000E+04 -7.055E-02
   1   16    6     1     6    1.0670E+05 -8.9736E+02   1.0760E+05  0.000E+00  0.000E+00  0.000E+00  4.60258E+01  1.508E-01  2.000E+01  2.000E+04 -4.487E-02
   1   16    7     1     7    1.0760E+05 -8.7431E+02   1.0847E+05  0.000E+00  0.000E+00  0.000E+00  4.55492E+01  1.515E-01  2.000E+01  2.000E+04 -4.372E-02
   1   16    8     1     8    1.0847E+05 -8.5293E+02   1.0933E+05  0.000E+00  0.000E+00  0.000E+00  4.50727E+01  1.522E-01  2.000E+01  2.000E+04 -4.265E-02
   1   16    9     1     9    1.0933E+05 -8.1507E+02   1.1014E+05  0.000E+00  0.000E+00  0.000E+00  4.45961E+01  1.529E-01  2.000E+01  2.000E+04 -4.075E-02
   1   16   10     1    10    1.1014E+05 -7.5392E+02   1.1090E+05  0.000E+00  0.000E+00  0.000E+00  4.41195E+01  1.536E-01  2.000E+01  2.000E+04 -3.770E-02
   1   16   11     1    11    1.1090E+05 -6.6399E+02   1.1156E+05  0.000E+00  0.000E+00  0.000E+00  4.36428E+01  1.542E-01  2.000E+01  2.000E+04 -3.320E-02
   1   16   12     1    12    1.1156E+05 -7.5870E+02   1.1232E+05  0.000E+00  0.000E+00  0.000E+00  4.31661E+01  1.548E-01  2.000E+01  2.000E+04 -3.793E-02
   1   15   13     1    13    1.1232E+05 -4.2616E+02   1.1275E+05  0.000E+00  0.000E+00  0.000E+00  4.26894E+01  1.553E-01  2.000E+01  2.000E+04 -2.131E-02
   1   14   14     1    14    1.1275E+05 -4.2171E+02   1.1317E+05  0.000E+00  0.000E+00  0.000E+00  4.22124E+01  1.556E-01  2.000E+01  2.000E+04 -2.109E-02
   1   13   15     1    15    1.1317E+05 -6.9732E+02   1.1386E+05  0.000E+00  0.000E+00  0.000E+00  4.17356E+01  1.561E-01  2.000E+01  2.000E+04 -3.487E-02
   1   12   16     1    16    1.1386E+05 -1.8399E+03   1.1570E+05  0.000E+00  0.000E+00  0.000E+00  4.12594E+01  1.571E-01  2.000E+01  2.000E+04 -9.199E-02
   1   12   17     1    17    1.1570E+05 -5.7683E+02   1.1628E+05  0.000E+00  0.000E+00  0.000E+00  4.07831E+01  1.581E-01  2.000E+01  2.000E+04 -2.884E-02
   1   12   18     1    18    1.1628E+05 -2.9579E+02   1.1658E+05  0.000E+00  0.000E+00  0.000E+00  4.03062E+01  1.585E-01  2.000E+01  2.000E+04 -1.479E-02
   1   12   19     1    19    1.1658E+05 -6.4387E+02   1.1722E+05  0.000E+00  0.000E+00  0.000E+00  3.98293E+01  1.589E-01  2.000E+01  2.000E+04 -3.219E-02
   1   13   20     1    20    1.1722E+05  9.2031E+02   1.1630E+05  0.000E+00  0.000E+00  0.000E+00  3.93519E+01  1.587E-01  2.000E+01  2.000E+04  4.602E-02
   1   14   21     1    21    1.1630E+05  1.2968E+03   1.1500E+05  0.000E+00  0.000E+00  0.000E+00  3.88737E+01  1.578E-01  2.000E+01  2.000E+04  6.484E-02
   1   14   22     1    22    1.1500E+05  5.3083E+03   1.0970E+05  0.000E+00  0.000E+00  0.000E+00  3.83938E+01  1.551E-01  2.000E+01  2.000E+04  2.654E-01
   1    9   30     2     1    5.0000E+04  4.8908E+02   4.9511E+04  0.000E+00  0.000E+00  0.000E+00  4.02405E+01  1.155E-01  2.000E+01  2.000E+04  2.445E-02
   1    9   29     2     2    4.9511E+04  6.6825E+02   4.8843E+04  0.000E+00  0.000E+00  0.000E+00  3.99897E+01  1.147E-01  2.000E+01  2.000E+04  3.341E-02
   1    9   28     2     3    4.8843E+04  1.9153E+03   4.6927E+04  0.000E+00  0.000E+00  0.000E+00  3.97379E+01  1.129E-01  2.000E+01  2.000E+04  9.576E-02
   1    9   27     2     4    4.6927E+04 -6.0494E+01   4.6988E+04  0.000E+00  0.000E+00  0.000E+00  3.94866E+01  1.116E-01  2.000E+01  2.000E+04 -3.025E-03
   1   10   26     2     5    4.6988E+04 -3.8241E+02   4.7370E+04  0.000E+00  0.000E+00  0.000E+00  3.92369E+01  1.119E-01  2.000E+01  2.000E+04 -1.912E-02
   1   11   25     2     6    4.7370E+04 -4.6874E+02   4.7839E+04  0.000E+00  0.000E+00  0.000E+00  3.89875E+01  1.125E-01  2.000E+01  2.000E+04 -2.344E-02
   1   12   24     2     7    4.7839E+04 -7.0345E+02   4.8543E+04  0.000E+00  0.000E+00  0.000E+00  3.87383E+01  1.133E-01  2.000E+01  2.000E+04 -3.517E-02
   1   13   23     2     8    4.8543E+04 -9.9598E+01   4.8642E+04  0.000E+00  0.000E+00  0.000E+00  3.84889E+01  1.139E-01  2.000E+01  2.000E+04 -4.980E-03
   1   14   22     2     9    4.8642E+04  2.1817E+03   4.6460E+04  0.000E+00  0.000E+00  0.000E+00  3.82374E+01  1.124E-01  2.000E+01  2.000E+04  1.091E-01
   1   14   22     3     1    1.5616E+05 -8.2695E+03   1.6443E+05  0.000E+00  0.000E+00  0.000E+00  3.77149E+01  1.593E-01  2.000E+01  2.000E+04 -4.135E-01
   1   15   23     3     2    1.6443E+05 -2.0987E+02   1.6464E+05  0.000E+00  0.000E+00  0.000E+00  3.68285E+01  1.618E-01  2.000E+01  2.000E+04 -1.049E-02
   1   15   24     3     3    1.6464E+05 -1.6887E+02   1.6480E+05  0.000E+00  0.000E+00  0.000E+00  3.59397E+01  1.619E-01  2.000E+01  2.000E+04 -8.444E-03
   1   15   25     3     4    1.6480E+05 -1.8302E+02   1.6499E+05  0.000E+00  0.000E+00  0.000E+00  3.50509E+01  1.620E-01  2.000E+01  2.000E+04 -9.151E-03
   1   15   26     3     5    1.6499E+05 -2.4258E+02   1.6523E+05  0.000E+00  0.000E+00  0.000E+00  3.41622E+01  1.622E-01  2.000E+01  2.000E+04 -1.213E-02
   1   16   27     3     6    1.6523E+05 -2.5613E+02   1.6549E+05  0.000E+00  0.000E+00  0.000E+00  3.32734E+01  1.623E-01  2.000E+01  2.000E+04 -1.281E-02
   1   17   28     3     7    1.6549E+05 -1.2520E+03   1.6674E+05  0.000E+00  0.000E+00  0.000E+00  3.23850E+01  1.628E-01  2.000E+01  2.000E+04 -6.260E-02
   1   18   29     3     8    1.6674E+05 -2.5225E+03   1.6926E+05  0.000E+00  0.000E+00  0.000E+00  3.14972E+01  1.639E-01  2.000E+01  2.000E+04 -1.261E-01
   1   18   30     3     9    1.6926E+05 -2.9057E+03   1.7217E+05  0.000E+00  0.000E+00  0.000E+00  3.06099E+01  1.654E-01  2.000E+01  2.000E+04 -1.453E-01



1
              HEAD IN LAYER   1 AT END OF TIME STEP   1 IN STRESS PERIOD    7
  ---------------------------------------------------------------------------

          1      2      3      4      5      6      7      8      9     10
         11     12     13     14     15     16     17     18     19     20
         21     22     23     24     25     26     27     28     29     30
 .........................................................................
   1  ****** ****** ****** ****** ****** ****** ****** ****** ****** ******
      ****** ****** ****** ****** ****** ****** ****** ****** ****** ******
      ****** ****** ****** ****** ****** ****** ****** ****** ****** ******
   2  ****** ****** ****** ****** ****** ****** ****** ****** ****** ******
      ****** ****** ****** ****** ****** ****** ****** ****** ****** ******
      ****** ****** ****** ****** ****** ****** ****** ****** ****** ******
   3  ****** ****** ****** ****** ****** ****** ****** ****** ****** ******
      ****** ****** ****** ****** ****** ****** ****** ****** ****** ******
      ****** ****** ****** ****** ****** ****** ****** ****** ****** ******
   4  ****** ****** ****** ****** ****** ****** ****** ****** ****** ******
      ****** ****** ****** ****** ****** ****** ****** ****** ****** ******
      ****** ****** ****** ****** ****** ****** ****** ****** ****** ******
   5  ****** ****** ****** ****** ****** ****** ****** ****** ****** ******
      ****** ****** ****** ****** ****** ****** ****** ****** ****** ******
      ****** ****** ****** ****** ****** ****** ****** ****** ****** ******
   6  ****** ****** ****** ****** ****** ****** ****** ****** ****** ******
      ****** ****** ****** ****** ****** ****** ****** ****** ****** ******
      ****** ****** ****** ****** ****** ****** ****** ****** ****** ******
   7  ****** ****** ****** ****** ****** ****** ****** ****** ****** ******
      ****** ****** ****** ****** ****** ****** ****** ****** ****** ******
      ****** ****** ****** ****** ****** ****** ****** ****** ****** ******
   8  ****** ****** ****** ****** ****** ****** ****** ****** ****** ******
      ****** ****** ****** ****** ****** ****** ****** ****** ****** ******
      ****** ****** ****** ****** ****** ****** ****** ****** ****** ******
   9  ****** ****** ****** ****** ****** ****** ****** ****** ****** ******
      ****** ****** ****** ****** ****** ****** ****** ****** ****** ******
      ****** ****** ****** ****** ****** ****** ****** ****** ****** ******
  10  ****** ****** ****** ****** ****** ****** ****** ****** ****** ******
      ****** ****** ****** ****** ****** ****** ****** ****** ****** ******
      ****** ****** ****** ****** ****** ****** ****** ****** ****** ******
  11  ****** ****** ****** ****** ****** ****** ****** ****** ****** ******
      ****** ****** ****** ****** ****** ****** ****** ****** ****** ******
      ****** ****** ****** ****** ****** ****** ****** ****** ****** ******
  12  ****** ****** ****** ****** ****** ****** ****** ****** ****** ******
      ****** ****** ****** ****** ****** ****** ****** ****** ****** ******
      ****** ****** ****** ****** ****** ****** ****** ****** ****** ******
  13  ****** ****** ****** ****** ****** ****** ****** ****** ****** ******
      ****** ****** ****** ****** ****** ****** ****** ****** ****** ******
      ****** ****** ****** ****** ****** ****** ****** ****** ****** ******
  14  ****** ****** ****** ****** ****** ****** ****** ****** ****** ******
      ****** ****** ****** ****** ****** ****** ****** ****** ****** ******
      ****** ****** ****** ****** ****** ****** ****** ****** ****** ******
  15  ****** ****** ****** ****** ****** ****** ****** ****** ****** ******
      ****** ****** ****** ****** ****** ****** ****** ****** ****** ******
      ****** ****** ****** ****** ****** ****** ****** ****** ****** ******
  16  ****** ****** ****** ****** ****** ****** ****** ****** ****** ******
      ****** ****** ****** ****** ****** ****** ****** ****** ****** ******
      ****** ****** ****** ****** ****** ****** ****** ****** ****** ******
  17  ****** ****** ****** ****** ****** ****** ****** ****** ****** ******
      ****** ****** ****** ****** ****** ****** ****** ****** ****** ******
      ****** ****** ****** ****** ****** ****** ****** ****** ****** ******
  18  ****** ****** ****** ****** ****** ****** ****** ****** ****** ******
      ****** ****** ****** ****** ****** ****** ****** ****** ****** ******
      ****** ****** ****** ****** ****** ****** ****** ****** ****** ******
  19  ****** ****** ****** ****** ****** ****** ****** ****** ****** ******
      ****** ****** ****** ****** ****** ****** ****** ****** ****** ******
      ****** ****** ****** ****** ****** ****** ****** ****** ****** ******
  20  ****** ****** ****** ****** ****** ****** ****** ****** ****** ******
      ****** ****** ****** ****** ****** ****** ****** ****** ****** ******
      ****** ****** ****** ****** ****** ****** ****** ****** ****** ******
  21  ****** ****** ****** ****** ****** ****** ****** ****** ****** ******
      ****** ****** ****** ****** ****** ****** ****** ****** ****** ******
      ****** ****** ****** ****** ****** ****** ****** ****** ****** ******
  22  ****** ****** ****** ****** ****** ****** ****** ****** ****** ******
      ****** ****** ****** ****** ****** ****** ****** ****** ****** ******
      ****** ****** ****** ****** ****** ****** ****** ****** ****** ******
  23  ****** ****** ****** ****** ****** ****** ****** ****** ****** ******
      ****** ****** ****** ****** ****** ****** ****** ****** ****** ******
      ****** ****** ****** ****** ****** ****** ****** ****** ****** ******
  24  ****** ****** ****** ****** ****** ****** ****** ****** ****** ******
      ****** ****** ****** ****** ****** ****** ****** ****** ****** ******
      ****** ****** ****** ****** ****** ****** ****** ****** ****** ******
  25  ****** ****** ****** ****** ****** ****** ****** ****** ****** ******
      ****** ****** ****** ****** ****** ****** ****** ****** ****** ******
      ****** ****** ****** ****** ****** ****** ****** ****** ****** ******

 HEAD WILL BE SAVED ON UNIT   51 AT END OF TIME STEP    1, STRESS PERIOD    7
1
  VOLUMETRIC BUDGET FOR ENTIRE MODEL AT END OF TIME STEP    1, STRESS PERIOD   7
  ------------------------------------------------------------------------------

     CUMULATIVE VOLUMES      L**3       RATES FOR THIS TIME STEP      L**3/T
     ------------------                 ------------------------

           IN:                                      IN:
           ---                                      ---
             STORAGE =    33051106.6767               STORAGE =       22304.0468
       CONSTANT HEAD =    16237339.4547         CONSTANT HEAD =       33332.5497
               WELLS =           0.0000                 WELLS =           0.0000
            RECHARGE =    15097200.0000              RECHARGE =           0.0000
      STREAM LEAKAGE =     5778029.1560        STREAM LEAKAGE =       12779.7021

            TOTAL IN =    70163675.2874              TOTAL IN =       68416.2987

          OUT:                                     OUT:
          ----                                     ----
             STORAGE =      806907.1748               STORAGE =           0.0000
       CONSTANT HEAD =           0.0000         CONSTANT HEAD =           0.0000
               WELLS =    21387808.9338                 WELLS =       33470.7495
            RECHARGE =           0.0000              RECHARGE =           0.0000
      STREAM LEAKAGE =    47968961.7111        STREAM LEAKAGE =       34945.5547

           TOTAL OUT =    70163677.8197             TOTAL OUT =       68416.3042

            IN - OUT =          -2.5322              IN - OUT =      -5.5012E-03

 PERCENT DISCREPANCY =          -0.00     PERCENT DISCREPANCY =          -0.00






         TIME SUMMARY AT END OF TIME STEP    1 IN STRESS PERIOD    7
                    SECONDS     MINUTES      HOURS       DAYS        YEARS
                    -----------------------------------------------------------
   TIME STEP LENGTH 7.86240E+06 1.31040E+05  2184.0      91.000     0.24914    
 STRESS PERIOD TIME 7.86240E+06 1.31040E+05  2184.0      91.000     0.24914    
         TOTAL TIME 5.52096E+07 9.20160E+05  15336.      639.00      1.7495    
1
1
                            STRESS PERIOD NO.    8, LENGTH =   91.00000    
                            -----------------------------------------------

                              NUMBER OF TIME STEPS =     1

                               MULTIPLIER FOR DELT =     1.500

                            INITIAL TIME STEP SIZE =   91.00000    

 WELL NO.  LAYER   ROW   COL   STRESS RATE         
 --------------------------------------------------
      1      1     14      6       0.000    
      2      1      3      9       0.000    
      3      1     20     10       0.000    
      4      1     14     20       0.000    
      5      1      6     22      -8915.    
      6      1     16     17      -8329.    
      7      1      8     28      -7077.    
      8      1     15     19      -9150.    

      8 WELLS

                 RECHARGE =  1.000000E-03

 REUSING STREAM SEGMENT DATA FROM LAST STRESS PERIOD
 
 SOLVING FOR HEAD 


     6 CALLS TO PCG ROUTINE FOR TIME STEP   1 IN STRESS PERIOD    8
    22 TOTAL ITERATIONS

 OUTPUT CONTROL FOR STRESS PERIOD    8   TIME STEP    1
    SAVE BUDGET
    SAVE HEAD FOR ALL LAYERS
    PRINT HEAD FOR ALL LAYERS
 UBDSV2 SAVING "STREAMFLOW OUT  " ON UNIT  50 AT TIME STEP  1, STRESS PERIOD   8



 STREAM LISTING     PERIOD      8   STEP        1

 LAYER ROW COL. STREAM  RCH.  FLOW INTO     FLOW TO   FLOW OUT OF   OVRLND.     DIRECT     STREAM       STREAM     STREAM     STREAM   STREAMBED  STREAMBED
                SEG.NO.  NO.  STRM. RCH.    AQUIFER    STRM. RCH.    RUNOFF     PRECIP       ET          HEAD       DEPTH      WIDTH   CONDCTNC.   GRADIENT

   1   13    1     1     1    1.0000E+05 -1.8462E+03   1.0185E+05  0.000E+00  0.000E+00  0.000E+00  4.84068E+01  1.455E-01  2.000E+01  2.000E+04 -9.231E-02
   1   13    2     1     2    1.0185E+05 -2.8172E+03   1.0466E+05  0.000E+00  0.000E+00  0.000E+00  4.79315E+01  1.475E-01  2.000E+01  2.000E+04 -1.409E-01
   1   14    3     1     3    1.0466E+05 -4.7239E+02   1.0514E+05  0.000E+00  0.000E+00  0.000E+00  4.74557E+01  1.489E-01  2.000E+01  2.000E+04 -2.362E-02
   1   15    4     1     4    1.0514E+05 -4.4141E+02   1.0558E+05  0.000E+00  0.000E+00  0.000E+00  4.69788E+01  1.493E-01  2.000E+01  2.000E+04 -2.207E-02
   1   16    5     1     5    1.0558E+05 -1.5846E+03   1.0716E+05  0.000E+00  0.000E+00  0.000E+00  4.65024E+01  1.501E-01  2.000E+01  2.000E+04 -7.923E-02
   1   16    6     1     6    1.0716E+05 -1.0043E+03   1.0817E+05  0.000E+00  0.000E+00  0.000E+00  4.60262E+01  1.512E-01  2.000E+01  2.000E+04 -5.021E-02
   1   16    7     1     7    1.0817E+05 -9.7626E+02   1.0914E+05  0.000E+00  0.000E+00  0.000E+00  4.55498E+01  1.520E-01  2.000E+01  2.000E+04 -4.881E-02
   1   16    8     1     8    1.0914E+05 -9.5402E+02   1.1010E+05  0.000E+00  0.000E+00  0.000E+00  4.50733E+01  1.528E-01  2.000E+01  2.000E+04 -4.770E-02
   1   16    9     1     9    1.1010E+05 -9.1723E+02   1.1101E+05  0.000E+00  0.000E+00  0.000E+00  4.45968E+01  1.536E-01  2.000E+01  2.000E+04 -4.586E-02
   1   16   10     1    10    1.1101E+05 -8.5848E+02   1.1187E+05  0.000E+00  0.000E+00  0.000E+00  4.41203E+01  1.544E-01  2.000E+01  2.000E+04 -4.292E-02
   1   16   11     1    11    1.1187E+05 -7.7146E+02   1.1264E+05  0.000E+00  0.000E+00  0.000E+00  4.36437E+01  1.550E-01  2.000E+01  2.000E+04 -3.857E-02
   1   16   12     1    12    1.1264E+05 -9.1926E+02   1.1356E+05  0.000E+00  0.000E+00  0.000E+00  4.31671E+01  1.557E-01  2.000E+01  2.000E+04 -4.596E-02
   1   15   13     1    13    1.1356E+05 -5.9408E+02   1.1416E+05  0.000E+00  0.000E+00  0.000E+00  4.26905E+01  1.564E-01  2.000E+01  2.000E+04 -2.970E-02
   1   14   14     1    14    1.1416E+05 -5.8281E+02   1.1474E+05  0.000E+00  0.000E+00  0.000E+00  4.22137E+01  1.569E-01  2.000E+01  2.000E+04 -2.914E-02
   1   13   15     1    15    1.1474E+05 -8.4560E+02   1.1559E+05  0.000E+00  0.000E+00  0.000E+00  4.17370E+01  1.574E-01  2.000E+01  2.000E+04 -4.228E-02
   1   12   16     1    16    1.1559E+05 -1.9501E+03   1.1754E+05  0.000E+00  0.000E+00  0.000E+00  4.12609E+01  1.586E-01  2.000E+01  2.000E+04 -9.750E-02
   1   12   17     1    17    1.1754E+05 -6.8724E+02   1.1822E+05  0.000E+00  0.000E+00  0.000E+00  4.07847E+01  1.597E-01  2.000E+01  2.000E+04 -3.436E-02
   1   12   18     1    18    1.1822E+05 -4.1284E+02   1.1864E+05  0.000E+00  0.000E+00  0.000E+00  4.03078E+01  1.601E-01  2.000E+01  2.000E+04 -2.064E-02
   1   12   19     1    19    1.1864E+05 -7.9141E+02   1.1943E+05  0.000E+00  0.000E+00  0.000E+00  3.98310E+01  1.606E-01  2.000E+01  2.000E+04 -3.957E-02
   1   13   20     1    20    1.1943E+05  7.4334E+02   1.1868E+05  0.000E+00  0.000E+00  0.000E+00  3.93538E+01  1.606E-01  2.000E+01  2.000E+04  3.717E-02
   1   14   21     1    21    1.1868E+05  1.1396E+03   1.1754E+05  0.000E+00  0.000E+00  0.000E+00  3.88758E+01  1.598E-01  2.000E+01  2.000E+04  5.698E-02
   1   14   22     1    22    1.1754E+05  5.2604E+03   1.1228E+05  0.000E+00  0.000E+00  0.000E+00  3.83959E+01  1.572E-01  2.000E+01  2.000E+04  2.630E-01
   1    9   30     2     1    5.0000E+04  3.2679E+02   4.9673E+04  0.000E+00  0.000E+00  0.000E+00  4.02406E+01  1.156E-01  2.000E+01  2.000E+04  1.634E-02
   1    9   29     2     2    4.9673E+04  5.0878E+02   4.9164E+04  0.000E+00  0.000E+00  0.000E+00  3.99901E+01  1.151E-01  2.000E+01  2.000E+04  2.544E-02
   1    9   28     2     3    4.9164E+04  1.7615E+03   4.7403E+04  0.000E+00  0.000E+00  0.000E+00  3.97385E+01  1.135E-01  2.000E+01  2.000E+04  8.807E-02
   1    9   27     2     4    4.7403E+04 -2.3664E+02   4.7640E+04  0.000E+00  0.000E+00  0.000E+00  3.94874E+01  1.124E-01  2.000E+01  2.000E+04 -1.183E-02
   1   10   26     2     5    4.7640E+04 -5.8622E+02   4.8226E+04  0.000E+00  0.000E+00  0.000E+00  3.92380E+01  1.130E-01  2.000E+01  2.000E+04 -2.931E-02
   1   11   25     2     6    4.8226E+04 -6.7125E+02   4.8897E+04  0.000E+00  0.000E+00  0.000E+00  3.89889E+01  1.139E-01  2.000E+01  2.000E+04 -3.356E-02
   1   12   24     2     7    4.8897E+04 -8.8726E+02   4.9784E+04  0.000E+00  0.000E+00  0.000E+00  3.87399E+01  1.149E-01  2.000E+01  2.000E+04 -4.436E-02
   1   13   23     2     8    4.9784E+04 -1.7370E+02   4.9958E+04  0.000E+00  0.000E+00  0.000E+00  3.84907E+01  1.157E-01  2.000E+01  2.000E+04 -8.685E-03
   1   14   22     2     9    4.9958E+04  2.1294E+03   4.7829E+04  0.000E+00  0.000E+00  0.000E+00  3.82393E+01  1.143E-01  2.000E+01  2.000E+04  1.065E-01
   1   14   22     3     1    1.6011E+05 -8.3125E+03   1.6842E+05  0.000E+00  0.000E+00  0.000E+00  3.77172E+01  1.617E-01  2.000E+01  2.000E+04 -4.156E-01
   1   15   23     3     2    1.6842E+05 -2.7378E+02   1.6870E+05  0.000E+00  0.000E+00  0.000E+00  3.68309E+01  1.642E-01  2.000E+01  2.000E+04 -1.369E-02
   1   15   24     3     3    1.6870E+05 -2.2921E+02   1.6893E+05  0.000E+00  0.000E+00  0.000E+00  3.59421E+01  1.643E-01  2.000E+01  2.000E+04 -1.146E-02
   1   15   25     3     4    1.6893E+05 -2.4510E+02   1.6917E+05  0.000E+00  0.000E+00  0.000E+00  3.50534E+01  1.645E-01  2.000E+01  2.000E+04 -1.225E-02
   1   15   26     3     5    1.6917E+05 -3.1714E+02   1.6949E+05  0.000E+00  0.000E+00  0.000E+00  3.41646E+01  1.646E-01  2.000E+01  2.000E+04 -1.586E-02
   1   16   27     3     6    1.6949E+05 -3.3778E+02   1.6983E+05  0.000E+00  0.000E+00  0.000E+00  3.32759E+01  1.648E-01  2.000E+01  2.000E+04 -1.689E-02
   1   17   28     3     7    1.6983E+05 -1.4551E+03   1.7128E+05  0.000E+00  0.000E+00  0.000E+00  3.23876E+01  1.654E-01  2.000E+01  2.000E+04 -7.276E-02
   1   18   29     3     8    1.7128E+05 -2.6867E+03   1.7397E+05  0.000E+00  0.000E+00  0.000E+00  3.14999E+01  1.666E-01  2.000E+01  2.000E+04 -1.343E-01
   1   18   30     3     9    1.7397E+05 -3.0516E+03   1.7702E+05  0.000E+00  0.000E+00  0.000E+00  3.06127E+01  1.682E-01  2.000E+01  2.000E+04 -1.526E-01



1
              HEAD IN LAYER   1 AT END OF TIME STEP   1 IN STRESS PERIOD    8
  ---------------------------------------------------------------------------

          1      2      3      4      5      6      7      8      9     10
         11     12     13     14     15     16     17     18     19     20
         21     22     23     24     25     26     27     28     29     30
 .........................................................................
   1  ****** ****** ****** ****** ****** ****** ****** ****** ****** ******
      ****** ****** ****** ****** ****** ****** ****** ****** ****** ******
      ****** ****** ****** ****** ****** ****** ****** ****** ****** ******
   2  ****** ****** ****** ****** ****** ****** ****** ****** ****** ******
      ****** ****** ****** ****** ****** ****** ****** ****** ****** ******
      ****** ****** ****** ****** ****** ****** ****** ****** ****** ******
   3  ****** ****** ****** ****** ****** ****** ****** ****** ****** ******
      ****** ****** ****** ****** ****** ****** ****** ****** ****** ******
      ****** ****** ****** ****** ****** ****** ****** ****** ****** ******
   4  ****** ****** ****** ****** ****** ****** ****** ****** ****** ******
      ****** ****** ****** ****** ****** ****** ****** ****** ****** ******
      ****** ****** ****** ****** ****** ****** ****** ****** ****** ******
   5  ****** ****** ****** ****** ****** ****** ****** ****** ****** ******
      ****** ****** ****** ****** ****** ****** ****** ****** ****** ******
      ****** ****** ****** ****** ****** ****** ****** ****** ****** ******
   6  ****** ****** ****** ****** ****** ****** ****** ****** ****** ******
      ****** ****** ****** ****** ****** ****** ****** ****** ****** ******
      ****** ****** ****** ****** ****** ****** ****** ****** ****** ******
   7  ****** ****** ****** ****** ****** ****** ****** ****** ****** ******
      ****** ****** ****** ****** ****** ****** ****** ****** ****** ******
      ****** ****** ****** ****** ****** ****** ****** ****** ****** ******
   8  ****** ****** ****** ****** ****** ****** ****** ****** ****** ******
      ****** ****** ****** ****** ****** ****** ****** ****** ****** ******
      ****** ****** ****** ****** ****** ****** ****** ****** ****** ******
   9  ****** ****** ****** ****** ****** ****** ****** ****** ****** ******
      ****** ****** ****** ****** ****** ****** ****** ****** ****** ******
      ****** ****** ****** ****** ****** ****** ****** ****** ****** ******
  10  ****** ****** ****** ****** ****** ****** ****** ****** ****** ******
      ****** ****** ****** ****** ****** ****** ****** ****** ****** ******
      ****** ****** ****** ****** ****** ****** ****** ****** ****** ******
  11  ****** ****** ****** ****** ****** ****** ****** ****** ****** ******
      ****** ****** ****** ****** ****** ****** ****** ****** ****** ******
      ****** ****** ****** ****** ****** ****** ****** ****** ****** ******
  12  ****** ****** ****** ****** ****** ****** ****** ****** ****** ******
      ****** ****** ****** ****** ****** ****** ****** ****** ****** ******
      ****** ****** ****** ****** ****** ****** ****** ****** ****** ******
  13  ****** ****** ****** ****** ****** ****** ****** ****** ****** ******
      ****** ****** ****** ****** ****** ****** ****** ****** ****** ******
      ****** ****** ****** ****** ****** ****** ****** ****** ****** ******
  14  ****** ****** ****** ****** ****** ****** ****** ****** ****** ******
      ****** ****** ****** ****** ****** ****** ****** ****** ****** ******
      ****** ****** ****** ****** ****** ****** ****** ****** ****** ******
  15  ****** ****** ****** ****** ****** ****** ****** ****** ****** ******
      ****** ****** ****** ****** ****** ****** ****** ****** ****** ******
      ****** ****** ****** ****** ****** ****** ****** ****** ****** ******
  16  ****** ****** ****** ****** ****** ****** ****** ****** ****** ******
      ****** ****** ****** ****** ****** ****** ****** ****** ****** ******
      ****** ****** ****** ****** ****** ****** ****** ****** ****** ******
  17  ****** ****** ****** ****** ****** ****** ****** ****** ****** ******
      ****** ****** ****** ****** ****** ****** ****** ****** ****** ******
      ****** ****** ****** ****** ****** ****** ****** ****** ****** ******
  18  ****** ****** ****** ****** ****** ****** ****** ****** ****** ******
      ****** ****** ****** ****** ****** ****** ****** ****** ****** ******
      ****** ****** ****** ****** ****** ****** ****** ****** ****** ******
  19  ****** ****** ****** ****** ****** ****** ****** ****** ****** ******
      ****** ****** ****** ****** ****** ****** ****** ****** ****** ******
      ****** ****** ****** ****** ****** ****** ****** ****** ****** ******
  20  ****** ****** ****** ****** ****** ****** ****** ****** ****** ******
      ****** ****** ****** ****** ****** ****** ****** ****** ****** ******
      ****** ****** ****** ****** ****** ****** ****** ****** ****** ******
  21  ****** ****** ****** ****** ****** ****** ****** ****** ****** ******
      ****** ****** ****** ****** ****** ****** ****** ****** ****** ******
      ****** ****** ****** ****** ****** ****** ****** ****** ****** ******
  22  ****** ****** ****** ****** ****** ****** ****** ****** ****** ******
      ****** ****** ****** ****** ****** ****** ****** ****** ****** ******
      ****** ****** ****** ****** ****** ****** ****** ****** ****** ******
  23  ****** ****** ****** ****** ****** ****** ****** ****** ****** ******
      ****** ****** ****** ****** ****** ****** ****** ****** ****** ******
      ****** ****** ****** ****** ****** ****** ****** ****** ****** ******
  24  ****** ****** ****** ****** ****** ****** ****** ****** ****** ******
      ****** ****** ****** ****** ****** ****** ****** ****** ****** ******
      ****** ****** ****** ****** ****** ****** ****** ****** ****** ******
  25  ****** ****** ****** ****** ****** ****** ****** ****** ****** ******
      ****** ****** ****** ****** ****** ****** ****** ****** ****** ******
      ****** ****** ****** ****** ****** ****** ****** ****** ****** ******

 HEAD WILL BE SAVED ON UNIT   51 AT END OF TIME STEP    1, STRESS PERIOD    8
1
  VOLUMETRIC BUDGET FOR ENTIRE MODEL AT END OF TIME STEP    1, STRESS PERIOD   8
  ------------------------------------------------------------------------------

     CUMULATIVE VOLUMES      L**3       RATES FOR THIS TIME STEP      L**3/T
     ------------------                 ------------------------

           IN:                                      IN:
           ---                                      ---
             STORAGE =    33179220.0819               STORAGE =        1407.8396
       CONSTANT HEAD =    19243439.5061         CONSTANT HEAD =       33034.0665
               WELLS =           0.0000                 WELLS =           0.0000
            RECHARGE =    17608800.0000              RECHARGE =       27600.0000
      STREAM LEAKAGE =     6858177.7664        STREAM LEAKAGE =       11869.7650

            TOTAL IN =    76889637.3544              TOTAL IN =       73911.6711

          OUT:                                     OUT:
          ----                                     ----
             STORAGE =      947963.8985               STORAGE =        1550.0739
       CONSTANT HEAD =           0.0000         CONSTANT HEAD =           0.0000
               WELLS =    24433647.1388                 WELLS =       33470.7495
            RECHARGE =           0.0000              RECHARGE =           0.0000
      STREAM LEAKAGE =    51508028.0834        STREAM LEAKAGE =       38890.8393

           TOTAL OUT =    76889639.1207             TOTAL OUT =       73911.6626

            IN - OUT =          -1.7663              IN - OUT =       8.4167E-03

 PERCENT DISCREPANCY =          -0.00     PERCENT DISCREPANCY =           0.00






         TIME SUMMARY AT END OF TIME STEP    1 IN STRESS PERIOD    8
                    SECONDS     MINUTES      HOURS       DAYS        YEARS
                    -----------------------------------------------------------
   TIME STEP LENGTH 7.86240E+06 1.31040E+05  2184.0      91.000     0.24914    
 STRESS PERIOD TIME 7.86240E+06 1.31040E+05  2184.0      91.000     0.24914    
         TOTAL TIME 6.30720E+07 1.05120E+06  17520.      730.00      1.9986    
1
1
                            STRESS PERIOD NO.    9, LENGTH =   92.00000    
                            -----------------------------------------------

                              NUMBER OF TIME STEPS =     1

                               MULTIPLIER FOR DELT =     1.500

                            INITIAL TIME STEP SIZE =   92.00000    

 WELL NO.  LAYER   ROW   COL   STRESS RATE         
 --------------------------------------------------
      1      1     14      6       0.000    
      2      1      3      9       0.000    
      3      1     20     10       0.000    
      4      1     14     20       0.000    
      5      1      6     22      -8915.    
      6      1     16     17      -8329.    
      7      1      8     28      -7077.    
      8      1     15     19      -9150.    

      8 WELLS

                 RECHARGE =  5.000000E-04

 REUSING STREAM SEGMENT DATA FROM LAST STRESS PERIOD
 
 SOLVING FOR HEAD 


     6 CALLS TO PCG ROUTINE FOR TIME STEP   1 IN STRESS PERIOD    9
    23 TOTAL ITERATIONS

 OUTPUT CONTROL FOR STRESS PERIOD    9   TIME STEP    1
    SAVE BUDGET
    SAVE HEAD FOR ALL LAYERS
    PRINT HEAD FOR ALL LAYERS
 UBDSV2 SAVING "STREAMFLOW OUT  " ON UNIT  50 AT TIME STEP  1, STRESS PERIOD   9



 STREAM LISTING     PERIOD      9   STEP        1

 LAYER ROW COL. STREAM  RCH.  FLOW INTO     FLOW TO   FLOW OUT OF   OVRLND.     DIRECT     STREAM       STREAM     STREAM     STREAM   STREAMBED  STREAMBED
                SEG.NO.  NO.  STRM. RCH.    AQUIFER    STRM. RCH.    RUNOFF     PRECIP       ET          HEAD       DEPTH      WIDTH   CONDCTNC.   GRADIENT

   1   13    1     1     1    1.0000E+05 -1.6336E+03   1.0163E+05  0.000E+00  0.000E+00  0.000E+00  4.84067E+01  1.454E-01  2.000E+01  2.000E+04 -8.168E-02
   1   13    2     1     2    1.0163E+05 -2.5765E+03   1.0421E+05  0.000E+00  0.000E+00  0.000E+00  4.79313E+01  1.472E-01  2.000E+01  2.000E+04 -1.288E-01
   1   14    3     1     3    1.0421E+05 -4.0189E+02   1.0461E+05  0.000E+00  0.000E+00  0.000E+00  4.74553E+01  1.484E-01  2.000E+01  2.000E+04 -2.009E-02
   1   15    4     1     4    1.0461E+05 -3.6981E+02   1.0498E+05  0.000E+00  0.000E+00  0.000E+00  4.69783E+01  1.488E-01  2.000E+01  2.000E+04 -1.849E-02
   1   16    5     1     5    1.0498E+05 -1.3922E+03   1.0637E+05  0.000E+00  0.000E+00  0.000E+00  4.65018E+01  1.495E-01  2.000E+01  2.000E+04 -6.961E-02
   1   16    6     1     6    1.0637E+05 -8.8444E+02   1.0726E+05  0.000E+00  0.000E+00  0.000E+00  4.60255E+01  1.505E-01  2.000E+01  2.000E+04 -4.422E-02
   1   16    7     1     7    1.0726E+05 -8.6015E+02   1.0812E+05  0.000E+00  0.000E+00  0.000E+00  4.55490E+01  1.512E-01  2.000E+01  2.000E+04 -4.301E-02
   1   16    8     1     8    1.0812E+05 -8.3942E+02   1.0896E+05  0.000E+00  0.000E+00  0.000E+00  4.50724E+01  1.519E-01  2.000E+01  2.000E+04 -4.197E-02
   1   16    9     1     9    1.0896E+05 -8.0420E+02   1.0976E+05  0.000E+00  0.000E+00  0.000E+00  4.45958E+01  1.526E-01  2.000E+01  2.000E+04 -4.021E-02
   1   16   10     1    10    1.0976E+05 -7.4739E+02   1.1051E+05  0.000E+00  0.000E+00  0.000E+00  4.41192E+01  1.533E-01  2.000E+01  2.000E+04 -3.737E-02
   1   16   11     1    11    1.1051E+05 -6.6128E+02   1.1117E+05  0.000E+00  0.000E+00  0.000E+00  4.36425E+01  1.539E-01  2.000E+01  2.000E+04 -3.306E-02
   1   16   12     1    12    1.1117E+05 -7.3071E+02   1.1190E+05  0.000E+00  0.000E+00  0.000E+00  4.31658E+01  1.544E-01  2.000E+01  2.000E+04 -3.654E-02
   1   15   13     1    13    1.1190E+05 -3.8470E+02   1.1229E+05  0.000E+00  0.000E+00  0.000E+00  4.26890E+01  1.549E-01  2.000E+01  2.000E+04 -1.923E-02
   1   14   14     1    14    1.1229E+05 -3.6025E+02   1.1265E+05  0.000E+00  0.000E+00  0.000E+00  4.22120E+01  1.552E-01  2.000E+01  2.000E+04 -1.801E-02
   1   13   15     1    15    1.1265E+05 -6.1739E+02   1.1326E+05  0.000E+00  0.000E+00  0.000E+00  4.17352E+01  1.556E-01  2.000E+01  2.000E+04 -3.087E-02
   1   12   16     1    16    1.1326E+05 -1.7139E+03   1.1498E+05  0.000E+00  0.000E+00  0.000E+00  4.12589E+01  1.566E-01  2.000E+01  2.000E+04 -8.570E-02
   1   12   17     1    17    1.1498E+05 -5.2477E+02   1.1550E+05  0.000E+00  0.000E+00  0.000E+00  4.07825E+01  1.575E-01  2.000E+01  2.000E+04 -2.624E-02
   1   12   18     1    18    1.1550E+05 -2.5773E+02   1.1576E+05  0.000E+00  0.000E+00  0.000E+00  4.03056E+01  1.578E-01  2.000E+01  2.000E+04 -1.289E-02
   1   12   19     1    19    1.1576E+05 -6.0461E+02   1.1636E+05  0.000E+00  0.000E+00  0.000E+00  3.98286E+01  1.582E-01  2.000E+01  2.000E+04 -3.023E-02
   1   13   20     1    20    1.1636E+05  9.1702E+02   1.1545E+05  0.000E+00  0.000E+00  0.000E+00  3.93512E+01  1.580E-01  2.000E+01  2.000E+04  4.585E-02
   1   14   21     1    21    1.1545E+05  1.3116E+03   1.1414E+05  0.000E+00  0.000E+00  0.000E+00  3.88730E+01  1.571E-01  2.000E+01  2.000E+04  6.558E-02
   1   14   22     1    22    1.1414E+05  5.2990E+03   1.0884E+05  0.000E+00  0.000E+00  0.000E+00  3.83930E+01  1.544E-01  2.000E+01  2.000E+04  2.650E-01
   1    9   30     2     1    5.0000E+04  4.5036E+02   4.9550E+04  0.000E+00  0.000E+00  0.000E+00  4.02406E+01  1.156E-01  2.000E+01  2.000E+04  2.252E-02
   1    9   29     2     2    4.9550E+04  6.3258E+02   4.8917E+04  0.000E+00  0.000E+00  0.000E+00  3.99898E+01  1.148E-01  2.000E+01  2.000E+04  3.163E-02
   1    9   28     2     3    4.8917E+04  1.8872E+03   4.7030E+04  0.000E+00  0.000E+00  0.000E+00  3.97380E+01  1.130E-01  2.000E+01  2.000E+04  9.436E-02
   1    9   27     2     4    4.7030E+04 -5.9734E+01   4.7090E+04  0.000E+00  0.000E+00  0.000E+00  3.94867E+01  1.117E-01  2.000E+01  2.000E+04 -2.987E-03
   1   10   26     2     5    4.7090E+04 -4.1237E+02   4.7502E+04  0.000E+00  0.000E+00  0.000E+00  3.92371E+01  1.121E-01  2.000E+01  2.000E+04 -2.062E-02
   1   11   25     2     6    4.7502E+04 -5.0497E+02   4.8007E+04  0.000E+00  0.000E+00  0.000E+00  3.89877E+01  1.127E-01  2.000E+01  2.000E+04 -2.525E-02
   1   12   24     2     7    4.8007E+04 -7.3443E+02   4.8741E+04  0.000E+00  0.000E+00  0.000E+00  3.87386E+01  1.136E-01  2.000E+01  2.000E+04 -3.672E-02
   1   13   23     2     8    4.8741E+04 -1.2659E+02   4.8868E+04  0.000E+00  0.000E+00  0.000E+00  3.84892E+01  1.142E-01  2.000E+01  2.000E+04 -6.329E-03
   1   14   22     2     9    4.8868E+04  2.1930E+03   4.6675E+04  0.000E+00  0.000E+00  0.000E+00  3.82377E+01  1.127E-01  2.000E+01  2.000E+04  1.096E-01
   1   14   22     3     1    1.5551E+05 -8.2721E+03   1.6378E+05  0.000E+00  0.000E+00  0.000E+00  3.77145E+01  1.589E-01  2.000E+01  2.000E+04 -4.136E-01
   1   15   23     3     2    1.6378E+05 -2.2113E+02   1.6401E+05  0.000E+00  0.000E+00  0.000E+00  3.68281E+01  1.615E-01  2.000E+01  2.000E+04 -1.106E-02
   1   15   24     3     3    1.6401E+05 -1.8616E+02   1.6419E+05  0.000E+00  0.000E+00  0.000E+00  3.59393E+01  1.616E-01  2.000E+01  2.000E+04 -9.308E-03
   1   15   25     3     4    1.6419E+05 -2.0180E+02   1.6439E+05  0.000E+00  0.000E+00  0.000E+00  3.50506E+01  1.617E-01  2.000E+01  2.000E+04 -1.009E-02
   1   15   26     3     5    1.6439E+05 -2.6953E+02   1.6466E+05  0.000E+00  0.000E+00  0.000E+00  3.41618E+01  1.618E-01  2.000E+01  2.000E+04 -1.348E-02
   1   16   27     3     6    1.6466E+05 -2.8175E+02   1.6494E+05  0.000E+00  0.000E+00  0.000E+00  3.32731E+01  1.620E-01  2.000E+01  2.000E+04 -1.409E-02
   1   17   28     3     7    1.6494E+05 -1.3015E+03   1.6625E+05  0.000E+00  0.000E+00  0.000E+00  3.23847E+01  1.625E-01  2.000E+01  2.000E+04 -6.507E-02
   1   18   29     3     8    1.6625E+05 -2.5105E+03   1.6876E+05  0.000E+00  0.000E+00  0.000E+00  3.14969E+01  1.636E-01  2.000E+01  2.000E+04 -1.255E-01
   1   18   30     3     9    1.6876E+05 -2.9193E+03   1.7168E+05  0.000E+00  0.000E+00  0.000E+00  3.06096E+01  1.652E-01  2.000E+01  2.000E+04 -1.460E-01



1
              HEAD IN LAYER   1 AT END OF TIME STEP   1 IN STRESS PERIOD    9
  ---------------------------------------------------------------------------

          1      2      3      4      5      6      7      8      9     10
         11     12     13     14     15     16     17     18     19     20
         21     22     23     24     25     26     27     28     29     30
 .........................................................................
   1  ****** ****** ****** ****** ****** ****** ****** ****** ****** ******
      ****** ****** ****** ****** ****** ****** ****** ****** ****** ******
      ****** ****** ****** ****** ****** ****** ****** ****** ****** ******
   2  ****** ****** ****** ****** ****** ****** ****** ****** ****** ******
      ****** ****** ****** ****** ****** ****** ****** ****** ****** ******
      ****** ****** ****** ****** ****** ****** ****** ****** ****** ******
   3  ****** ****** ****** ****** ****** ****** ****** ****** ****** ******
      ****** ****** ****** ****** ****** ****** ****** ****** ****** ******
      ****** ****** ****** ****** ****** ****** ****** ****** ****** ******
   4  ****** ****** ****** ****** ****** ****** ****** ****** ****** ******
      ****** ****** ****** ****** ****** ****** ****** ****** ****** ******
      ****** ****** ****** ****** ****** ****** ****** ****** ****** ******
   5  ****** ****** ****** ****** ****** ****** ****** ****** ****** ******
      ****** ****** ****** ****** ****** ****** ****** ****** ****** ******
      ****** ****** ****** ****** ****** ****** ****** ****** ****** ******
   6  ****** ****** ****** ****** ****** ****** ****** ****** ****** ******
      ****** ****** ****** ****** ****** ****** ****** ****** ****** ******
      ****** ****** ****** ****** ****** ****** ****** ****** ****** ******
   7  ****** ****** ****** ****** ****** ****** ****** ****** ****** ******
      ****** ****** ****** ****** ****** ****** ****** ****** ****** ******
      ****** ****** ****** ****** ****** ****** ****** ****** ****** ******
   8  ****** ****** ****** ****** ****** ****** ****** ****** ****** ******
      ****** ****** ****** ****** ****** ****** ****** ****** ****** ******
      ****** ****** ****** ****** ****** ****** ****** ****** ****** ******
   9  ****** ****** ****** ****** ****** ****** ****** ****** ****** ******
      ****** ****** ****** ****** ****** ****** ****** ****** ****** ******
      ****** ****** ****** ****** ****** ****** ****** ****** ****** ******
  10  ****** ****** ****** ****** ****** ****** ****** ****** ****** ******
      ****** ****** ****** ****** ****** ****** ****** ****** ****** ******
      ****** ****** ****** ****** ****** ****** ****** ****** ****** ******
  11  ****** ****** ****** ****** ****** ****** ****** ****** ****** ******
      ****** ****** ****** ****** ****** ****** ****** ****** ****** ******
      ****** ****** ****** ****** ****** ****** ****** ****** ****** ******
  12  ****** ****** ****** ****** ****** ****** ****** ****** ****** ******
      ****** ****** ****** ****** ****** ****** ****** ****** ****** ******
      ****** ****** ****** ****** ****** ****** ****** ****** ****** ******
  13  ****** ****** ****** ****** ****** ****** ****** ****** ****** ******
      ****** ****** ****** ****** ****** ****** ****** ****** ****** ******
      ****** ****** ****** ****** ****** ****** ****** ****** ****** ******
  14  ****** ****** ****** ****** ****** ****** ****** ****** ****** ******
      ****** ****** ****** ****** ****** ****** ****** ****** ****** ******
      ****** ****** ****** ****** ****** ****** ****** ****** ****** ******
  15  ****** ****** ****** ****** ****** ****** ****** ****** ****** ******
      ****** ****** ****** ****** ****** ****** ****** ****** ****** ******
      ****** ****** ****** ****** ****** ****** ****** ****** ****** ******
  16  ****** ****** ****** ****** ****** ****** ****** ****** ****** ******
      ****** ****** ****** ****** ****** ****** ****** ****** ****** ******
      ****** ****** ****** ****** ****** ****** ****** ****** ****** ******
  17  ****** ****** ****** ****** ****** ****** ****** ****** ****** ******
      ****** ****** ****** ****** ****** ****** ****** ****** ****** ******
      ****** ****** ****** ****** ****** ****** ****** ****** ****** ******
  18  ****** ****** ****** ****** ****** ****** ****** ****** ****** ******
      ****** ****** ****** ****** ****** ****** ****** ****** ****** ******
      ****** ****** ****** ****** ****** ****** ****** ****** ****** ******
  19  ****** ****** ****** ****** ****** ****** ****** ****** ****** ******
      ****** ****** ****** ****** ****** ****** ****** ****** ****** ******
      ****** ****** ****** ****** ****** ****** ****** ****** ****** ******
  20  ****** ****** ****** ****** ****** ****** ****** ****** ****** ******
      ****** ****** ****** ****** ****** ****** ****** ****** ****** ******
      ****** ****** ****** ****** ****** ****** ****** ****** ****** ******
  21  ****** ****** ****** ****** ****** ****** ****** ****** ****** ******
      ****** ****** ****** ****** ****** ****** ****** ****** ****** ******
      ****** ****** ****** ****** ****** ****** ****** ****** ****** ******
  22  ****** ****** ****** ****** ****** ****** ****** ****** ****** ******
      ****** ****** ****** ****** ****** ****** ****** ****** ****** ******
      ****** ****** ****** ****** ****** ****** ****** ****** ****** ******
  23  ****** ****** ****** ****** ****** ****** ****** ****** ****** ******
      ****** ****** ****** ****** ****** ****** ****** ****** ****** ******
      ****** ****** ****** ****** ****** ****** ****** ****** ****** ******
  24  ****** ****** ****** ****** ****** ****** ****** ****** ****** ******
      ****** ****** ****** ****** ****** ****** ****** ****** ****** ******
      ****** ****** ****** ****** ****** ****** ****** ****** ****** ******
  25  ****** ****** ****** ****** ****** ****** ****** ****** ****** ******
      ****** ****** ****** ****** ****** ****** ****** ****** ****** ******
      ****** ****** ****** ****** ****** ****** ****** ****** ****** ******

 HEAD WILL BE SAVED ON UNIT   51 AT END OF TIME STEP    1, STRESS PERIOD    9
1
  VOLUMETRIC BUDGET FOR ENTIRE MODEL AT END OF TIME STEP    1, STRESS PERIOD   9
  ------------------------------------------------------------------------------

     CUMULATIVE VOLUMES      L**3       RATES FOR THIS TIME STEP      L**3/T
     ------------------                 ------------------------

           IN:                                      IN:
           ---                                      ---
             STORAGE =    33837097.3940               STORAGE =        7150.8403
       CONSTANT HEAD =    22389478.0499         CONSTANT HEAD =       34196.0711
               WELLS =           0.0000                 WELLS =           0.0000
            RECHARGE =    18878400.0000              RECHARGE =       13800.0000
      STREAM LEAKAGE =     8025722.9759        STREAM LEAKAGE =       12690.7088

            TOTAL IN =    83130698.4198              TOTAL IN =       67837.6203

          OUT:                                     OUT:
          ----                                     ----
             STORAGE =      947963.8985               STORAGE =           0.0000
       CONSTANT HEAD =           0.0000         CONSTANT HEAD =           0.0000
               WELLS =    27512956.0932                 WELLS =       33470.7495
            RECHARGE =           0.0000              RECHARGE =           0.0000
      STREAM LEAKAGE =    54669780.2640        STREAM LEAKAGE =       34366.8715

           TOTAL OUT =    83130700.2558             TOTAL OUT =       67837.6210

            IN - OUT =          -1.8360              IN - OUT =      -7.5780E-04

 PERCENT DISCREPANCY =          -0.00     PERCENT DISCREPANCY =          -0.00






         TIME SUMMARY AT END OF TIME STEP    1 IN STRESS PERIOD    9
                    SECONDS     MINUTES      HOURS       DAYS        YEARS
                    -----------------------------------------------------------
   TIME STEP LENGTH 7.94880E+06 1.32480E+05  2208.0      92.000     0.25188    
 STRESS PERIOD TIME 7.94880E+06 1.32480E+05  2208.0      92.000     0.25188    
         TOTAL TIME 7.10208E+07 1.18368E+06  19728.      822.00      2.2505    
1
1
                            STRESS PERIOD NO.   10, LENGTH =   91.00000    
                            -----------------------------------------------

                              NUMBER OF TIME STEPS =     1

                               MULTIPLIER FOR DELT =     1.500

                            INITIAL TIME STEP SIZE =   91.00000    

 WELL NO.  LAYER   ROW   COL   STRESS RATE         
 --------------------------------------------------
      1      1     14      6       0.000    
      2      1      3      9       0.000    
      3      1     20     10       0.000    
      4      1     14     20       0.000    
      5      1      6     22      -8915.    
      6      1     16     17      -8329.    
      7      1      8     28      -7077.    
      8      1     15     19      -9150.    

      8 WELLS

                 RECHARGE =  2.000000E-03

 REUSING STREAM SEGMENT DATA FROM LAST STRESS PERIOD
 
 SOLVING FOR HEAD 


     7 CALLS TO PCG ROUTINE FOR TIME STEP   1 IN STRESS PERIOD   10
    26 TOTAL ITERATIONS

 OUTPUT CONTROL FOR STRESS PERIOD   10   TIME STEP    1
    SAVE BUDGET
    SAVE HEAD FOR ALL LAYERS
    PRINT HEAD FOR ALL LAYERS
 UBDSV2 SAVING "STREAMFLOW OUT  " ON UNIT  50 AT TIME STEP  1, STRESS PERIOD  10



 STREAM LISTING     PERIOD     10   STEP        1

 LAYER ROW COL. STREAM  RCH.  FLOW INTO     FLOW TO   FLOW OUT OF   OVRLND.     DIRECT     STREAM       STREAM     STREAM     STREAM   STREAMBED  STREAMBED
                SEG.NO.  NO.  STRM. RCH.    AQUIFER    STRM. RCH.    RUNOFF     PRECIP       ET          HEAD       DEPTH      WIDTH   CONDCTNC.   GRADIENT

   1   13    1     1     1    1.0000E+05 -2.0874E+03   1.0209E+05  0.000E+00  0.000E+00  0.000E+00  4.84069E+01  1.456E-01  2.000E+01  2.000E+04 -1.044E-01
   1   13    2     1     2    1.0209E+05 -3.0796E+03   1.0517E+05  0.000E+00  0.000E+00  0.000E+00  4.79319E+01  1.478E-01  2.000E+01  2.000E+04 -1.540E-01
   1   14    3     1     3    1.0517E+05 -5.8865E+02   1.0576E+05  0.000E+00  0.000E+00  0.000E+00  4.74562E+01  1.493E-01  2.000E+01  2.000E+04 -2.943E-02
   1   15    4     1     4    1.0576E+05 -5.6943E+02   1.0633E+05  0.000E+00  0.000E+00  0.000E+00  4.69794E+01  1.498E-01  2.000E+01  2.000E+04 -2.847E-02
   1   16    5     1     5    1.0633E+05 -2.0112E+03   1.0834E+05  0.000E+00  0.000E+00  0.000E+00  4.65032E+01  1.509E-01  2.000E+01  2.000E+04 -1.006E-01
   1   16    6     1     6    1.0834E+05 -1.2468E+03   1.0958E+05  0.000E+00  0.000E+00  0.000E+00  4.60273E+01  1.523E-01  2.000E+01  2.000E+04 -6.234E-02
   1   16    7     1     7    1.0958E+05 -1.2047E+03   1.1079E+05  0.000E+00  0.000E+00  0.000E+00  4.55510E+01  1.533E-01  2.000E+01  2.000E+04 -6.024E-02
   1   16    8     1     8    1.1079E+05 -1.1785E+03   1.1197E+05  0.000E+00  0.000E+00  0.000E+00  4.50748E+01  1.543E-01  2.000E+01  2.000E+04 -5.893E-02
   1   16    9     1     9    1.1197E+05 -1.1418E+03   1.1311E+05  0.000E+00  0.000E+00  0.000E+00  4.45985E+01  1.553E-01  2.000E+01  2.000E+04 -5.709E-02
   1   16   10     1    10    1.1311E+05 -1.0851E+03   1.1419E+05  0.000E+00  0.000E+00  0.000E+00  4.41221E+01  1.562E-01  2.000E+01  2.000E+04 -5.425E-02
   1   16   11     1    11    1.1419E+05 -1.0024E+03   1.1520E+05  0.000E+00  0.000E+00  0.000E+00  4.36457E+01  1.571E-01  2.000E+01  2.000E+04 -5.012E-02
   1   16   12     1    12    1.1520E+05 -1.3001E+03   1.1650E+05  0.000E+00  0.000E+00  0.000E+00  4.31694E+01  1.580E-01  2.000E+01  2.000E+04 -6.501E-02
   1   15   13     1    13    1.1650E+05 -9.7144E+02   1.1747E+05  0.000E+00  0.000E+00  0.000E+00  4.26930E+01  1.589E-01  2.000E+01  2.000E+04 -4.857E-02
   1   14   14     1    14    1.1747E+05 -9.5441E+02   1.1842E+05  0.000E+00  0.000E+00  0.000E+00  4.22165E+01  1.597E-01  2.000E+01  2.000E+04 -4.772E-02
   1   13   15     1    15    1.1842E+05 -1.2017E+03   1.1962E+05  0.000E+00  0.000E+00  0.000E+00  4.17401E+01  1.606E-01  2.000E+01  2.000E+04 -6.009E-02
   1   12   16     1    16    1.1962E+05 -2.2771E+03   1.2190E+05  0.000E+00  0.000E+00  0.000E+00  4.12643E+01  1.620E-01  2.000E+01  2.000E+04 -1.139E-01
   1   12   17     1    17    1.2190E+05 -9.5084E+02   1.2285E+05  0.000E+00  0.000E+00  0.000E+00  4.07883E+01  1.633E-01  2.000E+01  2.000E+04 -4.754E-02
   1   12   18     1    18    1.2285E+05 -6.7951E+02   1.2353E+05  0.000E+00  0.000E+00  0.000E+00  4.03117E+01  1.639E-01  2.000E+01  2.000E+04 -3.398E-02
   1   12   19     1    19    1.2353E+05 -1.1236E+03   1.2465E+05  0.000E+00  0.000E+00  0.000E+00  3.98351E+01  1.647E-01  2.000E+01  2.000E+04 -5.618E-02
   1   13   20     1    20    1.2465E+05  3.9564E+02   1.2426E+05  0.000E+00  0.000E+00  0.000E+00  3.93581E+01  1.649E-01  2.000E+01  2.000E+04  1.978E-02
   1   14   21     1    21    1.2426E+05  7.8664E+02   1.2347E+05  0.000E+00  0.000E+00  0.000E+00  3.88804E+01  1.645E-01  2.000E+01  2.000E+04  3.933E-02
   1   14   22     1    22    1.2347E+05  5.1713E+03   1.1830E+05  0.000E+00  0.000E+00  0.000E+00  3.84007E+01  1.621E-01  2.000E+01  2.000E+04  2.586E-01
   1    9   30     2     1    5.0000E+04  3.6148E+01   4.9964E+04  0.000E+00  0.000E+00  0.000E+00  4.02408E+01  1.158E-01  2.000E+01  2.000E+04  1.807E-03
   1    9   29     2     2    4.9964E+04  2.2065E+02   4.9743E+04  0.000E+00  0.000E+00  0.000E+00  3.99907E+01  1.157E-01  2.000E+01  2.000E+04  1.103E-02
   1    9   28     2     3    4.9743E+04  1.4760E+03   4.8267E+04  0.000E+00  0.000E+00  0.000E+00  3.97395E+01  1.145E-01  2.000E+01  2.000E+04  7.380E-02
   1    9   27     2     4    4.8267E+04 -6.1267E+02   4.8880E+04  0.000E+00  0.000E+00  0.000E+00  3.94889E+01  1.139E-01  2.000E+01  2.000E+04 -3.063E-02
   1   10   26     2     5    4.8880E+04 -9.6535E+02   4.9845E+04  0.000E+00  0.000E+00  0.000E+00  3.92400E+01  1.150E-01  2.000E+01  2.000E+04 -4.827E-02
   1   11   25     2     6    4.9845E+04 -1.0335E+03   5.0879E+04  0.000E+00  0.000E+00  0.000E+00  3.89914E+01  1.164E-01  2.000E+01  2.000E+04 -5.167E-02
   1   12   24     2     7    5.0879E+04 -1.2127E+03   5.2091E+04  0.000E+00  0.000E+00  0.000E+00  3.87429E+01  1.179E-01  2.000E+01  2.000E+04 -6.064E-02
   1   13   23     2     8    5.2091E+04 -2.7529E+02   5.2367E+04  0.000E+00  0.000E+00  0.000E+00  3.84939E+01  1.189E-01  2.000E+01  2.000E+04 -1.376E-02
   1   14   22     2     9    5.2367E+04  2.0117E+03   5.0355E+04  0.000E+00  0.000E+00  0.000E+00  3.82427E+01  1.177E-01  2.000E+01  2.000E+04  1.006E-01
   1   14   22     3     1    1.6866E+05 -8.3983E+03   1.7705E+05  0.000E+00  0.000E+00  0.000E+00  3.77222E+01  1.667E-01  2.000E+01  2.000E+04 -4.199E-01
   1   15   23     3     2    1.7705E+05 -3.8361E+02   1.7744E+05  0.000E+00  0.000E+00  0.000E+00  3.68359E+01  1.692E-01  2.000E+01  2.000E+04 -1.918E-02
   1   15   24     3     3    1.7744E+05 -3.2331E+02   1.7776E+05  0.000E+00  0.000E+00  0.000E+00  3.59472E+01  1.694E-01  2.000E+01  2.000E+04 -1.617E-02
   1   15   25     3     4    1.7776E+05 -3.4236E+02   1.7810E+05  0.000E+00  0.000E+00  0.000E+00  3.50585E+01  1.696E-01  2.000E+01  2.000E+04 -1.712E-02
   1   15   26     3     5    1.7810E+05 -4.3175E+02   1.7853E+05  0.000E+00  0.000E+00  0.000E+00  3.41698E+01  1.698E-01  2.000E+01  2.000E+04 -2.159E-02
   1   16   27     3     6    1.7853E+05 -4.6758E+02   1.7900E+05  0.000E+00  0.000E+00  0.000E+00  3.32812E+01  1.701E-01  2.000E+01  2.000E+04 -2.338E-02
   1   17   28     3     7    1.7900E+05 -1.8220E+03   1.8082E+05  0.000E+00  0.000E+00  0.000E+00  3.23930E+01  1.707E-01  2.000E+01  2.000E+04 -9.110E-02
   1   18   29     3     8    1.8082E+05 -3.0618E+03   1.8389E+05  0.000E+00  0.000E+00  0.000E+00  3.15055E+01  1.721E-01  2.000E+01  2.000E+04 -1.531E-01
   1   18   30     3     9    1.8389E+05 -3.3445E+03   1.8723E+05  0.000E+00  0.000E+00  0.000E+00  3.06184E+01  1.739E-01  2.000E+01  2.000E+04 -1.672E-01



1
              HEAD IN LAYER   1 AT END OF TIME STEP   1 IN STRESS PERIOD   10
  ---------------------------------------------------------------------------

          1      2      3      4      5      6      7      8      9     10
         11     12     13     14     15     16     17     18     19     20
         21     22     23     24     25     26     27     28     29     30
 .........................................................................
   1  ****** ****** ****** ****** ****** ****** ****** ****** ****** ******
      ****** ****** ****** ****** ****** ****** ****** ****** ****** ******
      ****** ****** ****** ****** ****** ****** ****** ****** ****** ******
   2  ****** ****** ****** ****** ****** ****** ****** ****** ****** ******
      ****** ****** ****** ****** ****** ****** ****** ****** ****** ******
      ****** ****** ****** ****** ****** ****** ****** ****** ****** ******
   3  ****** ****** ****** ****** ****** ****** ****** ****** ****** ******
      ****** ****** ****** ****** ****** ****** ****** ****** ****** ******
      ****** ****** ****** ****** ****** ****** ****** ****** ****** ******
   4  ****** ****** ****** ****** ****** ****** ****** ****** ****** ******
      ****** ****** ****** ****** ****** ****** ****** ****** ****** ******
      ****** ****** ****** ****** ****** ****** ****** ****** ****** ******
   5  ****** ****** ****** ****** ****** ****** ****** ****** ****** ******
      ****** ****** ****** ****** ****** ****** ****** ****** ****** ******
      ****** ****** ****** ****** ****** ****** ****** ****** ****** ******
   6  ****** ****** ****** ****** ****** ****** ****** ****** ****** ******
      ****** ****** ****** ****** ****** ****** ****** ****** ****** ******
      ****** ****** ****** ****** ****** ****** ****** ****** ****** ******
   7  ****** ****** ****** ****** ****** ****** ****** ****** ****** ******
      ****** ****** ****** ****** ****** ****** ****** ****** ****** ******
      ****** ****** ****** ****** ****** ****** ****** ****** ****** ******
   8  ****** ****** ****** ****** ****** ****** ****** ****** ****** ******
      ****** ****** ****** ****** ****** ****** ****** ****** ****** ******
      ****** ****** ****** ****** ****** ****** ****** ****** ****** ******
   9  ****** ****** ****** ****** ****** ****** ****** ****** ****** ******
      ****** ****** ****** ****** ****** ****** ****** ****** ****** ******
      ****** ****** ****** ****** ****** ****** ****** ****** ****** ******
  10  ****** ****** ****** ****** ****** ****** ****** ****** ****** ******
      ****** ****** ****** ****** ****** ****** ****** ****** ****** ******
      ****** ****** ****** ****** ****** ****** ****** ****** ****** ******
  11  ****** ****** ****** ****** ****** ****** ****** ****** ****** ******
      ****** ****** ****** ****** ****** ****** ****** ****** ****** ******
      ****** ****** ****** ****** ****** ****** ****** ****** ****** ******
  12  ****** ****** ****** ****** ****** ****** ****** ****** ****** ******
      ****** ****** ****** ****** ****** ****** ****** ****** ****** ******
      ****** ****** ****** ****** ****** ****** ****** ****** ****** ******
  13  ****** ****** ****** ****** ****** ****** ****** ****** ****** ******
      ****** ****** ****** ****** ****** ****** ****** ****** ****** ******
      ****** ****** ****** ****** ****** ****** ****** ****** ****** ******
  14  ****** ****** ****** ****** ****** ****** ****** ****** ****** ******
      ****** ****** ****** ****** ****** ****** ****** ****** ****** ******
      ****** ****** ****** ****** ****** ****** ****** ****** ****** ******
  15  ****** ****** ****** ****** ****** ****** ****** ****** ****** ******
      ****** ****** ****** ****** ****** ****** ****** ****** ****** ******
      ****** ****** ****** ****** ****** ****** ****** ****** ****** ******
  16  ****** ****** ****** ****** ****** ****** ****** ****** ****** ******
      ****** ****** ****** ****** ****** ****** ****** ****** ****** ******
      ****** ****** ****** ****** ****** ****** ****** ****** ****** ******
  17  ****** ****** ****** ****** ****** ****** ****** ****** ****** ******
      ****** ****** ****** ****** ****** ****** ****** ****** ****** ******
      ****** ****** ****** ****** ****** ****** ****** ****** ****** ******
  18  ****** ****** ****** ****** ****** ****** ****** ****** ****** ******
      ****** ****** ****** ****** ****** ****** ****** ****** ****** ******
      ****** ****** ****** ****** ****** ****** ****** ****** ****** ******
  19  ****** ****** ****** ****** ****** ****** ****** ****** ****** ******
      ****** ****** ****** ****** ****** ****** ****** ****** ****** ******
      ****** ****** ****** ****** ****** ****** ****** ****** ****** ******
  20  ****** ****** ****** ****** ****** ****** ****** ****** ****** ******
      ****** ****** ****** ****** ****** ****** ****** ****** ****** ******
      ****** ****** ****** ****** ****** ****** ****** ****** ****** ******
  21  ****** ****** ****** ****** ****** ****** ****** ****** ****** ******
      ****** ****** ****** ****** ****** ****** ****** ****** ****** ******
      ****** ****** ****** ****** ****** ****** ****** ****** ****** ******
  22  ****** ****** ****** ****** ****** ****** ****** ****** ****** ******
      ****** ****** ****** ****** ****** ****** ****** ****** ****** ******
      ****** ****** ****** ****** ****** ****** ****** ****** ****** ******
  23  ****** ****** ****** ****** ****** ****** ****** ****** ****** ******
      ****** ****** ****** ****** ****** ****** ****** ****** ****** ******
      ****** ****** ****** ****** ****** ****** ****** ****** ****** ******
  24  ****** ****** ****** ****** ****** ****** ****** ****** ****** ******
      ****** ****** ****** ****** ****** ****** ****** ****** ****** ******
      ****** ****** ****** ****** ****** ****** ****** ****** ****** ******
  25  ****** ****** ****** ****** ****** ****** ****** ****** ****** ******
      ****** ****** ****** ****** ****** ****** ****** ****** ****** ******
      ****** ****** ****** ****** ****** ****** ****** ****** ****** ******

 HEAD WILL BE SAVED ON UNIT   51 AT END OF TIME STEP    1, STRESS PERIOD   10
1
  VOLUMETRIC BUDGET FOR ENTIRE MODEL AT END OF TIME STEP    1, STRESS PERIOD  10
  ------------------------------------------------------------------------------

     CUMULATIVE VOLUMES      L**3       RATES FOR THIS TIME STEP      L**3/T
     ------------------                 ------------------------

           IN:                                      IN:
           ---                                      ---
             STORAGE =    33837097.3940               STORAGE =           0.0000
       CONSTANT HEAD =    25232192.7493         CONSTANT HEAD =       31238.6231
               WELLS =           0.0000                 WELLS =           0.0000
            RECHARGE =    23901600.0000              RECHARGE =       55200.0000
      STREAM LEAKAGE =     8944650.6164        STREAM LEAKAGE =       10098.1059

            TOTAL IN =    91915540.7597              TOTAL IN =       96536.7290

          OUT:                                     OUT:
          ----                                     ----
             STORAGE =     2380034.5523               STORAGE =       15737.0402
       CONSTANT HEAD =           0.0000         CONSTANT HEAD =           0.0000
               WELLS =    30558794.2982                 WELLS =       33470.7495
            RECHARGE =           0.0000              RECHARGE =           0.0000
      STREAM LEAKAGE =    58976713.3928        STREAM LEAKAGE =       47328.9355

           TOTAL OUT =    91915542.2432             TOTAL OUT =       96536.7251

            IN - OUT =          -1.4835              IN - OUT =       3.8739E-03

 PERCENT DISCREPANCY =          -0.00     PERCENT DISCREPANCY =           0.00






         TIME SUMMARY AT END OF TIME STEP    1 IN STRESS PERIOD   10
                    SECONDS     MINUTES      HOURS       DAYS        YEARS
                    -----------------------------------------------------------
   TIME STEP LENGTH 7.86240E+06 1.31040E+05  2184.0      91.000     0.24914    
 STRESS PERIOD TIME 7.86240E+06 1.31040E+05  2184.0      91.000     0.24914    
         TOTAL TIME 7.88832E+07 1.31472E+06  21912.      913.00      2.4997    
1
1
                            STRESS PERIOD NO.   11, LENGTH =   91.00000    
                            -----------------------------------------------

                              NUMBER OF TIME STEPS =     1

                               MULTIPLIER FOR DELT =     1.500

                            INITIAL TIME STEP SIZE =   91.00000    

 WELL NO.  LAYER   ROW   COL   STRESS RATE         
 --------------------------------------------------
      1      1     14      6       0.000    
      2      1      3      9       0.000    
      3      1     20     10       0.000    
      4      1     14     20       0.000    
      5      1      6     22      -8915.    
      6      1     16     17      -8329.    
      7      1      8     28      -7077.    
      8      1     15     19      -9150.    

      8 WELLS

                 RECHARGE =   0.00000    

 REUSING STREAM SEGMENT DATA FROM LAST STRESS PERIOD
 
 SOLVING FOR HEAD 


     7 CALLS TO PCG ROUTINE FOR TIME STEP   1 IN STRESS PERIOD   11
    26 TOTAL ITERATIONS

 OUTPUT CONTROL FOR STRESS PERIOD   11   TIME STEP    1
    SAVE BUDGET
    SAVE HEAD FOR ALL LAYERS
    PRINT HEAD FOR ALL LAYERS
 UBDSV2 SAVING "STREAMFLOW OUT  " ON UNIT  50 AT TIME STEP  1, STRESS PERIOD  11



 STREAM LISTING     PERIOD     11   STEP        1

 LAYER ROW COL. STREAM  RCH.  FLOW INTO     FLOW TO   FLOW OUT OF   OVRLND.     DIRECT     STREAM       STREAM     STREAM     STREAM   STREAMBED  STREAMBED
                SEG.NO.  NO.  STRM. RCH.    AQUIFER    STRM. RCH.    RUNOFF     PRECIP       ET          HEAD       DEPTH      WIDTH   CONDCTNC.   GRADIENT

   1   13    1     1     1    1.0000E+05 -1.5206E+03   1.0152E+05  0.000E+00  0.000E+00  0.000E+00  4.84067E+01  1.453E-01  2.000E+01  2.000E+04 -7.603E-02
   1   13    2     1     2    1.0152E+05 -2.4485E+03   1.0397E+05  0.000E+00  0.000E+00  0.000E+00  4.79311E+01  1.470E-01  2.000E+01  2.000E+04 -1.224E-01
   1   14    3     1     3    1.0397E+05 -3.5794E+02   1.0433E+05  0.000E+00  0.000E+00  0.000E+00  4.74550E+01  1.482E-01  2.000E+01  2.000E+04 -1.790E-02
   1   15    4     1     4    1.0433E+05 -3.2768E+02   1.0465E+05  0.000E+00  0.000E+00  0.000E+00  4.69781E+01  1.485E-01  2.000E+01  2.000E+04 -1.638E-02
   1   16    5     1     5    1.0465E+05 -1.3235E+03   1.0598E+05  0.000E+00  0.000E+00  0.000E+00  4.65015E+01  1.492E-01  2.000E+01  2.000E+04 -6.617E-02
   1   16    6     1     6    1.0598E+05 -8.3264E+02   1.0681E+05  0.000E+00  0.000E+00  0.000E+00  4.60251E+01  1.501E-01  2.000E+01  2.000E+04 -4.163E-02
   1   16    7     1     7    1.0681E+05 -8.0818E+02   1.0762E+05  0.000E+00  0.000E+00  0.000E+00  4.55486E+01  1.508E-01  2.000E+01  2.000E+04 -4.041E-02
   1   16    8     1     8    1.0762E+05 -7.8749E+02   1.0841E+05  0.000E+00  0.000E+00  0.000E+00  4.50720E+01  1.515E-01  2.000E+01  2.000E+04 -3.937E-02
   1   16    9     1     9    1.0841E+05 -7.5292E+02   1.0916E+05  0.000E+00  0.000E+00  0.000E+00  4.45953E+01  1.521E-01  2.000E+01  2.000E+04 -3.765E-02
   1   16   10     1    10    1.0916E+05 -6.9728E+02   1.0986E+05  0.000E+00  0.000E+00  0.000E+00  4.41187E+01  1.528E-01  2.000E+01  2.000E+04 -3.486E-02
   1   16   11     1    11    1.0986E+05 -6.1270E+02   1.1047E+05  0.000E+00  0.000E+00  0.000E+00  4.36419E+01  1.533E-01  2.000E+01  2.000E+04 -3.063E-02
   1   16   12     1    12    1.1047E+05 -6.5449E+02   1.1112E+05  0.000E+00  0.000E+00  0.000E+00  4.31652E+01  1.538E-01  2.000E+01  2.000E+04 -3.272E-02
   1   15   13     1    13    1.1112E+05 -2.8319E+02   1.1141E+05  0.000E+00  0.000E+00  0.000E+00  4.26883E+01  1.542E-01  2.000E+01  2.000E+04 -1.416E-02
   1   14   14     1    14    1.1141E+05 -2.4858E+02   1.1166E+05  0.000E+00  0.000E+00  0.000E+00  4.22113E+01  1.544E-01  2.000E+01  2.000E+04 -1.243E-02
   1   13   15     1    15    1.1166E+05 -5.0158E+02   1.1216E+05  0.000E+00  0.000E+00  0.000E+00  4.17343E+01  1.548E-01  2.000E+01  2.000E+04 -2.508E-02
   1   12   16     1    16    1.1216E+05 -1.6006E+03   1.1376E+05  0.000E+00  0.000E+00  0.000E+00  4.12579E+01  1.556E-01  2.000E+01  2.000E+04 -8.003E-02
   1   12   17     1    17    1.1376E+05 -4.4451E+02   1.1420E+05  0.000E+00  0.000E+00  0.000E+00  4.07815E+01  1.565E-01  2.000E+01  2.000E+04 -2.223E-02
   1   12   18     1    18    1.1420E+05 -1.8079E+02   1.1438E+05  0.000E+00  0.000E+00  0.000E+00  4.03045E+01  1.567E-01  2.000E+01  2.000E+04 -9.039E-03
   1   12   19     1    19    1.1438E+05 -5.1135E+02   1.1489E+05  0.000E+00  0.000E+00  0.000E+00  3.98275E+01  1.570E-01  2.000E+01  2.000E+04 -2.557E-02
   1   13   20     1    20    1.1489E+05  1.0078E+03   1.1389E+05  0.000E+00  0.000E+00  0.000E+00  3.93500E+01  1.568E-01  2.000E+01  2.000E+04  5.039E-02
   1   14   21     1    21    1.1389E+05  1.3835E+03   1.1250E+05  0.000E+00  0.000E+00  0.000E+00  3.88717E+01  1.558E-01  2.000E+01  2.000E+04  6.918E-02
   1   14   22     1    22    1.1250E+05  5.3189E+03   1.0718E+05  0.000E+00  0.000E+00  0.000E+00  3.83917E+01  1.530E-01  2.000E+01  2.000E+04  2.659E-01
   1    9   30     2     1    5.0000E+04  5.2417E+02   4.9476E+04  0.000E+00  0.000E+00  0.000E+00  4.02405E+01  1.155E-01  2.000E+01  2.000E+04  2.621E-02
   1    9   29     2     2    4.9476E+04  7.0561E+02   4.8770E+04  0.000E+00  0.000E+00  0.000E+00  3.99896E+01  1.146E-01  2.000E+01  2.000E+04  3.528E-02
   1    9   28     2     3    4.8770E+04  1.9588E+03   4.6811E+04  0.000E+00  0.000E+00  0.000E+00  3.97378E+01  1.128E-01  2.000E+01  2.000E+04  9.794E-02
   1    9   27     2     4    4.6811E+04  2.6838E+01   4.6785E+04  0.000E+00  0.000E+00  0.000E+00  3.94864E+01  1.114E-01  2.000E+01  2.000E+04  1.342E-03
   1   10   26     2     5    4.6785E+04 -3.1144E+02   4.7096E+04  0.000E+00  0.000E+00  0.000E+00  3.92366E+01  1.116E-01  2.000E+01  2.000E+04 -1.557E-02
   1   11   25     2     6    4.7096E+04 -4.0337E+02   4.7499E+04  0.000E+00  0.000E+00  0.000E+00  3.89871E+01  1.121E-01  2.000E+01  2.000E+04 -2.017E-02
   1   12   24     2     7    4.7499E+04 -6.3969E+02   4.8139E+04  0.000E+00  0.000E+00  0.000E+00  3.87378E+01  1.128E-01  2.000E+01  2.000E+04 -3.198E-02
   1   13   23     2     8    4.8139E+04 -8.9493E+01   4.8229E+04  0.000E+00  0.000E+00  0.000E+00  3.84883E+01  1.133E-01  2.000E+01  2.000E+04 -4.475E-03
   1   14   22     2     9    4.8229E+04  2.2217E+03   4.6007E+04  0.000E+00  0.000E+00  0.000E+00  3.82368E+01  1.118E-01  2.000E+01  2.000E+04  1.111E-01
   1   14   22     3     1    1.5319E+05 -8.2527E+03   1.6144E+05  0.000E+00  0.000E+00  0.000E+00  3.77131E+01  1.575E-01  2.000E+01  2.000E+04 -4.126E-01
   1   15   23     3     2    1.6144E+05 -1.9159E+02   1.6164E+05  0.000E+00  0.000E+00  0.000E+00  3.68267E+01  1.601E-01  2.000E+01  2.000E+04 -9.579E-03
   1   15   24     3     3    1.6164E+05 -1.5819E+02   1.6179E+05  0.000E+00  0.000E+00  0.000E+00  3.59379E+01  1.602E-01  2.000E+01  2.000E+04 -7.910E-03
   1   15   25     3     4    1.6179E+05 -1.7342E+02   1.6197E+05  0.000E+00  0.000E+00  0.000E+00  3.50491E+01  1.603E-01  2.000E+01  2.000E+04 -8.671E-03
   1   15   26     3     5    1.6197E+05 -2.3608E+02   1.6220E+05  0.000E+00  0.000E+00  0.000E+00  3.41604E+01  1.604E-01  2.000E+01  2.000E+04 -1.180E-02
   1   16   27     3     6    1.6220E+05 -2.4459E+02   1.6245E+05  0.000E+00  0.000E+00  0.000E+00  3.32716E+01  1.605E-01  2.000E+01  2.000E+04 -1.223E-02
   1   17   28     3     7    1.6245E+05 -1.2124E+03   1.6366E+05  0.000E+00  0.000E+00  0.000E+00  3.23832E+01  1.610E-01  2.000E+01  2.000E+04 -6.062E-02
   1   18   29     3     8    1.6366E+05 -2.4399E+03   1.6610E+05  0.000E+00  0.000E+00  0.000E+00  3.14954E+01  1.620E-01  2.000E+01  2.000E+04 -1.220E-01
   1   18   30     3     9    1.6610E+05 -2.8554E+03   1.6896E+05  0.000E+00  0.000E+00  0.000E+00  3.06080E+01  1.636E-01  2.000E+01  2.000E+04 -1.428E-01



1
              HEAD IN LAYER   1 AT END OF TIME STEP   1 IN STRESS PERIOD   11
  ---------------------------------------------------------------------------

          1      2      3      4      5      6      7      8      9     10
         11     12     13     14     15     16     17     18     19     20
         21     22     23     24     25     26     27     28     29     30
 .........................................................................
   1  ****** ****** ****** ****** ****** ****** ****** ****** ****** ******
      ****** ****** ****** ****** ****** ****** ****** ****** ****** ******
      ****** ****** ****** ****** ****** ****** ****** ****** ****** ******
   2  ****** ****** ****** ****** ****** ****** ****** ****** ****** ******
      ****** ****** ****** ****** ****** ****** ****** ****** ****** ******
      ****** ****** ****** ****** ****** ****** ****** ****** ****** ******
   3  ****** ****** ****** ****** ****** ****** ****** ****** ****** ******
      ****** ****** ****** ****** ****** ****** ****** ****** ****** ******
      ****** ****** ****** ****** ****** ****** ****** ****** ****** ******
   4  ****** ****** ****** ****** ****** ****** ****** ****** ****** ******
      ****** ****** ****** ****** ****** ****** ****** ****** ****** ******
      ****** ****** ****** ****** ****** ****** ****** ****** ****** ******
   5  ****** ****** ****** ****** ****** ****** ****** ****** ****** ******
      ****** ****** ****** ****** ****** ****** ****** ****** ****** ******
      ****** ****** ****** ****** ****** ****** ****** ****** ****** ******
   6  ****** ****** ****** ****** ****** ****** ****** ****** ****** ******
      ****** ****** ****** ****** ****** ****** ****** ****** ****** ******
      ****** ****** ****** ****** ****** ****** ****** ****** ****** ******
   7  ****** ****** ****** ****** ****** ****** ****** ****** ****** ******
      ****** ****** ****** ****** ****** ****** ****** ****** ****** ******
      ****** ****** ****** ****** ****** ****** ****** ****** ****** ******
   8  ****** ****** ****** ****** ****** ****** ****** ****** ****** ******
      ****** ****** ****** ****** ****** ****** ****** ****** ****** ******
      ****** ****** ****** ****** ****** ****** ****** ****** ****** ******
   9  ****** ****** ****** ****** ****** ****** ****** ****** ****** ******
      ****** ****** ****** ****** ****** ****** ****** ****** ****** ******
      ****** ****** ****** ****** ****** ****** ****** ****** ****** ******
  10  ****** ****** ****** ****** ****** ****** ****** ****** ****** ******
      ****** ****** ****** ****** ****** ****** ****** ****** ****** ******
      ****** ****** ****** ****** ****** ****** ****** ****** ****** ******
  11  ****** ****** ****** ****** ****** ****** ****** ****** ****** ******
      ****** ****** ****** ****** ****** ****** ****** ****** ****** ******
      ****** ****** ****** ****** ****** ****** ****** ****** ****** ******
  12  ****** ****** ****** ****** ****** ****** ****** ****** ****** ******
      ****** ****** ****** ****** ****** ****** ****** ****** ****** ******
      ****** ****** ****** ****** ****** ****** ****** ****** ****** ******
  13  ****** ****** ****** ****** ****** ****** ****** ****** ****** ******
      ****** ****** ****** ****** ****** ****** ****** ****** ****** ******
      ****** ****** ****** ****** ****** ****** ****** ****** ****** ******
  14  ****** ****** ****** ****** ****** ****** ****** ****** ****** ******
      ****** ****** ****** ****** ****** ****** ****** ****** ****** ******
      ****** ****** ****** ****** ****** ****** ****** ****** ****** ******
  15  ****** ****** ****** ****** ****** ****** ****** ****** ****** ******
      ****** ****** ****** ****** ****** ****** ****** ****** ****** ******
      ****** ****** ****** ****** ****** ****** ****** ****** ****** ******
  16  ****** ****** ****** ****** ****** ****** ****** ****** ****** ******
      ****** ****** ****** ****** ****** ****** ****** ****** ****** ******
      ****** ****** ****** ****** ****** ****** ****** ****** ****** ******
  17  ****** ****** ****** ****** ****** ****** ****** ****** ****** ******
      ****** ****** ****** ****** ****** ****** ****** ****** ****** ******
      ****** ****** ****** ****** ****** ****** ****** ****** ****** ******
  18  ****** ****** ****** ****** ****** ****** ****** ****** ****** ******
      ****** ****** ****** ****** ****** ****** ****** ****** ****** ******
      ****** ****** ****** ****** ****** ****** ****** ****** ****** ******
  19  ****** ****** ****** ****** ****** ****** ****** ****** ****** ******
      ****** ****** ****** ****** ****** ****** ****** ****** ****** ******
      ****** ****** ****** ****** ****** ****** ****** ****** ****** ******
  20  ****** ****** ****** ****** ****** ****** ****** ****** ****** ******
      ****** ****** ****** ****** ****** ****** ****** ****** ****** ******
      ****** ****** ****** ****** ****** ****** ****** ****** ****** ******
  21  ****** ****** ****** ****** ****** ****** ****** ****** ****** ******
      ****** ****** ****** ****** ****** ****** ****** ****** ****** ******
      ****** ****** ****** ****** ****** ****** ****** ****** ****** ******
  22  ****** ****** ****** ****** ****** ****** ****** ****** ****** ******
      ****** ****** ****** ****** ****** ****** ****** ****** ****** ******
      ****** ****** ****** ****** ****** ****** ****** ****** ****** ******
  23  ****** ****** ****** ****** ****** ****** ****** ****** ****** ******
      ****** ****** ****** ****** ****** ****** ****** ****** ****** ******
      ****** ****** ****** ****** ****** ****** ****** ****** ****** ******
  24  ****** ****** ****** ****** ****** ****** ****** ****** ****** ******
      ****** ****** ****** ****** ****** ****** ****** ****** ****** ******
      ****** ****** ****** ****** ****** ****** ****** ****** ****** ******
  25  ****** ****** ****** ****** ****** ****** ****** ****** ****** ******
      ****** ****** ****** ****** ****** ****** ****** ****** ****** ******
      ****** ****** ****** ****** ****** ****** ****** ****** ****** ******

 HEAD WILL BE SAVED ON UNIT   51 AT END OF TIME STEP    1, STRESS PERIOD   11
1
  VOLUMETRIC BUDGET FOR ENTIRE MODEL AT END OF TIME STEP    1, STRESS PERIOD  11
  ------------------------------------------------------------------------------

     CUMULATIVE VOLUMES      L**3       RATES FOR THIS TIME STEP      L**3/T
     ------------------                 ------------------------

           IN:                                      IN:
           ---                                      ---
             STORAGE =    35466480.4083               STORAGE =       17905.3078
       CONSTANT HEAD =    28373593.2985         CONSTANT HEAD =       34520.8852
               WELLS =           0.0000                 WELLS =           0.0000
            RECHARGE =    23901600.0000              RECHARGE =           0.0000
      STREAM LEAKAGE =    10141066.1058        STREAM LEAKAGE =       13147.4230

            TOTAL IN =    97882739.8126              TOTAL IN =       65573.6160

          OUT:                                     OUT:
          ----                                     ----
             STORAGE =     2380034.5523               STORAGE =           0.0000
       CONSTANT HEAD =           0.0000         CONSTANT HEAD =           0.0000
               WELLS =    33604632.5032                 WELLS =       33470.7495
            RECHARGE =           0.0000              RECHARGE =           0.0000
      STREAM LEAKAGE =    61898074.6837        STREAM LEAKAGE =       32102.8713

           TOTAL OUT =    97882741.7391             TOTAL OUT =       65573.6208

            IN - OUT =          -1.9265              IN - OUT =      -4.8681E-03

 PERCENT DISCREPANCY =          -0.00     PERCENT DISCREPANCY =          -0.00






         TIME SUMMARY AT END OF TIME STEP    1 IN STRESS PERIOD   11
                    SECONDS     MINUTES      HOURS       DAYS        YEARS
                    -----------------------------------------------------------
   TIME STEP LENGTH 7.86240E+06 1.31040E+05  2184.0      91.000     0.24914    
 STRESS PERIOD TIME 7.86240E+06 1.31040E+05  2184.0      91.000     0.24914    
         TOTAL TIME 8.67456E+07 1.44576E+06  24096.      1004.0      2.7488    
1
1
                            STRESS PERIOD NO.   12, LENGTH =   91.00000    
                            -----------------------------------------------

                              NUMBER OF TIME STEPS =     1

                               MULTIPLIER FOR DELT =     1.500

                            INITIAL TIME STEP SIZE =   91.00000    

 WELL NO.  LAYER   ROW   COL   STRESS RATE         
 --------------------------------------------------
      1      1     14      6       0.000    
      2      1      3      9       0.000    
      3      1     20     10       0.000    
      4      1     14     20       0.000    
      5      1      6     22      -8915.    
      6      1     16     17      -8329.    
      7      1      8     28      -7077.    
      8      1     15     19      -9150.    

      8 WELLS

                 RECHARGE =  1.000000E-03

 REUSING STREAM SEGMENT DATA FROM LAST STRESS PERIOD
 
 SOLVING FOR HEAD 


     7 CALLS TO PCG ROUTINE FOR TIME STEP   1 IN STRESS PERIOD   12
    24 TOTAL ITERATIONS

 OUTPUT CONTROL FOR STRESS PERIOD   12   TIME STEP    1
    SAVE BUDGET
    SAVE HEAD FOR ALL LAYERS
    PRINT HEAD FOR ALL LAYERS
 UBDSV2 SAVING "STREAMFLOW OUT  " ON UNIT  50 AT TIME STEP  1, STRESS PERIOD  12



 STREAM LISTING     PERIOD     12   STEP        1

 LAYER ROW COL. STREAM  RCH.  FLOW INTO     FLOW TO   FLOW OUT OF   OVRLND.     DIRECT     STREAM       STREAM     STREAM     STREAM   STREAMBED  STREAMBED
                SEG.NO.  NO.  STRM. RCH.    AQUIFER    STRM. RCH.    RUNOFF     PRECIP       ET          HEAD       DEPTH      WIDTH   CONDCTNC.   GRADIENT

   1   13    1     1     1    1.0000E+05 -1.6656E+03   1.0167E+05  0.000E+00  0.000E+00  0.000E+00  4.84067E+01  1.454E-01  2.000E+01  2.000E+04 -8.328E-02
   1   13    2     1     2    1.0167E+05 -2.6045E+03   1.0427E+05  0.000E+00  0.000E+00  0.000E+00  4.79313E+01  1.472E-01  2.000E+01  2.000E+04 -1.302E-01
   1   14    3     1     3    1.0427E+05 -4.3662E+02   1.0471E+05  0.000E+00  0.000E+00  0.000E+00  4.74553E+01  1.485E-01  2.000E+01  2.000E+04 -2.183E-02
   1   15    4     1     4    1.0471E+05 -4.1015E+02   1.0512E+05  0.000E+00  0.000E+00  0.000E+00  4.69784E+01  1.489E-01  2.000E+01  2.000E+04 -2.051E-02
   1   16    5     1     5    1.0512E+05 -1.5333E+03   1.0665E+05  0.000E+00  0.000E+00  0.000E+00  4.65020E+01  1.497E-01  2.000E+01  2.000E+04 -7.667E-02
   1   16    6     1     6    1.0665E+05 -9.6318E+02   1.0761E+05  0.000E+00  0.000E+00  0.000E+00  4.60258E+01  1.508E-01  2.000E+01  2.000E+04 -4.816E-02
   1   16    7     1     7    1.0761E+05 -9.3366E+02   1.0855E+05  0.000E+00  0.000E+00  0.000E+00  4.55493E+01  1.516E-01  2.000E+01  2.000E+04 -4.668E-02
   1   16    8     1     8    1.0855E+05 -9.1192E+02   1.0946E+05  0.000E+00  0.000E+00  0.000E+00  4.50728E+01  1.523E-01  2.000E+01  2.000E+04 -4.560E-02
   1   16    9     1     9    1.0946E+05 -8.7776E+02   1.1034E+05  0.000E+00  0.000E+00  0.000E+00  4.45963E+01  1.531E-01  2.000E+01  2.000E+04 -4.389E-02
   1   16   10     1    10    1.1034E+05 -8.2341E+02   1.1116E+05  0.000E+00  0.000E+00  0.000E+00  4.41197E+01  1.538E-01  2.000E+01  2.000E+04 -4.117E-02
   1   16   11     1    11    1.1116E+05 -7.4102E+02   1.1190E+05  0.000E+00  0.000E+00  0.000E+00  4.36431E+01  1.544E-01  2.000E+01  2.000E+04 -3.705E-02
   1   16   12     1    12    1.1190E+05 -8.5624E+02   1.1276E+05  0.000E+00  0.000E+00  0.000E+00  4.31665E+01  1.551E-01  2.000E+01  2.000E+04 -4.281E-02
   1   15   13     1    13    1.1276E+05 -5.0038E+02   1.1326E+05  0.000E+00  0.000E+00  0.000E+00  4.26898E+01  1.557E-01  2.000E+01  2.000E+04 -2.502E-02
   1   14   14     1    14    1.1326E+05 -4.6647E+02   1.1372E+05  0.000E+00  0.000E+00  0.000E+00  4.22129E+01  1.561E-01  2.000E+01  2.000E+04 -2.332E-02
   1   13   15     1    15    1.1372E+05 -7.1227E+02   1.1444E+05  0.000E+00  0.000E+00  0.000E+00  4.17361E+01  1.565E-01  2.000E+01  2.000E+04 -3.561E-02
   1   12   16     1    16    1.1444E+05 -1.7850E+03   1.1622E+05  0.000E+00  0.000E+00  0.000E+00  4.12598E+01  1.576E-01  2.000E+01  2.000E+04 -8.925E-02
   1   12   17     1    17    1.1622E+05 -5.9844E+02   1.1682E+05  0.000E+00  0.000E+00  0.000E+00  4.07835E+01  1.585E-01  2.000E+01  2.000E+04 -2.992E-02
   1   12   18     1    18    1.1682E+05 -3.3681E+02   1.1716E+05  0.000E+00  0.000E+00  0.000E+00  4.03067E+01  1.589E-01  2.000E+01  2.000E+04 -1.684E-02
   1   12   19     1    19    1.1716E+05 -7.0424E+02   1.1786E+05  0.000E+00  0.000E+00  0.000E+00  3.98298E+01  1.594E-01  2.000E+01  2.000E+04 -3.521E-02
   1   13   20     1    20    1.1786E+05  7.9728E+02   1.1706E+05  0.000E+00  0.000E+00  0.000E+00  3.93525E+01  1.593E-01  2.000E+01  2.000E+04  3.986E-02
   1   14   21     1    21    1.1706E+05  1.1894E+03   1.1587E+05  0.000E+00  0.000E+00  0.000E+00  3.88744E+01  1.585E-01  2.000E+01  2.000E+04  5.947E-02
   1   14   22     1    22    1.1587E+05  5.2655E+03   1.1061E+05  0.000E+00  0.000E+00  0.000E+00  3.83945E+01  1.559E-01  2.000E+01  2.000E+04  2.633E-01
   1    9   30     2     1    5.0000E+04  3.4769E+02   4.9652E+04  0.000E+00  0.000E+00  0.000E+00  4.02406E+01  1.156E-01  2.000E+01  2.000E+04  1.738E-02
   1    9   29     2     2    4.9652E+04  5.3117E+02   4.9121E+04  0.000E+00  0.000E+00  0.000E+00  3.99900E+01  1.150E-01  2.000E+01  2.000E+04  2.656E-02
   1    9   28     2     3    4.9121E+04  1.7879E+03   4.7333E+04  0.000E+00  0.000E+00  0.000E+00  3.97384E+01  1.134E-01  2.000E+01  2.000E+04  8.939E-02
   1    9   27     2     4    4.7333E+04 -1.8248E+02   4.7516E+04  0.000E+00  0.000E+00  0.000E+00  3.94872E+01  1.122E-01  2.000E+01  2.000E+04 -9.124E-03
   1   10   26     2     5    4.7516E+04 -5.4140E+02   4.8057E+04  0.000E+00  0.000E+00  0.000E+00  3.92378E+01  1.128E-01  2.000E+01  2.000E+04 -2.707E-02
   1   11   25     2     6    4.8057E+04 -6.2943E+02   4.8687E+04  0.000E+00  0.000E+00  0.000E+00  3.89886E+01  1.136E-01  2.000E+01  2.000E+04 -3.147E-02
   1   12   24     2     7    4.8687E+04 -8.4602E+02   4.9533E+04  0.000E+00  0.000E+00  0.000E+00  3.87396E+01  1.146E-01  2.000E+01  2.000E+04 -4.230E-02
   1   13   23     2     8    4.9533E+04 -1.6714E+02   4.9700E+04  0.000E+00  0.000E+00  0.000E+00  3.84903E+01  1.153E-01  2.000E+01  2.000E+04 -8.357E-03
   1   14   22     2     9    4.9700E+04  2.1544E+03   4.7545E+04  0.000E+00  0.000E+00  0.000E+00  3.82389E+01  1.139E-01  2.000E+01  2.000E+04  1.077E-01
   1   14   22     3     1    1.5815E+05 -8.3031E+03   1.6646E+05  0.000E+00  0.000E+00  0.000E+00  3.77161E+01  1.605E-01  2.000E+01  2.000E+04 -4.152E-01
   1   15   23     3     2    1.6646E+05 -2.6360E+02   1.6672E+05  0.000E+00  0.000E+00  0.000E+00  3.68297E+01  1.630E-01  2.000E+01  2.000E+04 -1.318E-02
   1   15   24     3     3    1.6672E+05 -2.2327E+02   1.6694E+05  0.000E+00  0.000E+00  0.000E+00  3.59410E+01  1.632E-01  2.000E+01  2.000E+04 -1.116E-02
   1   15   25     3     4    1.6694E+05 -2.3976E+02   1.6718E+05  0.000E+00  0.000E+00  0.000E+00  3.50522E+01  1.633E-01  2.000E+01  2.000E+04 -1.199E-02
   1   15   26     3     5    1.6718E+05 -3.1355E+02   1.6750E+05  0.000E+00  0.000E+00  0.000E+00  3.41635E+01  1.635E-01  2.000E+01  2.000E+04 -1.568E-02
   1   16   27     3     6    1.6750E+05 -3.3136E+02   1.6783E+05  0.000E+00  0.000E+00  0.000E+00  3.32748E+01  1.637E-01  2.000E+01  2.000E+04 -1.657E-02
   1   17   28     3     7    1.6783E+05 -1.4331E+03   1.6926E+05  0.000E+00  0.000E+00  0.000E+00  3.23864E+01  1.642E-01  2.000E+01  2.000E+04 -7.165E-02
   1   18   29     3     8    1.6926E+05 -2.6405E+03   1.7190E+05  0.000E+00  0.000E+00  0.000E+00  3.14987E+01  1.654E-01  2.000E+01  2.000E+04 -1.320E-01
   1   18   30     3     9    1.7190E+05 -3.0235E+03   1.7493E+05  0.000E+00  0.000E+00  0.000E+00  3.06115E+01  1.670E-01  2.000E+01  2.000E+04 -1.512E-01



1
              HEAD IN LAYER   1 AT END OF TIME STEP   1 IN STRESS PERIOD   12
  ---------------------------------------------------------------------------

          1      2      3      4      5      6      7      8      9     10
         11     12     13     14     15     16     17     18     19     20
         21     22     23     24     25     26     27     28     29     30
 .........................................................................
   1  ****** ****** ****** ****** ****** ****** ****** ****** ****** ******
      ****** ****** ****** ****** ****** ****** ****** ****** ****** ******
      ****** ****** ****** ****** ****** ****** ****** ****** ****** ******
   2  ****** ****** ****** ****** ****** ****** ****** ****** ****** ******
      ****** ****** ****** ****** ****** ****** ****** ****** ****** ******
      ****** ****** ****** ****** ****** ****** ****** ****** ****** ******
   3  ****** ****** ****** ****** ****** ****** ****** ****** ****** ******
      ****** ****** ****** ****** ****** ****** ****** ****** ****** ******
      ****** ****** ****** ****** ****** ****** ****** ****** ****** ******
   4  ****** ****** ****** ****** ****** ****** ****** ****** ****** ******
      ****** ****** ****** ****** ****** ****** ****** ****** ****** ******
      ****** ****** ****** ****** ****** ****** ****** ****** ****** ******
   5  ****** ****** ****** ****** ****** ****** ****** ****** ****** ******
      ****** ****** ****** ****** ****** ****** ****** ****** ****** ******
      ****** ****** ****** ****** ****** ****** ****** ****** ****** ******
   6  ****** ****** ****** ****** ****** ****** ****** ****** ****** ******
      ****** ****** ****** ****** ****** ****** ****** ****** ****** ******
      ****** ****** ****** ****** ****** ****** ****** ****** ****** ******
   7  ****** ****** ****** ****** ****** ****** ****** ****** ****** ******
      ****** ****** ****** ****** ****** ****** ****** ****** ****** ******
      ****** ****** ****** ****** ****** ****** ****** ****** ****** ******
   8  ****** ****** ****** ****** ****** ****** ****** ****** ****** ******
      ****** ****** ****** ****** ****** ****** ****** ****** ****** ******
      ****** ****** ****** ****** ****** ****** ****** ****** ****** ******
   9  ****** ****** ****** ****** ****** ****** ****** ****** ****** ******
      ****** ****** ****** ****** ****** ****** ****** ****** ****** ******
      ****** ****** ****** ****** ****** ****** ****** ****** ****** ******
  10  ****** ****** ****** ****** ****** ****** ****** ****** ****** ******
      ****** ****** ****** ****** ****** ****** ****** ****** ****** ******
      ****** ****** ****** ****** ****** ****** ****** ****** ****** ******
  11  ****** ****** ****** ****** ****** ****** ****** ****** ****** ******
      ****** ****** ****** ****** ****** ****** ****** ****** ****** ******
      ****** ****** ****** ****** ****** ****** ****** ****** ****** ******
  12  ****** ****** ****** ****** ****** ****** ****** ****** ****** ******
      ****** ****** ****** ****** ****** ****** ****** ****** ****** ******
      ****** ****** ****** ****** ****** ****** ****** ****** ****** ******
  13  ****** ****** ****** ****** ****** ****** ****** ****** ****** ******
      ****** ****** ****** ****** ****** ****** ****** ****** ****** ******
      ****** ****** ****** ****** ****** ****** ****** ****** ****** ******
  14  ****** ****** ****** ****** ****** ****** ****** ****** ****** ******
      ****** ****** ****** ****** ****** ****** ****** ****** ****** ******
      ****** ****** ****** ****** ****** ****** ****** ****** ****** ******
  15  ****** ****** ****** ****** ****** ****** ****** ****** ****** ******
      ****** ****** ****** ****** ****** ****** ****** ****** ****** ******
      ****** ****** ****** ****** ****** ****** ****** ****** ****** ******
  16  ****** ****** ****** ****** ****** ****** ****** ****** ****** ******
      ****** ****** ****** ****** ****** ****** ****** ****** ****** ******
      ****** ****** ****** ****** ****** ****** ****** ****** ****** ******
  17  ****** ****** ****** ****** ****** ****** ****** ****** ****** ******
      ****** ****** ****** ****** ****** ****** ****** ****** ****** ******
      ****** ****** ****** ****** ****** ****** ****** ****** ****** ******
  18  ****** ****** ****** ****** ****** ****** ****** ****** ****** ******
      ****** ****** ****** ****** ****** ****** ****** ****** ****** ******
      ****** ****** ****** ****** ****** ****** ****** ****** ****** ******
  19  ****** ****** ****** ****** ****** ****** ****** ****** ****** ******
      ****** ****** ****** ****** ****** ****** ****** ****** ****** ******
      ****** ****** ****** ****** ****** ****** ****** ****** ****** ******
  20  ****** ****** ****** ****** ****** ****** ****** ****** ****** ******
      ****** ****** ****** ****** ****** ****** ****** ****** ****** ******
      ****** ****** ****** ****** ****** ****** ****** ****** ****** ******
  21  ****** ****** ****** ****** ****** ****** ****** ****** ****** ******
      ****** ****** ****** ****** ****** ****** ****** ****** ****** ******
      ****** ****** ****** ****** ****** ****** ****** ****** ****** ******
  22  ****** ****** ****** ****** ****** ****** ****** ****** ****** ******
      ****** ****** ****** ****** ****** ****** ****** ****** ****** ******
      ****** ****** ****** ****** ****** ****** ****** ****** ****** ******
  23  ****** ****** ****** ****** ****** ****** ****** ****** ****** ******
      ****** ****** ****** ****** ****** ****** ****** ****** ****** ******
      ****** ****** ****** ****** ****** ****** ****** ****** ****** ******
  24  ****** ****** ****** ****** ****** ****** ****** ****** ****** ******
      ****** ****** ****** ****** ****** ****** ****** ****** ****** ******
      ****** ****** ****** ****** ****** ****** ****** ****** ****** ******
  25  ****** ****** ****** ****** ****** ****** ****** ****** ****** ******
      ****** ****** ****** ****** ****** ****** ****** ****** ****** ******
      ****** ****** ****** ****** ****** ****** ****** ****** ****** ******

 HEAD WILL BE SAVED ON UNIT   51 AT END OF TIME STEP    1, STRESS PERIOD   12
1
  VOLUMETRIC BUDGET FOR ENTIRE MODEL AT END OF TIME STEP    1, STRESS PERIOD  12
  ------------------------------------------------------------------------------

     CUMULATIVE VOLUMES      L**3       RATES FOR THIS TIME STEP      L**3/T
     ------------------                 ------------------------

           IN:                                      IN:
           ---                                      ---
             STORAGE =    35467244.3100               STORAGE =           8.3945
       CONSTANT HEAD =    31451408.0401         CONSTANT HEAD =       33822.1400
               WELLS =           0.0000                 WELLS =           0.0000
            RECHARGE =    26413200.0000              RECHARGE =       27600.0000
      STREAM LEAKAGE =    11239737.8798        STREAM LEAKAGE =       12073.3162

            TOTAL IN =   104571590.2299              TOTAL IN =       73503.8507

          OUT:                                     OUT:
          ----                                     ----
             STORAGE =     2656119.4884               STORAGE =        3033.9004
       CONSTANT HEAD =           0.0000         CONSTANT HEAD =           0.0000
               WELLS =    36650470.7081                 WELLS =       33470.7495
            RECHARGE =           0.0000              RECHARGE =           0.0000
      STREAM LEAKAGE =    65265001.8758        STREAM LEAKAGE =       36999.1999

           TOTAL OUT =   104571592.0724             TOTAL OUT =       73503.8498

            IN - OUT =          -1.8425              IN - OUT =       9.2355E-04

 PERCENT DISCREPANCY =          -0.00     PERCENT DISCREPANCY =           0.00






         TIME SUMMARY AT END OF TIME STEP    1 IN STRESS PERIOD   12
                    SECONDS     MINUTES      HOURS       DAYS        YEARS
                    -----------------------------------------------------------
   TIME STEP LENGTH 7.86240E+06 1.31040E+05  2184.0      91.000     0.24914    
 STRESS PERIOD TIME 7.86240E+06 1.31040E+05  2184.0      91.000     0.24914    
         TOTAL TIME 9.46080E+07 1.57680E+06  26280.      1095.0      2.9979    
1

 Run end date and time (yyyy/mm/dd hh:mm:ss): 2018/10/11 13:16:49
 Elapsed run time:  0.057 Seconds

