                                  MODFLOW-2005     
      U.S. GEOLOGICAL SURVEY MODULAR FINITE-DIFFERENCE GROUND-WATER FLOW MODEL
                            VERSION 1.11.00 8/8/2013

 LIST FILE: supply2.lst
                         UNIT   10

 OPENING ..\data\supply.dis
 FILE TYPE:DIS   UNIT   11   STATUS:OLD    
 FORMAT:FORMATTED              ACCESS:SEQUENTIAL          

 OPENING ..\data\supply.ba6
 FILE TYPE:BAS6   UNIT   12   STATUS:OLD    
 FORMAT:FORMATTED              ACCESS:SEQUENTIAL          

 OPENING ..\data\supply_het.bc6
 FILE TYPE:BCF6   UNIT   13   STATUS:OLD    
 FORMAT:FORMATTED              ACCESS:SEQUENTIAL          

 OPENING ..\data\supply.rch
 FILE TYPE:RCH   UNIT   15   STATUS:OLD    
 FORMAT:FORMATTED              ACCESS:SEQUENTIAL          

 OPENING ..\data\supply2.sfr
 FILE TYPE:SFR   UNIT   16   STATUS:OLD    
 FORMAT:FORMATTED              ACCESS:SEQUENTIAL          

 OPENING ..\data\supply.oc
 FILE TYPE:OC   UNIT   17   STATUS:OLD    
 FORMAT:FORMATTED              ACCESS:SEQUENTIAL          

 OPENING ..\data\supply.pcg
 FILE TYPE:PCG   UNIT   18   STATUS:OLD    
 FORMAT:FORMATTED              ACCESS:SEQUENTIAL          

 OPENING supply2.wel
 FILE TYPE:WEL   UNIT   19   STATUS:OLD    
 FORMAT:FORMATTED              ACCESS:SEQUENTIAL          

 OPENING supply2sf.cbc
 FILE TYPE:DATA(BINARY)   UNIT   50   STATUS:UNKNOWN
 FORMAT:BINARY                 ACCESS:SEQUENTIAL          

 OPENING supply2hd.bhd
 FILE TYPE:DATA(BINARY)   UNIT   51   STATUS:UNKNOWN
 FORMAT:BINARY                 ACCESS:SEQUENTIAL          

 BAS -- BASIC PACKAGE, VERSION 7, 5/2/2005 INPUT READ FROM UNIT   12
 
 MODFLOW was compiled using uniform precision
 Precision of REAL and DOUBLE PRECISION variables:          15

 DISCRETIZATION INPUT DATA READ FROM UNIT   11
    1 LAYERS        25 ROWS        30 COLUMNS
   12 STRESS PERIOD(S) IN SIMULATION
 MODEL TIME UNIT IS DAYS
 MODEL LENGTH UNIT IS UNDEFINED
  Confining bed flag for each layer:
   0

                     DELR =   200.000    

                     DELC =   200.000    

 TOP ELEVATION OF LAYER 1 =  100.0000    

   MODEL LAYER BOTTOM EL. =   0.00000     FOR LAYER   1


 STRESS PERIOD     LENGTH       TIME STEPS     MULTIPLIER FOR DELT    SS FLAG
 ----------------------------------------------------------------------------
        1         92.00000          1                    1.500         TR
        2         91.00000          1                    1.500         TR
        3         91.00000          1                    1.500         TR
        4         91.00000          1                    1.500         TR
        5         92.00000          1                    1.500         TR
        6         91.00000          1                    1.500         TR
        7         91.00000          1                    1.500         TR
        8         91.00000          1                    1.500         TR
        9         92.00000          1                    1.500         TR
       10         91.00000          1                    1.500         TR
       11         91.00000          1                    1.500         TR
       12         91.00000          1                    1.500         TR

 TRANSIENT SIMULATION



 
 #MODOFC transient water supply sample problem                                   
 #                                                                               
 THE FREE FORMAT OPTION HAS BEEN SELECTED



                     BOUNDARY ARRAY FOR LAYER   1
 READING ON UNIT   12 WITH FORMAT: (20I4)              

 AQUIFER HEAD WILL BE SET TO   0.0000     AT ALL NO-FLOW NODES (IBOUND=0).



                       INITIAL HEAD FOR LAYER   1
 READING ON UNIT   12 WITH FORMAT: (10F13.0)           

 OUTPUT CONTROL IS SPECIFIED ONLY AT TIME STEPS FOR WHICH OUTPUT IS DESIRED
 COMPACT CELL-BY-CELL BUDGET FILES WILL BE WRITTEN
 HEAD PRINT FORMAT CODE IS  18    DRAWDOWN PRINT FORMAT CODE IS   0
 HEADS WILL BE SAVED ON UNIT   51    DRAWDOWNS WILL BE SAVED ON UNIT    0

 BCF -- BLOCK-CENTERED FLOW PACKAGE, VERSION 7, 5/2/2005
         INPUT READ FROM UNIT 13
 TRANSIENT SIMULATION
 HEAD AT CELLS THAT CONVERT TO DRY=   0.0000    
 WETTING CAPABILITY IS NOT ACTIVE
      LAYER  LAYER-TYPE CODE     INTERBLOCK T
      --------------------------------------------
         1            0          0 -- HARMONIC    

 COLUMN TO ROW ANISOTROPY =  1.000000    

     PRIMARY STORAGE COEF =  5.000000E-02 FOR LAYER   1



               TRANSMIS. ALONG ROWS FOR LAYER   1
 READING ON UNIT   13 WITH FORMAT: (FREE)              

 WEL -- WELL PACKAGE, VERSION 7, 5/2/2005 INPUT READ FROM UNIT   19
 # Well package input file written by MMProc
 No named parameters
 MAXIMUM OF      4 ACTIVE WELLS AT ONE TIME


     0 Well parameters

 RCH -- RECHARGE PACKAGE, VERSION 7, 5/2/2005 INPUT READ FROM UNIT   15
 No named parameters
 OPTION 1 -- RECHARGE TO TOP LAYER


     0 Recharge parameters

 SFR7 -- STREAMFLOW ROUTING PACKAGE, VERSION 1.0.7, 2013-01-15
         INPUT READ FROM UNIT  16
 #  Supply2 test problem for GWM-VI
 #  The eighth entry in the first data line is ISTCB2 -
 #    Setting this to a negative number indicates that
 #    streamflows out of the reach will be saved to a
 #    binary file.  The absolute value of ISTCB2 is the
 #    unit to which unformatted flows will be written.
 #
 No named parameters
 Segment information will not be 
 read by reach
 No named parameters
 No specifed inflow files


 NUMBER OF STREAM REACHES IS   40

 NUMBER OF STREAM SEGMENTS IS    3

 NUMBER OF STREAM PARAMETERS IS    0

 NUMBER OF STREAM SEGMENTS DEFINED USING PARAMETERS IS              0

 MAXIMUM ERROR FOR STREAM LEAKAGE RATES IS  1.00E-04

 CONSTANT FOR MANNINGS EQUATION IS  1.2839E+05





   STREAM NETWORK DESCRIPTION: 

   LAYER    ROW    COL   SEGMENT   REACH     LENGTH
                          NUMBER   NUMBER    IN CELL        
   --------------------------------------------------
      1     13      1       1        1    2.0000E+02
      1     13      2       1        2    2.0000E+02
      1     14      3       1        3    2.0000E+02
      1     15      4       1        4    2.0000E+02
      1     16      5       1        5    2.0000E+02
      1     16      6       1        6    2.0000E+02
      1     16      7       1        7    2.0000E+02
      1     16      8       1        8    2.0000E+02
      1     16      9       1        9    2.0000E+02
      1     16     10       1       10    2.0000E+02
      1     16     11       1       11    2.0000E+02
      1     16     12       1       12    2.0000E+02
      1     15     13       1       13    2.0000E+02
      1     14     14       1       14    2.0000E+02
      1     13     15       1       15    2.0000E+02
      1     12     16       1       16    2.0000E+02
      1     12     17       1       17    2.0000E+02
      1     12     18       1       18    2.0000E+02
      1     12     19       1       19    2.0000E+02
      1     13     20       1       20    2.0000E+02
      1     14     21       1       21    2.0000E+02
      1     14     22       1       22    2.0000E+02
      1      9     30       2        1    2.0000E+02
      1      9     29       2        2    2.0000E+02
      1      9     28       2        3    2.0000E+02
      1      9     27       2        4    2.0000E+02
      1     10     26       2        5    2.0000E+02
      1     11     25       2        6    2.0000E+02
      1     12     24       2        7    2.0000E+02
      1     13     23       2        8    2.0000E+02
      1     14     22       2        9    2.0000E+02
      1     14     22       3        1    2.0000E+02
      1     15     23       3        2    2.0000E+02
      1     15     24       3        3    2.0000E+02
      1     15     25       3        4    2.0000E+02
      1     15     26       3        5    2.0000E+02
      1     16     27       3        6    2.0000E+02
      1     17     28       3        7    2.0000E+02
      1     18     29       3        8    2.0000E+02
      1     18     30       3        9    2.0000E+02




 PCG -- CONJUGATE-GRADIENT SOLUTION PACKAGE, VERSION 7, 5/2/2005
 MAXIMUM OF    500 CALLS OF SOLUTION ROUTINE
 MAXIMUM OF      5 INTERNAL ITERATIONS PER CALL TO SOLUTION ROUTINE
 MATRIX PRECONDITIONING TYPE :    1



                                    SOLUTION BY THE CONJUGATE-GRADIENT METHOD
                                   -------------------------------------------
                    MAXIMUM NUMBER OF CALLS TO PCG ROUTINE =      500
                        MAXIMUM ITERATIONS PER CALL TO PCG =        5
                               MATRIX PRECONDITIONING TYPE =        1
        RELAXATION FACTOR (ONLY USED WITH PRECOND. TYPE 1) =    0.10000E+01
 PARAMETER OF POLYNOMIAL PRECOND. = 2 (2) OR IS CALCULATED :        0
                         HEAD CHANGE CRITERION FOR CLOSURE =    0.10000E-05
                     RESIDUAL CHANGE CRITERION FOR CLOSURE =    0.10000E+01
            PCG HEAD AND RESIDUAL CHANGE PRINTOUT INTERVAL =        1
     PRINTING FROM SOLVER IS LIMITED(1) OR SUPPRESSED (>1) =        1
                            STEADY-STATE DAMPING PARAMETER =    0.10000E+01
                               TRANSIENT DAMPING PARAMETER =    0.10000E+01
1
                            STRESS PERIOD NO.    1, LENGTH =   92.00000    
                            -----------------------------------------------

                              NUMBER OF TIME STEPS =     1

                               MULTIPLIER FOR DELT =     1.500

                            INITIAL TIME STEP SIZE =   92.00000    

 WELL NO.  LAYER   ROW   COL   STRESS RATE         
 --------------------------------------------------
      1      1      6     15      -8201.    
      2      1     13     17     -0.1103E+05
      3      1      5      8      -7262.    
      4      1      3     21      -1929.    

      4 WELLS

                 RECHARGE =  5.000000E-04



 CLASSIFICATION & COUNT OF STREAM SEGMENTS BASED ON SOURCE OF INFLOW:

                HEADWATER     DIVERSION     RECEIVES TRIBUTARY FLOW
                ---------     ---------     -----------------------
                     2              0               1



                    INPUT DATA FOR EACH STREAM SEGMENT
 ---------------------------------------------------------------------------------------------

 SEGMENT    SEG.     INFLOW   OVERLAND   STREAM    STREAM   ICALC  OUTFLOW  DIVERSION PRIORITY
    NO.    LENGTH     RATE     RUNOFF      ET       PPT.    METH.  TO SEG.  FROM SEG.    NO.

      1  4.400E+03 1.000E+05 0.000E+00 0.000E+00 0.000E+00    1        3        0        0
      2  1.800E+03 5.000E+04 0.000E+00 0.000E+00 0.000E+00    1        3        0        0
      3  1.800E+03 0.000E+00 0.000E+00 0.000E+00 0.000E+00    1        0        0        0


         STREAMBED PROPERTIES AND STREAM DIMENSIONS

 SEGMENT     BED HYD. COND.      BED THICKNESS     ELEV.-TOP OF BED     WIDTH OF STREAM     DEPTH OF STREAM    STREAM ROUGHNESS
    No.     UPPER     LOWER     UPPER     LOWER     UPPER     LOWER     UPPER     LOWER     UPPER     LOWER   CHANNEL      BANK

     1  5.000E+00 5.000E+00 1.000E+00 1.000E+00 4.850E+01 3.800E+01 2.000E+01 2.000E+01                     5.000E-02
     2  5.000E+00 5.000E+00 1.000E+00 1.000E+00 4.025E+01 3.800E+01 2.000E+01 2.000E+01                     5.000E-02
     3  5.000E+00 5.000E+00 1.000E+00 1.000E+00 3.800E+01 3.000E+01 2.000E+01 2.000E+01                     5.000E-02



 
 SOLVING FOR HEAD 


     9 CALLS TO PCG ROUTINE FOR TIME STEP   1 IN STRESS PERIOD    1
    36 TOTAL ITERATIONS

 OUTPUT CONTROL FOR STRESS PERIOD    1   TIME STEP    1
    SAVE BUDGET
    SAVE HEAD FOR ALL LAYERS
    PRINT HEAD FOR ALL LAYERS
 UBDSV2 SAVING "STREAMFLOW OUT  " ON UNIT  50 AT TIME STEP  1, STRESS PERIOD   1



 STREAM LISTING     PERIOD      1   STEP        1

 LAYER ROW COL. STREAM  RCH.  FLOW INTO     FLOW TO   FLOW OUT OF   OVRLND.     DIRECT     STREAM       STREAM     STREAM     STREAM   STREAMBED  STREAMBED
                SEG.NO.  NO.  STRM. RCH.    AQUIFER    STRM. RCH.    RUNOFF     PRECIP       ET          HEAD       DEPTH      WIDTH   CONDCTNC.   GRADIENT

   1   13    1     1     1    1.0000E+05 -6.0114E+03   1.0601E+05  0.000E+00  0.000E+00  0.000E+00  4.84086E+01  1.472E-01  2.000E+01  2.000E+04 -3.006E-01
   1   13    2     1     2    1.0601E+05 -7.4769E+03   1.1349E+05  0.000E+00  0.000E+00  0.000E+00  4.79370E+01  1.530E-01  2.000E+01  2.000E+04 -3.738E-01
   1   14    3     1     3    1.1349E+05 -2.1939E+03   1.1568E+05  0.000E+00  0.000E+00  0.000E+00  4.74638E+01  1.570E-01  2.000E+01  2.000E+04 -1.097E-01
   1   15    4     1     4    1.1568E+05 -2.2678E+03   1.1795E+05  0.000E+00  0.000E+00  0.000E+00  4.69883E+01  1.588E-01  2.000E+01  2.000E+04 -1.134E-01
   1   16    5     1     5    1.1795E+05 -7.1831E+03   1.2513E+05  0.000E+00  0.000E+00  0.000E+00  4.65149E+01  1.626E-01  2.000E+01  2.000E+04 -3.592E-01
   1   16    6     1     6    1.2513E+05 -4.3013E+03   1.2943E+05  0.000E+00  0.000E+00  0.000E+00  4.60422E+01  1.672E-01  2.000E+01  2.000E+04 -2.151E-01
   1   16    7     1     7    1.2943E+05 -4.1354E+03   1.3357E+05  0.000E+00  0.000E+00  0.000E+00  4.55682E+01  1.705E-01  2.000E+01  2.000E+04 -2.068E-01
   1   16    8     1     8    1.3357E+05 -4.0935E+03   1.3766E+05  0.000E+00  0.000E+00  0.000E+00  4.50941E+01  1.737E-01  2.000E+01  2.000E+04 -2.047E-01
   1   16    9     1     9    1.3766E+05 -4.0811E+03   1.4174E+05  0.000E+00  0.000E+00  0.000E+00  4.46200E+01  1.768E-01  2.000E+01  2.000E+04 -2.041E-01
   1   16   10     1    10    1.4174E+05 -4.0748E+03   1.4582E+05  0.000E+00  0.000E+00  0.000E+00  4.41458E+01  1.799E-01  2.000E+01  2.000E+04 -2.037E-01
   1   16   11     1    11    1.4582E+05 -4.1015E+03   1.4992E+05  0.000E+00  0.000E+00  0.000E+00  4.36716E+01  1.829E-01  2.000E+01  2.000E+04 -2.051E-01
   1   16   12     1    12    1.4992E+05 -6.8983E+03   1.5682E+05  0.000E+00  0.000E+00  0.000E+00  4.31983E+01  1.870E-01  2.000E+01  2.000E+04 -3.449E-01
   1   15   13     1    13    1.5682E+05 -7.0632E+03   1.6388E+05  0.000E+00  0.000E+00  0.000E+00  4.27261E+01  1.920E-01  2.000E+01  2.000E+04 -3.532E-01
   1   14   14     1    14    1.6388E+05 -7.2251E+03   1.7111E+05  0.000E+00  0.000E+00  0.000E+00  4.22539E+01  1.971E-01  2.000E+01  2.000E+04 -3.613E-01
   1   13   15     1    15    1.7111E+05 -6.4900E+03   1.7760E+05  0.000E+00  0.000E+00  0.000E+00  4.17815E+01  2.019E-01  2.000E+01  2.000E+04 -3.245E-01
   1   12   16     1    16    1.7760E+05 -7.1440E+03   1.8474E+05  0.000E+00  0.000E+00  0.000E+00  4.13089E+01  2.066E-01  2.000E+01  2.000E+04 -3.572E-01
   1   12   17     1    17    1.8474E+05 -2.5103E+03   1.8725E+05  0.000E+00  0.000E+00  0.000E+00  4.08349E+01  2.099E-01  2.000E+01  2.000E+04 -1.255E-01
   1   12   18     1    18    1.8725E+05 -4.6274E+03   1.9188E+05  0.000E+00  0.000E+00  0.000E+00  4.03600E+01  2.123E-01  2.000E+01  2.000E+04 -2.314E-01
   1   12   19     1    19    1.9188E+05 -7.0361E+03   1.9892E+05  0.000E+00  0.000E+00  0.000E+00  3.98867E+01  2.162E-01  2.000E+01  2.000E+04 -3.518E-01
   1   13   20     1    20    1.9892E+05 -6.1671E+03   2.0508E+05  0.000E+00  0.000E+00  0.000E+00  3.94137E+01  2.206E-01  2.000E+01  2.000E+04 -3.084E-01
   1   14   21     1    21    2.0508E+05 -6.1354E+03   2.1122E+05  0.000E+00  0.000E+00  0.000E+00  3.89405E+01  2.246E-01  2.000E+01  2.000E+04 -3.068E-01
   1   14   22     1    22    2.1122E+05  3.6154E+03   2.0760E+05  0.000E+00  0.000E+00  0.000E+00  3.84640E+01  2.254E-01  2.000E+01  2.000E+04  1.808E-01
   1    9   30     2     1    5.0000E+04 -4.8326E+03   5.4833E+04  0.000E+00  0.000E+00  0.000E+00  4.02442E+01  1.192E-01  2.000E+01  2.000E+04 -2.416E-01
   1    9   29     2     2    5.4833E+04 -5.1241E+03   5.9957E+04  0.000E+00  0.000E+00  0.000E+00  4.00009E+01  1.259E-01  2.000E+01  2.000E+04 -2.562E-01
   1    9   28     2     3    5.9957E+04 -5.3991E+03   6.5356E+04  0.000E+00  0.000E+00  0.000E+00  3.97577E+01  1.327E-01  2.000E+01  2.000E+04 -2.700E-01
   1    9   27     2     4    6.5356E+04 -8.1965E+03   7.3552E+04  0.000E+00  0.000E+00  0.000E+00  3.95161E+01  1.411E-01  2.000E+01  2.000E+04 -4.098E-01
   1   10   26     2     5    7.3552E+04 -7.2420E+03   8.0794E+04  0.000E+00  0.000E+00  0.000E+00  3.92753E+01  1.503E-01  2.000E+01  2.000E+04 -3.621E-01
   1   11   25     2     6    8.0794E+04 -6.6994E+03   8.7494E+04  0.000E+00  0.000E+00  0.000E+00  3.90333E+01  1.583E-01  2.000E+01  2.000E+04 -3.350E-01
   1   12   24     2     7    8.7494E+04 -6.2111E+03   9.3705E+04  0.000E+00  0.000E+00  0.000E+00  3.87905E+01  1.655E-01  2.000E+01  2.000E+04 -3.106E-01
   1   13   23     2     8    9.3705E+04 -1.6382E+03   9.5343E+04  0.000E+00  0.000E+00  0.000E+00  3.85448E+01  1.698E-01  2.000E+01  2.000E+04 -8.191E-02
   1   14   22     2     9    9.5343E+04  2.4563E+02   9.5097E+04  0.000E+00  0.000E+00  0.000E+00  3.82955E+01  1.705E-01  2.000E+01  2.000E+04  1.228E-02
   1   14   22     3     1    3.0270E+05 -9.8426E+03   3.1254E+05  0.000E+00  0.000E+00  0.000E+00  3.77911E+01  2.356E-01  2.000E+01  2.000E+04 -4.921E-01
   1   15   23     3     2    3.1254E+05 -1.9714E+03   3.1451E+05  0.000E+00  0.000E+00  0.000E+00  3.69049E+01  2.383E-01  2.000E+01  2.000E+04 -9.857E-02
   1   15   24     3     3    3.1451E+05 -1.5280E+03   3.1604E+05  0.000E+00  0.000E+00  0.000E+00  3.60168E+01  2.391E-01  2.000E+01  2.000E+04 -7.640E-02
   1   15   25     3     4    3.1604E+05 -1.5788E+03   3.1762E+05  0.000E+00  0.000E+00  0.000E+00  3.51287E+01  2.398E-01  2.000E+01  2.000E+04 -7.894E-02
   1   15   26     3     5    3.1762E+05 -1.8828E+03   3.1950E+05  0.000E+00  0.000E+00  0.000E+00  3.42406E+01  2.406E-01  2.000E+01  2.000E+04 -9.414E-02
   1   16   27     3     6    3.1950E+05 -2.1642E+03   3.2167E+05  0.000E+00  0.000E+00  0.000E+00  3.33526E+01  2.415E-01  2.000E+01  2.000E+04 -1.082E-01
   1   17   28     3     7    3.2167E+05 -6.5787E+03   3.2825E+05  0.000E+00  0.000E+00  0.000E+00  3.24657E+01  2.434E-01  2.000E+01  2.000E+04 -3.289E-01
   1   18   29     3     8    3.2825E+05 -7.9899E+03   3.3624E+05  0.000E+00  0.000E+00  0.000E+00  3.15800E+01  2.467E-01  2.000E+01  2.000E+04 -3.995E-01
   1   18   30     3     9    3.3624E+05 -7.1723E+03   3.4341E+05  0.000E+00  0.000E+00  0.000E+00  3.06945E+01  2.501E-01  2.000E+01  2.000E+04 -3.586E-01



1
              HEAD IN LAYER   1 AT END OF TIME STEP   1 IN STRESS PERIOD    1
  ---------------------------------------------------------------------------

          1      2      3      4      5      6      7      8      9     10
         11     12     13     14     15     16     17     18     19     20
         21     22     23     24     25     26     27     28     29     30
 .........................................................................
   1  ****** ****** ****** ****** ****** ****** ****** ****** ****** ******
      ****** ****** ****** ****** ****** ****** ****** ****** ****** ******
      ****** ****** ****** ****** ****** ****** ****** ****** ****** ******
   2  ****** ****** ****** ****** ****** ****** ****** ****** ****** ******
      ****** ****** ****** ****** ****** ****** ****** ****** ****** ******
      ****** ****** ****** ****** ****** ****** ****** ****** ****** ******
   3  ****** ****** ****** ****** ****** ****** ****** ****** ****** ******
      ****** ****** ****** ****** ****** ****** ****** ****** ****** ******
      ****** ****** ****** ****** ****** ****** ****** ****** ****** ******
   4  ****** ****** ****** ****** ****** ****** ****** ****** ****** ******
      ****** ****** ****** ****** ****** ****** ****** ****** ****** ******
      ****** ****** ****** ****** ****** ****** ****** ****** ****** ******
   5  ****** ****** ****** ****** ****** ****** ****** ****** ****** ******
      ****** ****** ****** ****** ****** ****** ****** ****** ****** ******
      ****** ****** ****** ****** ****** ****** ****** ****** ****** ******
   6  ****** ****** ****** ****** ****** ****** ****** ****** ****** ******
      ****** ****** ****** ****** ****** ****** ****** ****** ****** ******
      ****** ****** ****** ****** ****** ****** ****** ****** ****** ******
   7  ****** ****** ****** ****** ****** ****** ****** ****** ****** ******
      ****** ****** ****** ****** ****** ****** ****** ****** ****** ******
      ****** ****** ****** ****** ****** ****** ****** ****** ****** ******
   8  ****** ****** ****** ****** ****** ****** ****** ****** ****** ******
      ****** ****** ****** ****** ****** ****** ****** ****** ****** ******
      ****** ****** ****** ****** ****** ****** ****** ****** ****** ******
   9  ****** ****** ****** ****** ****** ****** ****** ****** ****** ******
      ****** ****** ****** ****** ****** ****** ****** ****** ****** ******
      ****** ****** ****** ****** ****** ****** ****** ****** ****** ******
  10  ****** ****** ****** ****** ****** ****** ****** ****** ****** ******
      ****** ****** ****** ****** ****** ****** ****** ****** ****** ******
      ****** ****** ****** ****** ****** ****** ****** ****** ****** ******
  11  ****** ****** ****** ****** ****** ****** ****** ****** ****** ******
      ****** ****** ****** ****** ****** ****** ****** ****** ****** ******
      ****** ****** ****** ****** ****** ****** ****** ****** ****** ******
  12  ****** ****** ****** ****** ****** ****** ****** ****** ****** ******
      ****** ****** ****** ****** ****** ****** ****** ****** ****** ******
      ****** ****** ****** ****** ****** ****** ****** ****** ****** ******
  13  ****** ****** ****** ****** ****** ****** ****** ****** ****** ******
      ****** ****** ****** ****** ****** ****** ****** ****** ****** ******
      ****** ****** ****** ****** ****** ****** ****** ****** ****** ******
  14  ****** ****** ****** ****** ****** ****** ****** ****** ****** ******
      ****** ****** ****** ****** ****** ****** ****** ****** ****** ******
      ****** ****** ****** ****** ****** ****** ****** ****** ****** ******
  15  ****** ****** ****** ****** ****** ****** ****** ****** ****** ******
      ****** ****** ****** ****** ****** ****** ****** ****** ****** ******
      ****** ****** ****** ****** ****** ****** ****** ****** ****** ******
  16  ****** ****** ****** ****** ****** ****** ****** ****** ****** ******
      ****** ****** ****** ****** ****** ****** ****** ****** ****** ******
      ****** ****** ****** ****** ****** ****** ****** ****** ****** ******
  17  ****** ****** ****** ****** ****** ****** ****** ****** ****** ******
      ****** ****** ****** ****** ****** ****** ****** ****** ****** ******
      ****** ****** ****** ****** ****** ****** ****** ****** ****** ******
  18  ****** ****** ****** ****** ****** ****** ****** ****** ****** ******
      ****** ****** ****** ****** ****** ****** ****** ****** ****** ******
      ****** ****** ****** ****** ****** ****** ****** ****** ****** ******
  19  ****** ****** ****** ****** ****** ****** ****** ****** ****** ******
      ****** ****** ****** ****** ****** ****** ****** ****** ****** ******
      ****** ****** ****** ****** ****** ****** ****** ****** ****** ******
  20  ****** ****** ****** ****** ****** ****** ****** ****** ****** ******
      ****** ****** ****** ****** ****** ****** ****** ****** ****** ******
      ****** ****** ****** ****** ****** ****** ****** ****** ****** ******
  21  ****** ****** ****** ****** ****** ****** ****** ****** ****** ******
      ****** ****** ****** ****** ****** ****** ****** ****** ****** ******
      ****** ****** ****** ****** ****** ****** ****** ****** ****** ******
  22  ****** ****** ****** ****** ****** ****** ****** ****** ****** ******
      ****** ****** ****** ****** ****** ****** ****** ****** ****** ******
      ****** ****** ****** ****** ****** ****** ****** ****** ****** ******
  23  ****** ****** ****** ****** ****** ****** ****** ****** ****** ******
      ****** ****** ****** ****** ****** ****** ****** ****** ****** ******
      ****** ****** ****** ****** ****** ****** ****** ****** ****** ******
  24  ****** ****** ****** ****** ****** ****** ****** ****** ****** ******
      ****** ****** ****** ****** ****** ****** ****** ****** ****** ******
      ****** ****** ****** ****** ****** ****** ****** ****** ****** ******
  25  ****** ****** ****** ****** ****** ****** ****** ****** ****** ******
      ****** ****** ****** ****** ****** ****** ****** ****** ****** ******
      ****** ****** ****** ****** ****** ****** ****** ****** ****** ******

 HEAD WILL BE SAVED ON UNIT   51 AT END OF TIME STEP    1, STRESS PERIOD    1
1
  VOLUMETRIC BUDGET FOR ENTIRE MODEL AT END OF TIME STEP    1, STRESS PERIOD   1
  ------------------------------------------------------------------------------

     CUMULATIVE VOLUMES      L**3       RATES FOR THIS TIME STEP      L**3/T
     ------------------                 ------------------------

           IN:                                      IN:
           ---                                      ---
             STORAGE =    17920187.3860               STORAGE =      194784.6455
       CONSTANT HEAD =     1218735.1761         CONSTANT HEAD =       13247.1215
               WELLS =           0.0000                 WELLS =           0.0000
            RECHARGE =     1269600.0000              RECHARGE =       13800.0000
      STREAM LEAKAGE =      355212.1083        STREAM LEAKAGE =        3861.0012

            TOTAL IN =    20763734.6704              TOTAL IN =      225692.7682

          OUT:                                     OUT:
          ----                                     ----
             STORAGE =           0.0000               STORAGE =           0.0000
       CONSTANT HEAD =           0.0000         CONSTANT HEAD =           0.0000
               WELLS =     2614967.4141                 WELLS =       28423.5588
            RECHARGE =           0.0000              RECHARGE =           0.0000
      STREAM LEAKAGE =    18148767.5437        STREAM LEAKAGE =      197269.2124

           TOTAL OUT =    20763734.9578             TOTAL OUT =      225692.7713

            IN - OUT =          -0.2875              IN - OUT =      -3.1245E-03

 PERCENT DISCREPANCY =          -0.00     PERCENT DISCREPANCY =          -0.00






         TIME SUMMARY AT END OF TIME STEP    1 IN STRESS PERIOD    1
                    SECONDS     MINUTES      HOURS       DAYS        YEARS
                    -----------------------------------------------------------
   TIME STEP LENGTH 7.94880E+06 1.32480E+05  2208.0      92.000     0.25188    
 STRESS PERIOD TIME 7.94880E+06 1.32480E+05  2208.0      92.000     0.25188    
         TOTAL TIME 7.94880E+06 1.32480E+05  2208.0      92.000     0.25188    
1
1
                            STRESS PERIOD NO.    2, LENGTH =   91.00000    
                            -----------------------------------------------

                              NUMBER OF TIME STEPS =     1

                               MULTIPLIER FOR DELT =     1.500

                            INITIAL TIME STEP SIZE =   91.00000    

 WELL NO.  LAYER   ROW   COL   STRESS RATE         
 --------------------------------------------------
      1      1      6     15      -8201.    
      2      1     13     17     -0.1103E+05
      3      1      5      8      -7262.    
      4      1      3     21      -1929.    

      4 WELLS

                 RECHARGE =  2.000000E-03

 REUSING STREAM SEGMENT DATA FROM LAST STRESS PERIOD
 
 SOLVING FOR HEAD 


     7 CALLS TO PCG ROUTINE FOR TIME STEP   1 IN STRESS PERIOD    2
    27 TOTAL ITERATIONS

 OUTPUT CONTROL FOR STRESS PERIOD    2   TIME STEP    1
    SAVE BUDGET
    SAVE HEAD FOR ALL LAYERS
    PRINT HEAD FOR ALL LAYERS
 UBDSV2 SAVING "STREAMFLOW OUT  " ON UNIT  50 AT TIME STEP  1, STRESS PERIOD   2



 STREAM LISTING     PERIOD      2   STEP        1

 LAYER ROW COL. STREAM  RCH.  FLOW INTO     FLOW TO   FLOW OUT OF   OVRLND.     DIRECT     STREAM       STREAM     STREAM     STREAM   STREAMBED  STREAMBED
                SEG.NO.  NO.  STRM. RCH.    AQUIFER    STRM. RCH.    RUNOFF     PRECIP       ET          HEAD       DEPTH      WIDTH   CONDCTNC.   GRADIENT

   1   13    1     1     1    1.0000E+05 -3.7533E+03   1.0375E+05  0.000E+00  0.000E+00  0.000E+00  4.84076E+01  1.463E-01  2.000E+01  2.000E+04 -1.877E-01
   1   13    2     1     2    1.0375E+05 -5.0019E+03   1.0876E+05  0.000E+00  0.000E+00  0.000E+00  4.79341E+01  1.500E-01  2.000E+01  2.000E+04 -2.501E-01
   1   14    3     1     3    1.0876E+05 -1.1016E+03   1.0986E+05  0.000E+00  0.000E+00  0.000E+00  4.74594E+01  1.526E-01  2.000E+01  2.000E+04 -5.508E-02
   1   15    4     1     4    1.0986E+05 -1.1363E+03   1.1099E+05  0.000E+00  0.000E+00  0.000E+00  4.69831E+01  1.535E-01  2.000E+01  2.000E+04 -5.682E-02
   1   16    5     1     5    1.1099E+05 -4.2496E+03   1.1524E+05  0.000E+00  0.000E+00  0.000E+00  4.65080E+01  1.558E-01  2.000E+01  2.000E+04 -2.125E-01
   1   16    6     1     6    1.1524E+05 -2.5019E+03   1.1774E+05  0.000E+00  0.000E+00  0.000E+00  4.60335E+01  1.585E-01  2.000E+01  2.000E+04 -1.251E-01
   1   16    7     1     7    1.1774E+05 -2.4063E+03   1.2015E+05  0.000E+00  0.000E+00  0.000E+00  4.55583E+01  1.605E-01  2.000E+01  2.000E+04 -1.203E-01
   1   16    8     1     8    1.2015E+05 -2.3755E+03   1.2253E+05  0.000E+00  0.000E+00  0.000E+00  4.50829E+01  1.625E-01  2.000E+01  2.000E+04 -1.188E-01
   1   16    9     1     9    1.2253E+05 -2.3522E+03   1.2488E+05  0.000E+00  0.000E+00  0.000E+00  4.46075E+01  1.643E-01  2.000E+01  2.000E+04 -1.176E-01
   1   16   10     1    10    1.2488E+05 -2.3232E+03   1.2720E+05  0.000E+00  0.000E+00  0.000E+00  4.41321E+01  1.662E-01  2.000E+01  2.000E+04 -1.162E-01
   1   16   11     1    11    1.2720E+05 -2.3178E+03   1.2952E+05  0.000E+00  0.000E+00  0.000E+00  4.36567E+01  1.680E-01  2.000E+01  2.000E+04 -1.159E-01
   1   16   12     1    12    1.2952E+05 -3.9760E+03   1.3350E+05  0.000E+00  0.000E+00  0.000E+00  4.31819E+01  1.705E-01  2.000E+01  2.000E+04 -1.988E-01
   1   15   13     1    13    1.3350E+05 -3.7292E+03   1.3722E+05  0.000E+00  0.000E+00  0.000E+00  4.27076E+01  1.735E-01  2.000E+01  2.000E+04 -1.865E-01
   1   14   14     1    14    1.3722E+05 -3.6966E+03   1.4092E+05  0.000E+00  0.000E+00  0.000E+00  4.22331E+01  1.763E-01  2.000E+01  2.000E+04 -1.848E-01
   1   13   15     1    15    1.4092E+05 -2.8708E+03   1.4379E+05  0.000E+00  0.000E+00  0.000E+00  4.17583E+01  1.788E-01  2.000E+01  2.000E+04 -1.435E-01
   1   12   16     1    16    1.4379E+05 -3.6356E+03   1.4743E+05  0.000E+00  0.000E+00  0.000E+00  4.12835E+01  1.812E-01  2.000E+01  2.000E+04 -1.818E-01
   1   12   17     1    17    1.4743E+05  2.3801E+02   1.4719E+05  0.000E+00  0.000E+00  0.000E+00  4.08075E+01  1.825E-01  2.000E+01  2.000E+04  1.190E-02
   1   12   18     1    18    1.4719E+05 -1.9340E+03   1.4912E+05  0.000E+00  0.000E+00  0.000E+00  4.03309E+01  1.831E-01  2.000E+01  2.000E+04 -9.670E-02
   1   12   19     1    19    1.4912E+05 -3.7451E+03   1.5287E+05  0.000E+00  0.000E+00  0.000E+00  3.98557E+01  1.852E-01  2.000E+01  2.000E+04 -1.873E-01
   1   13   20     1    20    1.5287E+05 -2.9651E+03   1.5583E+05  0.000E+00  0.000E+00  0.000E+00  3.93809E+01  1.877E-01  2.000E+01  2.000E+04 -1.483E-01
   1   14   21     1    21    1.5583E+05 -3.3732E+03   1.5921E+05  0.000E+00  0.000E+00  0.000E+00  3.89059E+01  1.900E-01  2.000E+01  2.000E+04 -1.687E-01
   1   14   22     1    22    1.5921E+05  4.3613E+03   1.5485E+05  0.000E+00  0.000E+00  0.000E+00  3.84283E+01  1.896E-01  2.000E+01  2.000E+04  2.181E-01
   1    9   30     2     1    5.0000E+04 -2.0987E+03   5.2099E+04  0.000E+00  0.000E+00  0.000E+00  4.02423E+01  1.173E-01  2.000E+01  2.000E+04 -1.049E-01
   1    9   29     2     2    5.2099E+04 -2.4011E+03   5.4500E+04  0.000E+00  0.000E+00  0.000E+00  3.99954E+01  1.204E-01  2.000E+01  2.000E+04 -1.201E-01
   1    9   28     2     3    5.4500E+04 -2.6866E+03   5.7186E+04  0.000E+00  0.000E+00  0.000E+00  3.97488E+01  1.238E-01  2.000E+01  2.000E+04 -1.343E-01
   1    9   27     2     4    5.7186E+04 -4.6728E+03   6.1859E+04  0.000E+00  0.000E+00  0.000E+00  3.95036E+01  1.286E-01  2.000E+01  2.000E+04 -2.336E-01
   1   10   26     2     5    6.1859E+04 -3.5886E+03   6.5448E+04  0.000E+00  0.000E+00  0.000E+00  3.92589E+01  1.339E-01  2.000E+01  2.000E+04 -1.794E-01
   1   11   25     2     6    6.5448E+04 -3.2052E+03   6.8653E+04  0.000E+00  0.000E+00  0.000E+00  3.90132E+01  1.382E-01  2.000E+01  2.000E+04 -1.603E-01
   1   12   24     2     7    6.8653E+04 -3.0720E+03   7.1725E+04  0.000E+00  0.000E+00  0.000E+00  3.87670E+01  1.420E-01  2.000E+01  2.000E+04 -1.536E-01
   1   13   23     2     8    7.1725E+04 -5.8799E+02   7.2313E+04  0.000E+00  0.000E+00  0.000E+00  3.85192E+01  1.442E-01  2.000E+01  2.000E+04 -2.940E-02
   1   14   22     2     9    7.2313E+04  1.1734E+03   7.1140E+04  0.000E+00  0.000E+00  0.000E+00  3.82689E+01  1.439E-01  2.000E+01  2.000E+04  5.867E-02
   1   14   22     3     1    2.2599E+05 -9.1303E+03   2.3512E+05  0.000E+00  0.000E+00  0.000E+00  3.77537E+01  1.981E-01  2.000E+01  2.000E+04 -4.565E-01
   1   15   23     3     2    2.3512E+05 -1.0291E+03   2.3614E+05  0.000E+00  0.000E+00  0.000E+00  3.68674E+01  2.007E-01  2.000E+01  2.000E+04 -5.145E-02
   1   15   24     3     3    2.3614E+05 -6.6162E+02   2.3681E+05  0.000E+00  0.000E+00  0.000E+00  3.59790E+01  2.012E-01  2.000E+01  2.000E+04 -3.308E-02
   1   15   25     3     4    2.3681E+05 -6.6981E+02   2.3748E+05  0.000E+00  0.000E+00  0.000E+00  3.50904E+01  2.015E-01  2.000E+01  2.000E+04 -3.349E-02
   1   15   26     3     5    2.3748E+05 -7.7257E+02   2.3825E+05  0.000E+00  0.000E+00  0.000E+00  3.42019E+01  2.019E-01  2.000E+01  2.000E+04 -3.863E-02
   1   16   27     3     6    2.3825E+05 -8.9766E+02   2.3915E+05  0.000E+00  0.000E+00  0.000E+00  3.33134E+01  2.023E-01  2.000E+01  2.000E+04 -4.488E-02
   1   17   28     3     7    2.3915E+05 -3.2549E+03   2.4240E+05  0.000E+00  0.000E+00  0.000E+00  3.24256E+01  2.034E-01  2.000E+01  2.000E+04 -1.627E-01
   1   18   29     3     8    2.4240E+05 -5.0460E+03   2.4745E+05  0.000E+00  0.000E+00  0.000E+00  3.15388E+01  2.055E-01  2.000E+01  2.000E+04 -2.523E-01
   1   18   30     3     9    2.4745E+05 -4.6793E+03   2.5213E+05  0.000E+00  0.000E+00  0.000E+00  3.06523E+01  2.079E-01  2.000E+01  2.000E+04 -2.340E-01



1
              HEAD IN LAYER   1 AT END OF TIME STEP   1 IN STRESS PERIOD    2
  ---------------------------------------------------------------------------

          1      2      3      4      5      6      7      8      9     10
         11     12     13     14     15     16     17     18     19     20
         21     22     23     24     25     26     27     28     29     30
 .........................................................................
   1  ****** ****** ****** ****** ****** ****** ****** ****** ****** ******
      ****** ****** ****** ****** ****** ****** ****** ****** ****** ******
      ****** ****** ****** ****** ****** ****** ****** ****** ****** ******
   2  ****** ****** ****** ****** ****** ****** ****** ****** ****** ******
      ****** ****** ****** ****** ****** ****** ****** ****** ****** ******
      ****** ****** ****** ****** ****** ****** ****** ****** ****** ******
   3  ****** ****** ****** ****** ****** ****** ****** ****** ****** ******
      ****** ****** ****** ****** ****** ****** ****** ****** ****** ******
      ****** ****** ****** ****** ****** ****** ****** ****** ****** ******
   4  ****** ****** ****** ****** ****** ****** ****** ****** ****** ******
      ****** ****** ****** ****** ****** ****** ****** ****** ****** ******
      ****** ****** ****** ****** ****** ****** ****** ****** ****** ******
   5  ****** ****** ****** ****** ****** ****** ****** ****** ****** ******
      ****** ****** ****** ****** ****** ****** ****** ****** ****** ******
      ****** ****** ****** ****** ****** ****** ****** ****** ****** ******
   6  ****** ****** ****** ****** ****** ****** ****** ****** ****** ******
      ****** ****** ****** ****** ****** ****** ****** ****** ****** ******
      ****** ****** ****** ****** ****** ****** ****** ****** ****** ******
   7  ****** ****** ****** ****** ****** ****** ****** ****** ****** ******
      ****** ****** ****** ****** ****** ****** ****** ****** ****** ******
      ****** ****** ****** ****** ****** ****** ****** ****** ****** ******
   8  ****** ****** ****** ****** ****** ****** ****** ****** ****** ******
      ****** ****** ****** ****** ****** ****** ****** ****** ****** ******
      ****** ****** ****** ****** ****** ****** ****** ****** ****** ******
   9  ****** ****** ****** ****** ****** ****** ****** ****** ****** ******
      ****** ****** ****** ****** ****** ****** ****** ****** ****** ******
      ****** ****** ****** ****** ****** ****** ****** ****** ****** ******
  10  ****** ****** ****** ****** ****** ****** ****** ****** ****** ******
      ****** ****** ****** ****** ****** ****** ****** ****** ****** ******
      ****** ****** ****** ****** ****** ****** ****** ****** ****** ******
  11  ****** ****** ****** ****** ****** ****** ****** ****** ****** ******
      ****** ****** ****** ****** ****** ****** ****** ****** ****** ******
      ****** ****** ****** ****** ****** ****** ****** ****** ****** ******
  12  ****** ****** ****** ****** ****** ****** ****** ****** ****** ******
      ****** ****** ****** ****** ****** ****** ****** ****** ****** ******
      ****** ****** ****** ****** ****** ****** ****** ****** ****** ******
  13  ****** ****** ****** ****** ****** ****** ****** ****** ****** ******
      ****** ****** ****** ****** ****** ****** ****** ****** ****** ******
      ****** ****** ****** ****** ****** ****** ****** ****** ****** ******
  14  ****** ****** ****** ****** ****** ****** ****** ****** ****** ******
      ****** ****** ****** ****** ****** ****** ****** ****** ****** ******
      ****** ****** ****** ****** ****** ****** ****** ****** ****** ******
  15  ****** ****** ****** ****** ****** ****** ****** ****** ****** ******
      ****** ****** ****** ****** ****** ****** ****** ****** ****** ******
      ****** ****** ****** ****** ****** ****** ****** ****** ****** ******
  16  ****** ****** ****** ****** ****** ****** ****** ****** ****** ******
      ****** ****** ****** ****** ****** ****** ****** ****** ****** ******
      ****** ****** ****** ****** ****** ****** ****** ****** ****** ******
  17  ****** ****** ****** ****** ****** ****** ****** ****** ****** ******
      ****** ****** ****** ****** ****** ****** ****** ****** ****** ******
      ****** ****** ****** ****** ****** ****** ****** ****** ****** ******
  18  ****** ****** ****** ****** ****** ****** ****** ****** ****** ******
      ****** ****** ****** ****** ****** ****** ****** ****** ****** ******
      ****** ****** ****** ****** ****** ****** ****** ****** ****** ******
  19  ****** ****** ****** ****** ****** ****** ****** ****** ****** ******
      ****** ****** ****** ****** ****** ****** ****** ****** ****** ******
      ****** ****** ****** ****** ****** ****** ****** ****** ****** ******
  20  ****** ****** ****** ****** ****** ****** ****** ****** ****** ******
      ****** ****** ****** ****** ****** ****** ****** ****** ****** ******
      ****** ****** ****** ****** ****** ****** ****** ****** ****** ******
  21  ****** ****** ****** ****** ****** ****** ****** ****** ****** ******
      ****** ****** ****** ****** ****** ****** ****** ****** ****** ******
      ****** ****** ****** ****** ****** ****** ****** ****** ****** ******
  22  ****** ****** ****** ****** ****** ****** ****** ****** ****** ******
      ****** ****** ****** ****** ****** ****** ****** ****** ****** ******
      ****** ****** ****** ****** ****** ****** ****** ****** ****** ******
  23  ****** ****** ****** ****** ****** ****** ****** ****** ****** ******
      ****** ****** ****** ****** ****** ****** ****** ****** ****** ******
      ****** ****** ****** ****** ****** ****** ****** ****** ****** ******
  24  ****** ****** ****** ****** ****** ****** ****** ****** ****** ******
      ****** ****** ****** ****** ****** ****** ****** ****** ****** ******
      ****** ****** ****** ****** ****** ****** ****** ****** ****** ******
  25  ****** ****** ****** ****** ****** ****** ****** ****** ****** ******
      ****** ****** ****** ****** ****** ****** ****** ****** ****** ******
      ****** ****** ****** ****** ****** ****** ****** ****** ****** ******

 HEAD WILL BE SAVED ON UNIT   51 AT END OF TIME STEP    1, STRESS PERIOD    2
1
  VOLUMETRIC BUDGET FOR ENTIRE MODEL AT END OF TIME STEP    1, STRESS PERIOD   2
  ------------------------------------------------------------------------------

     CUMULATIVE VOLUMES      L**3       RATES FOR THIS TIME STEP      L**3/T
     ------------------                 ------------------------

           IN:                                      IN:
           ---                                      ---
             STORAGE =    23113246.3795               STORAGE =       57066.5823
       CONSTANT HEAD =     2882557.0839         CONSTANT HEAD =       18283.7572
               WELLS =           0.0000                 WELLS =           0.0000
            RECHARGE =     6292800.0000              RECHARGE =       55200.0000
      STREAM LEAKAGE =      880526.3439        STREAM LEAKAGE =        5772.6839

            TOTAL IN =    33169129.8073              TOTAL IN =      136323.0235

          OUT:                                     OUT:
          ----                                     ----
             STORAGE =           0.0000               STORAGE =           0.0000
       CONSTANT HEAD =           0.0000         CONSTANT HEAD =           0.0000
               WELLS =     5201511.2694                 WELLS =       28423.5588
            RECHARGE =           0.0000              RECHARGE =           0.0000
      STREAM LEAKAGE =    27967619.7761        STREAM LEAKAGE =      107899.4751

           TOTAL OUT =    33169131.0455             TOTAL OUT =      136323.0339

            IN - OUT =          -1.2382              IN - OUT =      -1.0447E-02

 PERCENT DISCREPANCY =          -0.00     PERCENT DISCREPANCY =          -0.00






         TIME SUMMARY AT END OF TIME STEP    1 IN STRESS PERIOD    2
                    SECONDS     MINUTES      HOURS       DAYS        YEARS
                    -----------------------------------------------------------
   TIME STEP LENGTH 7.86240E+06 1.31040E+05  2184.0      91.000     0.24914    
 STRESS PERIOD TIME 7.86240E+06 1.31040E+05  2184.0      91.000     0.24914    
         TOTAL TIME 1.58112E+07 2.63520E+05  4392.0      183.00     0.50103    
1
1
                            STRESS PERIOD NO.    3, LENGTH =   91.00000    
                            -----------------------------------------------

                              NUMBER OF TIME STEPS =     1

                               MULTIPLIER FOR DELT =     1.500

                            INITIAL TIME STEP SIZE =   91.00000    

 WELL NO.  LAYER   ROW   COL   STRESS RATE         
 --------------------------------------------------
      1      1      6     15      -8201.    
      2      1     13     17     -0.1103E+05
      3      1      5      8      -7262.    
      4      1      3     21      -1929.    

      4 WELLS

                 RECHARGE =   0.00000    

 REUSING STREAM SEGMENT DATA FROM LAST STRESS PERIOD
 
 SOLVING FOR HEAD 


     7 CALLS TO PCG ROUTINE FOR TIME STEP   1 IN STRESS PERIOD    3
    27 TOTAL ITERATIONS

 OUTPUT CONTROL FOR STRESS PERIOD    3   TIME STEP    1
    SAVE BUDGET
    SAVE HEAD FOR ALL LAYERS
    PRINT HEAD FOR ALL LAYERS
 UBDSV2 SAVING "STREAMFLOW OUT  " ON UNIT  50 AT TIME STEP  1, STRESS PERIOD   3



 STREAM LISTING     PERIOD      3   STEP        1

 LAYER ROW COL. STREAM  RCH.  FLOW INTO     FLOW TO   FLOW OUT OF   OVRLND.     DIRECT     STREAM       STREAM     STREAM     STREAM   STREAMBED  STREAMBED
                SEG.NO.  NO.  STRM. RCH.    AQUIFER    STRM. RCH.    RUNOFF     PRECIP       ET          HEAD       DEPTH      WIDTH   CONDCTNC.   GRADIENT

   1   13    1     1     1    1.0000E+05 -2.3776E+03   1.0238E+05  0.000E+00  0.000E+00  0.000E+00  4.84070E+01  1.457E-01  2.000E+01  2.000E+04 -1.189E-01
   1   13    2     1     2    1.0238E+05 -3.4610E+03   1.0584E+05  0.000E+00  0.000E+00  0.000E+00  4.79323E+01  1.482E-01  2.000E+01  2.000E+04 -1.731E-01
   1   14    3     1     3    1.0584E+05 -6.2995E+02   1.0647E+05  0.000E+00  0.000E+00  0.000E+00  4.74567E+01  1.499E-01  2.000E+01  2.000E+04 -3.150E-02
   1   15    4     1     4    1.0647E+05 -6.2469E+02   1.0709E+05  0.000E+00  0.000E+00  0.000E+00  4.69800E+01  1.505E-01  2.000E+01  2.000E+04 -3.123E-02
   1   16    5     1     5    1.0709E+05 -2.4539E+03   1.0955E+05  0.000E+00  0.000E+00  0.000E+00  4.65040E+01  1.518E-01  2.000E+01  2.000E+04 -1.227E-01
   1   16    6     1     6    1.0955E+05 -1.4955E+03   1.1104E+05  0.000E+00  0.000E+00  0.000E+00  4.60284E+01  1.534E-01  2.000E+01  2.000E+04 -7.477E-02
   1   16    7     1     7    1.1104E+05 -1.4573E+03   1.1250E+05  0.000E+00  0.000E+00  0.000E+00  4.55524E+01  1.546E-01  2.000E+01  2.000E+04 -7.286E-02
   1   16    8     1     8    1.1250E+05 -1.4443E+03   1.1394E+05  0.000E+00  0.000E+00  0.000E+00  4.50763E+01  1.558E-01  2.000E+01  2.000E+04 -7.221E-02
   1   16    9     1     9    1.1394E+05 -1.4255E+03   1.1537E+05  0.000E+00  0.000E+00  0.000E+00  4.46002E+01  1.570E-01  2.000E+01  2.000E+04 -7.128E-02
   1   16   10     1    10    1.1537E+05 -1.3975E+03   1.1677E+05  0.000E+00  0.000E+00  0.000E+00  4.41241E+01  1.582E-01  2.000E+01  2.000E+04 -6.987E-02
   1   16   11     1    11    1.1677E+05 -1.3870E+03   1.1815E+05  0.000E+00  0.000E+00  0.000E+00  4.36480E+01  1.593E-01  2.000E+01  2.000E+04 -6.935E-02
   1   16   12     1    12    1.1815E+05 -2.3467E+03   1.2050E+05  0.000E+00  0.000E+00  0.000E+00  4.31722E+01  1.608E-01  2.000E+01  2.000E+04 -1.173E-01
   1   15   13     1    13    1.2050E+05 -2.0196E+03   1.2252E+05  0.000E+00  0.000E+00  0.000E+00  4.26967E+01  1.626E-01  2.000E+01  2.000E+04 -1.010E-01
   1   14   14     1    14    1.2252E+05 -1.9026E+03   1.2442E+05  0.000E+00  0.000E+00  0.000E+00  4.22210E+01  1.642E-01  2.000E+01  2.000E+04 -9.513E-02
   1   13   15     1    15    1.2442E+05 -1.0348E+03   1.2546E+05  0.000E+00  0.000E+00  0.000E+00  4.17449E+01  1.653E-01  2.000E+01  2.000E+04 -5.174E-02
   1   12   16     1    16    1.2546E+05 -1.6772E+03   1.2714E+05  0.000E+00  0.000E+00  0.000E+00  4.12687E+01  1.664E-01  2.000E+01  2.000E+04 -8.386E-02
   1   12   17     1    17    1.2714E+05  1.6159E+03   1.2552E+05  0.000E+00  0.000E+00  0.000E+00  4.07914E+01  1.664E-01  2.000E+01  2.000E+04  8.080E-02
   1   12   18     1    18    1.2552E+05 -5.9240E+02   1.2611E+05  0.000E+00  0.000E+00  0.000E+00  4.03137E+01  1.660E-01  2.000E+01  2.000E+04 -2.962E-02
   1   12   19     1    19    1.2611E+05 -2.0685E+03   1.2818E+05  0.000E+00  0.000E+00  0.000E+00  3.98375E+01  1.671E-01  2.000E+01  2.000E+04 -1.034E-01
   1   13   20     1    20    1.2818E+05 -1.4811E+03   1.2966E+05  0.000E+00  0.000E+00  0.000E+00  3.93616E+01  1.685E-01  2.000E+01  2.000E+04 -7.405E-02
   1   14   21     1    21    1.2966E+05 -1.8992E+03   1.3156E+05  0.000E+00  0.000E+00  0.000E+00  3.88857E+01  1.698E-01  2.000E+01  2.000E+04 -9.496E-02
   1   14   22     1    22    1.3156E+05  4.7076E+03   1.2685E+05  0.000E+00  0.000E+00  0.000E+00  3.84073E+01  1.687E-01  2.000E+01  2.000E+04  2.354E-01
   1    9   30     2     1    5.0000E+04 -8.8598E+02   5.0886E+04  0.000E+00  0.000E+00  0.000E+00  4.02415E+01  1.165E-01  2.000E+01  2.000E+04 -4.430E-02
   1    9   29     2     2    5.0886E+04 -1.1882E+03   5.2074E+04  0.000E+00  0.000E+00  0.000E+00  3.99929E+01  1.179E-01  2.000E+01  2.000E+04 -5.941E-02
   1    9   28     2     3    5.2074E+04 -1.4554E+03   5.3530E+04  0.000E+00  0.000E+00  0.000E+00  3.97447E+01  1.197E-01  2.000E+01  2.000E+04 -7.277E-02
   1    9   27     2     4    5.3530E+04 -2.8806E+03   5.6410E+04  0.000E+00  0.000E+00  0.000E+00  3.94976E+01  1.226E-01  2.000E+01  2.000E+04 -1.440E-01
   1   10   26     2     5    5.6410E+04 -1.9182E+03   5.8328E+04  0.000E+00  0.000E+00  0.000E+00  3.92508E+01  1.258E-01  2.000E+01  2.000E+04 -9.591E-02
   1   11   25     2     6    5.8328E+04 -1.6475E+03   5.9976E+04  0.000E+00  0.000E+00  0.000E+00  3.90032E+01  1.282E-01  2.000E+01  2.000E+04 -8.238E-02
   1   12   24     2     7    5.9976E+04 -1.6739E+03   6.1650E+04  0.000E+00  0.000E+00  0.000E+00  3.87553E+01  1.303E-01  2.000E+01  2.000E+04 -8.370E-02
   1   13   23     2     8    6.1650E+04 -2.4541E+02   6.1895E+04  0.000E+00  0.000E+00  0.000E+00  3.85065E+01  1.315E-01  2.000E+01  2.000E+04 -1.227E-02
   1   14   22     2     9    6.1895E+04  1.6735E+03   6.0222E+04  0.000E+00  0.000E+00  0.000E+00  3.82556E+01  1.306E-01  2.000E+01  2.000E+04  8.368E-02
   1   14   22     3     1    1.8707E+05 -8.7831E+03   1.9586E+05  0.000E+00  0.000E+00  0.000E+00  3.77328E+01  1.772E-01  2.000E+01  2.000E+04 -4.392E-01
   1   15   23     3     2    1.9586E+05 -6.3981E+02   1.9650E+05  0.000E+00  0.000E+00  0.000E+00  3.68465E+01  1.798E-01  2.000E+01  2.000E+04 -3.199E-02
   1   15   24     3     3    1.9650E+05 -3.4051E+02   1.9684E+05  0.000E+00  0.000E+00  0.000E+00  3.59579E+01  1.801E-01  2.000E+01  2.000E+04 -1.703E-02
   1   15   25     3     4    1.9684E+05 -3.3197E+02   1.9717E+05  0.000E+00  0.000E+00  0.000E+00  3.50692E+01  1.803E-01  2.000E+01  2.000E+04 -1.660E-02
   1   15   26     3     5    1.9717E+05 -3.6964E+02   1.9754E+05  0.000E+00  0.000E+00  0.000E+00  3.41805E+01  1.805E-01  2.000E+01  2.000E+04 -1.848E-02
   1   16   27     3     6    1.9754E+05 -4.3347E+02   1.9797E+05  0.000E+00  0.000E+00  0.000E+00  3.32918E+01  1.807E-01  2.000E+01  2.000E+04 -2.167E-02
   1   17   28     3     7    1.9797E+05 -1.8476E+03   1.9982E+05  0.000E+00  0.000E+00  0.000E+00  3.24036E+01  1.813E-01  2.000E+01  2.000E+04 -9.238E-02
   1   18   29     3     8    1.9982E+05 -3.5374E+03   2.0336E+05  0.000E+00  0.000E+00  0.000E+00  3.15161E+01  1.828E-01  2.000E+01  2.000E+04 -1.769E-01
   1   18   30     3     9    2.0336E+05 -3.5480E+03   2.0691E+05  0.000E+00  0.000E+00  0.000E+00  3.06292E+01  1.847E-01  2.000E+01  2.000E+04 -1.774E-01



1
              HEAD IN LAYER   1 AT END OF TIME STEP   1 IN STRESS PERIOD    3
  ---------------------------------------------------------------------------

          1      2      3      4      5      6      7      8      9     10
         11     12     13     14     15     16     17     18     19     20
         21     22     23     24     25     26     27     28     29     30
 .........................................................................
   1  ****** ****** ****** ****** ****** ****** ****** ****** ****** ******
      ****** ****** ****** ****** ****** ****** ****** ****** ****** ******
      ****** ****** ****** ****** ****** ****** ****** ****** ****** ******
   2  ****** ****** ****** ****** ****** ****** ****** ****** ****** ******
      ****** ****** ****** ****** ****** ****** ****** ****** ****** ******
      ****** ****** ****** ****** ****** ****** ****** ****** ****** ******
   3  ****** ****** ****** ****** ****** ****** ****** ****** ****** ******
      ****** ****** ****** ****** ****** ****** ****** ****** ****** ******
      ****** ****** ****** ****** ****** ****** ****** ****** ****** ******
   4  ****** ****** ****** ****** ****** ****** ****** ****** ****** ******
      ****** ****** ****** ****** ****** ****** ****** ****** ****** ******
      ****** ****** ****** ****** ****** ****** ****** ****** ****** ******
   5  ****** ****** ****** ****** ****** ****** ****** ****** ****** ******
      ****** ****** ****** ****** ****** ****** ****** ****** ****** ******
      ****** ****** ****** ****** ****** ****** ****** ****** ****** ******
   6  ****** ****** ****** ****** ****** ****** ****** ****** ****** ******
      ****** ****** ****** ****** ****** ****** ****** ****** ****** ******
      ****** ****** ****** ****** ****** ****** ****** ****** ****** ******
   7  ****** ****** ****** ****** ****** ****** ****** ****** ****** ******
      ****** ****** ****** ****** ****** ****** ****** ****** ****** ******
      ****** ****** ****** ****** ****** ****** ****** ****** ****** ******
   8  ****** ****** ****** ****** ****** ****** ****** ****** ****** ******
      ****** ****** ****** ****** ****** ****** ****** ****** ****** ******
      ****** ****** ****** ****** ****** ****** ****** ****** ****** ******
   9  ****** ****** ****** ****** ****** ****** ****** ****** ****** ******
      ****** ****** ****** ****** ****** ****** ****** ****** ****** ******
      ****** ****** ****** ****** ****** ****** ****** ****** ****** ******
  10  ****** ****** ****** ****** ****** ****** ****** ****** ****** ******
      ****** ****** ****** ****** ****** ****** ****** ****** ****** ******
      ****** ****** ****** ****** ****** ****** ****** ****** ****** ******
  11  ****** ****** ****** ****** ****** ****** ****** ****** ****** ******
      ****** ****** ****** ****** ****** ****** ****** ****** ****** ******
      ****** ****** ****** ****** ****** ****** ****** ****** ****** ******
  12  ****** ****** ****** ****** ****** ****** ****** ****** ****** ******
      ****** ****** ****** ****** ****** ****** ****** ****** ****** ******
      ****** ****** ****** ****** ****** ****** ****** ****** ****** ******
  13  ****** ****** ****** ****** ****** ****** ****** ****** ****** ******
      ****** ****** ****** ****** ****** ****** ****** ****** ****** ******
      ****** ****** ****** ****** ****** ****** ****** ****** ****** ******
  14  ****** ****** ****** ****** ****** ****** ****** ****** ****** ******
      ****** ****** ****** ****** ****** ****** ****** ****** ****** ******
      ****** ****** ****** ****** ****** ****** ****** ****** ****** ******
  15  ****** ****** ****** ****** ****** ****** ****** ****** ****** ******
      ****** ****** ****** ****** ****** ****** ****** ****** ****** ******
      ****** ****** ****** ****** ****** ****** ****** ****** ****** ******
  16  ****** ****** ****** ****** ****** ****** ****** ****** ****** ******
      ****** ****** ****** ****** ****** ****** ****** ****** ****** ******
      ****** ****** ****** ****** ****** ****** ****** ****** ****** ******
  17  ****** ****** ****** ****** ****** ****** ****** ****** ****** ******
      ****** ****** ****** ****** ****** ****** ****** ****** ****** ******
      ****** ****** ****** ****** ****** ****** ****** ****** ****** ******
  18  ****** ****** ****** ****** ****** ****** ****** ****** ****** ******
      ****** ****** ****** ****** ****** ****** ****** ****** ****** ******
      ****** ****** ****** ****** ****** ****** ****** ****** ****** ******
  19  ****** ****** ****** ****** ****** ****** ****** ****** ****** ******
      ****** ****** ****** ****** ****** ****** ****** ****** ****** ******
      ****** ****** ****** ****** ****** ****** ****** ****** ****** ******
  20  ****** ****** ****** ****** ****** ****** ****** ****** ****** ******
      ****** ****** ****** ****** ****** ****** ****** ****** ****** ******
      ****** ****** ****** ****** ****** ****** ****** ****** ****** ******
  21  ****** ****** ****** ****** ****** ****** ****** ****** ****** ******
      ****** ****** ****** ****** ****** ****** ****** ****** ****** ******
      ****** ****** ****** ****** ****** ****** ****** ****** ****** ******
  22  ****** ****** ****** ****** ****** ****** ****** ****** ****** ******
      ****** ****** ****** ****** ****** ****** ****** ****** ****** ******
      ****** ****** ****** ****** ****** ****** ****** ****** ****** ******
  23  ****** ****** ****** ****** ****** ****** ****** ****** ****** ******
      ****** ****** ****** ****** ****** ****** ****** ****** ****** ******
      ****** ****** ****** ****** ****** ****** ****** ****** ****** ******
  24  ****** ****** ****** ****** ****** ****** ****** ****** ****** ******
      ****** ****** ****** ****** ****** ****** ****** ****** ****** ******
      ****** ****** ****** ****** ****** ****** ****** ****** ****** ******
  25  ****** ****** ****** ****** ****** ****** ****** ****** ****** ******
      ****** ****** ****** ****** ****** ****** ****** ****** ****** ******
      ****** ****** ****** ****** ****** ****** ****** ****** ****** ******

 HEAD WILL BE SAVED ON UNIT   51 AT END OF TIME STEP    1, STRESS PERIOD    3
1
  VOLUMETRIC BUDGET FOR ENTIRE MODEL AT END OF TIME STEP    1, STRESS PERIOD   3
  ------------------------------------------------------------------------------

     CUMULATIVE VOLUMES      L**3       RATES FOR THIS TIME STEP      L**3/T
     ------------------                 ------------------------

           IN:                                      IN:
           ---                                      ---
             STORAGE =    28401403.9049               STORAGE =       58111.6212
       CONSTANT HEAD =     5359374.0150         CONSTANT HEAD =       27217.7685
               WELLS =           0.0000                 WELLS =           0.0000
            RECHARGE =     6292800.0000              RECHARGE =           0.0000
      STREAM LEAKAGE =     1608261.5515        STREAM LEAKAGE =        7997.0902

            TOTAL IN =    41661839.4714              TOTAL IN =       93326.4798

          OUT:                                     OUT:
          ----                                     ----
             STORAGE =           0.0000               STORAGE =           0.0000
       CONSTANT HEAD =           0.0000         CONSTANT HEAD =           0.0000
               WELLS =     7788055.1247                 WELLS =       28423.5588
            RECHARGE =           0.0000              RECHARGE =           0.0000
      STREAM LEAKAGE =    33873786.2648        STREAM LEAKAGE =       64902.9284

           TOTAL OUT =    41661841.3895             TOTAL OUT =       93326.4873

            IN - OUT =          -1.9181              IN - OUT =      -7.4716E-03

 PERCENT DISCREPANCY =          -0.00     PERCENT DISCREPANCY =          -0.00






         TIME SUMMARY AT END OF TIME STEP    1 IN STRESS PERIOD    3
                    SECONDS     MINUTES      HOURS       DAYS        YEARS
                    -----------------------------------------------------------
   TIME STEP LENGTH 7.86240E+06 1.31040E+05  2184.0      91.000     0.24914    
 STRESS PERIOD TIME 7.86240E+06 1.31040E+05  2184.0      91.000     0.24914    
         TOTAL TIME 2.36736E+07 3.94560E+05  6576.0      274.00     0.75017    
1
1
                            STRESS PERIOD NO.    4, LENGTH =   91.00000    
                            -----------------------------------------------

                              NUMBER OF TIME STEPS =     1

                               MULTIPLIER FOR DELT =     1.500

                            INITIAL TIME STEP SIZE =   91.00000    

 WELL NO.  LAYER   ROW   COL   STRESS RATE         
 --------------------------------------------------
      1      1      6     15      -8201.    
      2      1     13     17     -0.1103E+05
      3      1      5      8      -7262.    
      4      1      3     21      -1929.    

      4 WELLS

                 RECHARGE =  1.000000E-03

 REUSING STREAM SEGMENT DATA FROM LAST STRESS PERIOD
 
 SOLVING FOR HEAD 


     6 CALLS TO PCG ROUTINE FOR TIME STEP   1 IN STRESS PERIOD    4
    23 TOTAL ITERATIONS

 OUTPUT CONTROL FOR STRESS PERIOD    4   TIME STEP    1
    SAVE BUDGET
    SAVE HEAD FOR ALL LAYERS
    PRINT HEAD FOR ALL LAYERS
 UBDSV2 SAVING "STREAMFLOW OUT  " ON UNIT  50 AT TIME STEP  1, STRESS PERIOD   4



 STREAM LISTING     PERIOD      4   STEP        1

 LAYER ROW COL. STREAM  RCH.  FLOW INTO     FLOW TO   FLOW OUT OF   OVRLND.     DIRECT     STREAM       STREAM     STREAM     STREAM   STREAMBED  STREAMBED
                SEG.NO.  NO.  STRM. RCH.    AQUIFER    STRM. RCH.    RUNOFF     PRECIP       ET          HEAD       DEPTH      WIDTH   CONDCTNC.   GRADIENT

   1   13    1     1     1    1.0000E+05 -2.0440E+03   1.0204E+05  0.000E+00  0.000E+00  0.000E+00  4.84069E+01  1.455E-01  2.000E+01  2.000E+04 -1.022E-01
   1   13    2     1     2    1.0204E+05 -3.0779E+03   1.0512E+05  0.000E+00  0.000E+00  0.000E+00  4.79318E+01  1.477E-01  2.000E+01  2.000E+04 -1.539E-01
   1   14    3     1     3    1.0512E+05 -5.9103E+02   1.0571E+05  0.000E+00  0.000E+00  0.000E+00  4.74561E+01  1.493E-01  2.000E+01  2.000E+04 -2.955E-02
   1   15    4     1     4    1.0571E+05 -5.7964E+02   1.0629E+05  0.000E+00  0.000E+00  0.000E+00  4.69793E+01  1.498E-01  2.000E+01  2.000E+04 -2.898E-02
   1   16    5     1     5    1.0629E+05 -2.1522E+03   1.0844E+05  0.000E+00  0.000E+00  0.000E+00  4.65032E+01  1.510E-01  2.000E+01  2.000E+04 -1.076E-01
   1   16    6     1     6    1.0844E+05 -1.3440E+03   1.0979E+05  0.000E+00  0.000E+00  0.000E+00  4.60274E+01  1.524E-01  2.000E+01  2.000E+04 -6.720E-02
   1   16    7     1     7    1.0979E+05 -1.3166E+03   1.1111E+05  0.000E+00  0.000E+00  0.000E+00  4.55513E+01  1.535E-01  2.000E+01  2.000E+04 -6.583E-02
   1   16    8     1     8    1.1111E+05 -1.3081E+03   1.1241E+05  0.000E+00  0.000E+00  0.000E+00  4.50751E+01  1.546E-01  2.000E+01  2.000E+04 -6.540E-02
   1   16    9     1     9    1.1241E+05 -1.2931E+03   1.1371E+05  0.000E+00  0.000E+00  0.000E+00  4.45989E+01  1.557E-01  2.000E+01  2.000E+04 -6.465E-02
   1   16   10     1    10    1.1371E+05 -1.2700E+03   1.1498E+05  0.000E+00  0.000E+00  0.000E+00  4.41227E+01  1.568E-01  2.000E+01  2.000E+04 -6.350E-02
   1   16   11     1    11    1.1498E+05 -1.2619E+03   1.1624E+05  0.000E+00  0.000E+00  0.000E+00  4.36464E+01  1.578E-01  2.000E+01  2.000E+04 -6.309E-02
   1   16   12     1    12    1.1624E+05 -2.0781E+03   1.1832E+05  0.000E+00  0.000E+00  0.000E+00  4.31705E+01  1.592E-01  2.000E+01  2.000E+04 -1.039E-01
   1   15   13     1    13    1.1832E+05 -1.7422E+03   1.2006E+05  0.000E+00  0.000E+00  0.000E+00  4.26948E+01  1.607E-01  2.000E+01  2.000E+04 -8.711E-02
   1   14   14     1    14    1.2006E+05 -1.5803E+03   1.2164E+05  0.000E+00  0.000E+00  0.000E+00  4.22189E+01  1.621E-01  2.000E+01  2.000E+04 -7.901E-02
   1   13   15     1    15    1.2164E+05 -6.6574E+02   1.2230E+05  0.000E+00  0.000E+00  0.000E+00  4.17425E+01  1.630E-01  2.000E+01  2.000E+04 -3.329E-02
   1   12   16     1    16    1.2230E+05 -1.1743E+03   1.2348E+05  0.000E+00  0.000E+00  0.000E+00  4.12660E+01  1.637E-01  2.000E+01  2.000E+04 -5.872E-02
   1   12   17     1    17    1.2348E+05  1.9043E+03   1.2157E+05  0.000E+00  0.000E+00  0.000E+00  4.07884E+01  1.634E-01  2.000E+01  2.000E+04  9.522E-02
   1   12   18     1    18    1.2157E+05 -3.3091E+02   1.2191E+05  0.000E+00  0.000E+00  0.000E+00  4.03105E+01  1.628E-01  2.000E+01  2.000E+04 -1.655E-02
   1   12   19     1    19    1.2191E+05 -1.7453E+03   1.2365E+05  0.000E+00  0.000E+00  0.000E+00  3.98341E+01  1.636E-01  2.000E+01  2.000E+04 -8.726E-02
   1   13   20     1    20    1.2365E+05 -1.2948E+03   1.2495E+05  0.000E+00  0.000E+00  0.000E+00  3.93580E+01  1.648E-01  2.000E+01  2.000E+04 -6.474E-02
   1   14   21     1    21    1.2495E+05 -1.6766E+03   1.2662E+05  0.000E+00  0.000E+00  0.000E+00  3.88819E+01  1.660E-01  2.000E+01  2.000E+04 -8.383E-02
   1   14   22     1    22    1.2662E+05  4.7382E+03   1.2188E+05  0.000E+00  0.000E+00  0.000E+00  3.84034E+01  1.648E-01  2.000E+01  2.000E+04  2.369E-01
   1    9   30     2     1    5.0000E+04 -7.8816E+02   5.0788E+04  0.000E+00  0.000E+00  0.000E+00  4.02414E+01  1.164E-01  2.000E+01  2.000E+04 -3.941E-02
   1    9   29     2     2    5.0788E+04 -1.0821E+03   5.1870E+04  0.000E+00  0.000E+00  0.000E+00  3.99927E+01  1.177E-01  2.000E+01  2.000E+04 -5.410E-02
   1    9   28     2     3    5.1870E+04 -1.3258E+03   5.3196E+04  0.000E+00  0.000E+00  0.000E+00  3.97444E+01  1.194E-01  2.000E+01  2.000E+04 -6.629E-02
   1    9   27     2     4    5.3196E+04 -2.5808E+03   5.5777E+04  0.000E+00  0.000E+00  0.000E+00  3.94970E+01  1.220E-01  2.000E+01  2.000E+04 -1.290E-01
   1   10   26     2     5    5.5777E+04 -1.7334E+03   5.7510E+04  0.000E+00  0.000E+00  0.000E+00  3.92499E+01  1.249E-01  2.000E+01  2.000E+04 -8.667E-02
   1   11   25     2     6    5.7510E+04 -1.5036E+03   5.9014E+04  0.000E+00  0.000E+00  0.000E+00  3.90020E+01  1.270E-01  2.000E+01  2.000E+04 -7.518E-02
   1   12   24     2     7    5.9014E+04 -1.5464E+03   6.0560E+04  0.000E+00  0.000E+00  0.000E+00  3.87540E+01  1.290E-01  2.000E+01  2.000E+04 -7.732E-02
   1   13   23     2     8    6.0560E+04 -2.6641E+02   6.0827E+04  0.000E+00  0.000E+00  0.000E+00  3.85052E+01  1.302E-01  2.000E+01  2.000E+04 -1.332E-02
   1   14   22     2     9    6.0827E+04  1.7538E+03   5.9073E+04  0.000E+00  0.000E+00  0.000E+00  3.82542E+01  1.292E-01  2.000E+01  2.000E+04  8.769E-02
   1   14   22     3     1    1.8096E+05 -8.7429E+03   1.8970E+05  0.000E+00  0.000E+00  0.000E+00  3.77294E+01  1.738E-01  2.000E+01  2.000E+04 -4.371E-01
   1   15   23     3     2    1.8970E+05 -6.1964E+02   1.9032E+05  0.000E+00  0.000E+00  0.000E+00  3.68431E+01  1.764E-01  2.000E+01  2.000E+04 -3.098E-02
   1   15   24     3     3    1.9032E+05 -3.4148E+02   1.9066E+05  0.000E+00  0.000E+00  0.000E+00  3.59545E+01  1.767E-01  2.000E+01  2.000E+04 -1.707E-02
   1   15   25     3     4    1.9066E+05 -3.3257E+02   1.9099E+05  0.000E+00  0.000E+00  0.000E+00  3.50658E+01  1.769E-01  2.000E+01  2.000E+04 -1.663E-02
   1   15   26     3     5    1.9099E+05 -3.7965E+02   1.9137E+05  0.000E+00  0.000E+00  0.000E+00  3.41771E+01  1.771E-01  2.000E+01  2.000E+04 -1.898E-02
   1   16   27     3     6    1.9137E+05 -4.3537E+02   1.9181E+05  0.000E+00  0.000E+00  0.000E+00  3.32884E+01  1.773E-01  2.000E+01  2.000E+04 -2.177E-02
   1   17   28     3     7    1.9181E+05 -1.7899E+03   1.9360E+05  0.000E+00  0.000E+00  0.000E+00  3.24001E+01  1.779E-01  2.000E+01  2.000E+04 -8.950E-02
   1   18   29     3     8    1.9360E+05 -3.3319E+03   1.9693E+05  0.000E+00  0.000E+00  0.000E+00  3.15127E+01  1.793E-01  2.000E+01  2.000E+04 -1.666E-01
   1   18   30     3     9    1.9693E+05 -3.4474E+03   2.0038E+05  0.000E+00  0.000E+00  0.000E+00  3.06256E+01  1.812E-01  2.000E+01  2.000E+04 -1.724E-01



1
              HEAD IN LAYER   1 AT END OF TIME STEP   1 IN STRESS PERIOD    4
  ---------------------------------------------------------------------------

          1      2      3      4      5      6      7      8      9     10
         11     12     13     14     15     16     17     18     19     20
         21     22     23     24     25     26     27     28     29     30
 .........................................................................
   1  ****** ****** ****** ****** ****** ****** ****** ****** ****** ******
      ****** ****** ****** ****** ****** ****** ****** ****** ****** ******
      ****** ****** ****** ****** ****** ****** ****** ****** ****** ******
   2  ****** ****** ****** ****** ****** ****** ****** ****** ****** ******
      ****** ****** ****** ****** ****** ****** ****** ****** ****** ******
      ****** ****** ****** ****** ****** ****** ****** ****** ****** ******
   3  ****** ****** ****** ****** ****** ****** ****** ****** ****** ******
      ****** ****** ****** ****** ****** ****** ****** ****** ****** ******
      ****** ****** ****** ****** ****** ****** ****** ****** ****** ******
   4  ****** ****** ****** ****** ****** ****** ****** ****** ****** ******
      ****** ****** ****** ****** ****** ****** ****** ****** ****** ******
      ****** ****** ****** ****** ****** ****** ****** ****** ****** ******
   5  ****** ****** ****** ****** ****** ****** ****** ****** ****** ******
      ****** ****** ****** ****** ****** ****** ****** ****** ****** ******
      ****** ****** ****** ****** ****** ****** ****** ****** ****** ******
   6  ****** ****** ****** ****** ****** ****** ****** ****** ****** ******
      ****** ****** ****** ****** ****** ****** ****** ****** ****** ******
      ****** ****** ****** ****** ****** ****** ****** ****** ****** ******
   7  ****** ****** ****** ****** ****** ****** ****** ****** ****** ******
      ****** ****** ****** ****** ****** ****** ****** ****** ****** ******
      ****** ****** ****** ****** ****** ****** ****** ****** ****** ******
   8  ****** ****** ****** ****** ****** ****** ****** ****** ****** ******
      ****** ****** ****** ****** ****** ****** ****** ****** ****** ******
      ****** ****** ****** ****** ****** ****** ****** ****** ****** ******
   9  ****** ****** ****** ****** ****** ****** ****** ****** ****** ******
      ****** ****** ****** ****** ****** ****** ****** ****** ****** ******
      ****** ****** ****** ****** ****** ****** ****** ****** ****** ******
  10  ****** ****** ****** ****** ****** ****** ****** ****** ****** ******
      ****** ****** ****** ****** ****** ****** ****** ****** ****** ******
      ****** ****** ****** ****** ****** ****** ****** ****** ****** ******
  11  ****** ****** ****** ****** ****** ****** ****** ****** ****** ******
      ****** ****** ****** ****** ****** ****** ****** ****** ****** ******
      ****** ****** ****** ****** ****** ****** ****** ****** ****** ******
  12  ****** ****** ****** ****** ****** ****** ****** ****** ****** ******
      ****** ****** ****** ****** ****** ****** ****** ****** ****** ******
      ****** ****** ****** ****** ****** ****** ****** ****** ****** ******
  13  ****** ****** ****** ****** ****** ****** ****** ****** ****** ******
      ****** ****** ****** ****** ****** ****** ****** ****** ****** ******
      ****** ****** ****** ****** ****** ****** ****** ****** ****** ******
  14  ****** ****** ****** ****** ****** ****** ****** ****** ****** ******
      ****** ****** ****** ****** ****** ****** ****** ****** ****** ******
      ****** ****** ****** ****** ****** ****** ****** ****** ****** ******
  15  ****** ****** ****** ****** ****** ****** ****** ****** ****** ******
      ****** ****** ****** ****** ****** ****** ****** ****** ****** ******
      ****** ****** ****** ****** ****** ****** ****** ****** ****** ******
  16  ****** ****** ****** ****** ****** ****** ****** ****** ****** ******
      ****** ****** ****** ****** ****** ****** ****** ****** ****** ******
      ****** ****** ****** ****** ****** ****** ****** ****** ****** ******
  17  ****** ****** ****** ****** ****** ****** ****** ****** ****** ******
      ****** ****** ****** ****** ****** ****** ****** ****** ****** ******
      ****** ****** ****** ****** ****** ****** ****** ****** ****** ******
  18  ****** ****** ****** ****** ****** ****** ****** ****** ****** ******
      ****** ****** ****** ****** ****** ****** ****** ****** ****** ******
      ****** ****** ****** ****** ****** ****** ****** ****** ****** ******
  19  ****** ****** ****** ****** ****** ****** ****** ****** ****** ******
      ****** ****** ****** ****** ****** ****** ****** ****** ****** ******
      ****** ****** ****** ****** ****** ****** ****** ****** ****** ******
  20  ****** ****** ****** ****** ****** ****** ****** ****** ****** ******
      ****** ****** ****** ****** ****** ****** ****** ****** ****** ******
      ****** ****** ****** ****** ****** ****** ****** ****** ****** ******
  21  ****** ****** ****** ****** ****** ****** ****** ****** ****** ******
      ****** ****** ****** ****** ****** ****** ****** ****** ****** ******
      ****** ****** ****** ****** ****** ****** ****** ****** ****** ******
  22  ****** ****** ****** ****** ****** ****** ****** ****** ****** ******
      ****** ****** ****** ****** ****** ****** ****** ****** ****** ******
      ****** ****** ****** ****** ****** ****** ****** ****** ****** ******
  23  ****** ****** ****** ****** ****** ****** ****** ****** ****** ******
      ****** ****** ****** ****** ****** ****** ****** ****** ****** ******
      ****** ****** ****** ****** ****** ****** ****** ****** ****** ******
  24  ****** ****** ****** ****** ****** ****** ****** ****** ****** ******
      ****** ****** ****** ****** ****** ****** ****** ****** ****** ******
      ****** ****** ****** ****** ****** ****** ****** ****** ****** ******
  25  ****** ****** ****** ****** ****** ****** ****** ****** ****** ******
      ****** ****** ****** ****** ****** ****** ****** ****** ****** ******
      ****** ****** ****** ****** ****** ****** ****** ****** ****** ******

 HEAD WILL BE SAVED ON UNIT   51 AT END OF TIME STEP    1, STRESS PERIOD    4
1
  VOLUMETRIC BUDGET FOR ENTIRE MODEL AT END OF TIME STEP    1, STRESS PERIOD   4
  ------------------------------------------------------------------------------

     CUMULATIVE VOLUMES      L**3       RATES FOR THIS TIME STEP      L**3/T
     ------------------                 ------------------------

           IN:                                      IN:
           ---                                      ---
             STORAGE =    30321582.8745               STORAGE =       21100.8678
       CONSTANT HEAD =     8099715.1834         CONSTANT HEAD =       30113.6392
               WELLS =           0.0000                 WELLS =           0.0000
            RECHARGE =     8804400.0000              RECHARGE =       27600.0000
      STREAM LEAKAGE =     2372327.9385        STREAM LEAKAGE =        8396.3339

            TOTAL IN =    49598025.9963              TOTAL IN =       87210.8409

          OUT:                                     OUT:
          ----                                     ----
             STORAGE =        1201.7463               STORAGE =          13.2060
       CONSTANT HEAD =           0.0000         CONSTANT HEAD =           0.0000
               WELLS =    10374598.9800                 WELLS =       28423.5588
            RECHARGE =           0.0000              RECHARGE =           0.0000
      STREAM LEAKAGE =    39222227.2801        STREAM LEAKAGE =       58774.0771

           TOTAL OUT =    49598028.0065             TOTAL OUT =       87210.8419

            IN - OUT =          -2.0102              IN - OUT =      -1.0117E-03

 PERCENT DISCREPANCY =          -0.00     PERCENT DISCREPANCY =          -0.00






         TIME SUMMARY AT END OF TIME STEP    1 IN STRESS PERIOD    4
                    SECONDS     MINUTES      HOURS       DAYS        YEARS
                    -----------------------------------------------------------
   TIME STEP LENGTH 7.86240E+06 1.31040E+05  2184.0      91.000     0.24914    
 STRESS PERIOD TIME 7.86240E+06 1.31040E+05  2184.0      91.000     0.24914    
         TOTAL TIME 3.15360E+07 5.25600E+05  8760.0      365.00     0.99932    
1
1
                            STRESS PERIOD NO.    5, LENGTH =   92.00000    
                            -----------------------------------------------

                              NUMBER OF TIME STEPS =     1

                               MULTIPLIER FOR DELT =     1.500

                            INITIAL TIME STEP SIZE =   92.00000    

 WELL NO.  LAYER   ROW   COL   STRESS RATE         
 --------------------------------------------------
      1      1      6     15      -8201.    
      2      1     13     17     -0.1103E+05
      3      1      5      8      -7262.    
      4      1      3     21      -1929.    

      4 WELLS

                 RECHARGE =  5.000000E-04

 REUSING STREAM SEGMENT DATA FROM LAST STRESS PERIOD
 
 SOLVING FOR HEAD 


     7 CALLS TO PCG ROUTINE FOR TIME STEP   1 IN STRESS PERIOD    5
    26 TOTAL ITERATIONS

 OUTPUT CONTROL FOR STRESS PERIOD    5   TIME STEP    1
    SAVE BUDGET
    SAVE HEAD FOR ALL LAYERS
    PRINT HEAD FOR ALL LAYERS
 UBDSV2 SAVING "STREAMFLOW OUT  " ON UNIT  50 AT TIME STEP  1, STRESS PERIOD   5



 STREAM LISTING     PERIOD      5   STEP        1

 LAYER ROW COL. STREAM  RCH.  FLOW INTO     FLOW TO   FLOW OUT OF   OVRLND.     DIRECT     STREAM       STREAM     STREAM     STREAM   STREAMBED  STREAMBED
                SEG.NO.  NO.  STRM. RCH.    AQUIFER    STRM. RCH.    RUNOFF     PRECIP       ET          HEAD       DEPTH      WIDTH   CONDCTNC.   GRADIENT

   1   13    1     1     1    1.0000E+05 -1.5544E+03   1.0155E+05  0.000E+00  0.000E+00  0.000E+00  4.84067E+01  1.453E-01  2.000E+01  2.000E+04 -7.772E-02
   1   13    2     1     2    1.0155E+05 -2.5242E+03   1.0408E+05  0.000E+00  0.000E+00  0.000E+00  4.79312E+01  1.471E-01  2.000E+01  2.000E+04 -1.262E-01
   1   14    3     1     3    1.0408E+05 -4.5955E+02   1.0454E+05  0.000E+00  0.000E+00  0.000E+00  4.74552E+01  1.484E-01  2.000E+01  2.000E+04 -2.298E-02
   1   15    4     1     4    1.0454E+05 -4.4452E+02   1.0498E+05  0.000E+00  0.000E+00  0.000E+00  4.69783E+01  1.487E-01  2.000E+01  2.000E+04 -2.223E-02
   1   16    5     1     5    1.0498E+05 -1.7209E+03   1.0670E+05  0.000E+00  0.000E+00  0.000E+00  4.65019E+01  1.497E-01  2.000E+01  2.000E+04 -8.605E-02
   1   16    6     1     6    1.0670E+05 -1.0884E+03   1.0779E+05  0.000E+00  0.000E+00  0.000E+00  4.60259E+01  1.509E-01  2.000E+01  2.000E+04 -5.442E-02
   1   16    7     1     7    1.0779E+05 -1.0709E+03   1.0886E+05  0.000E+00  0.000E+00  0.000E+00  4.55495E+01  1.518E-01  2.000E+01  2.000E+04 -5.354E-02
   1   16    8     1     8    1.0886E+05 -1.0662E+03   1.0993E+05  0.000E+00  0.000E+00  0.000E+00  4.50731E+01  1.527E-01  2.000E+01  2.000E+04 -5.331E-02
   1   16    9     1     9    1.0993E+05 -1.0551E+03   1.1098E+05  0.000E+00  0.000E+00  0.000E+00  4.45967E+01  1.535E-01  2.000E+01  2.000E+04 -5.275E-02
   1   16   10     1    10    1.1098E+05 -1.0370E+03   1.1202E+05  0.000E+00  0.000E+00  0.000E+00  4.41203E+01  1.544E-01  2.000E+01  2.000E+04 -5.185E-02
   1   16   11     1    11    1.1202E+05 -1.0306E+03   1.1305E+05  0.000E+00  0.000E+00  0.000E+00  4.36439E+01  1.553E-01  2.000E+01  2.000E+04 -5.153E-02
   1   16   12     1    12    1.1305E+05 -1.6606E+03   1.1471E+05  0.000E+00  0.000E+00  0.000E+00  4.31677E+01  1.564E-01  2.000E+01  2.000E+04 -8.303E-02
   1   15   13     1    13    1.1471E+05 -1.2831E+03   1.1600E+05  0.000E+00  0.000E+00  0.000E+00  4.26917E+01  1.576E-01  2.000E+01  2.000E+04 -6.416E-02
   1   14   14     1    14    1.1600E+05 -1.0785E+03   1.1707E+05  0.000E+00  0.000E+00  0.000E+00  4.22154E+01  1.586E-01  2.000E+01  2.000E+04 -5.392E-02
   1   13   15     1    15    1.1707E+05 -1.3264E+02   1.1721E+05  0.000E+00  0.000E+00  0.000E+00  4.17386E+01  1.591E-01  2.000E+01  2.000E+04 -6.632E-03
   1   12   16     1    16    1.1721E+05 -5.7107E+02   1.1778E+05  0.000E+00  0.000E+00  0.000E+00  4.12616E+01  1.593E-01  2.000E+01  2.000E+04 -2.855E-02
   1   12   17     1    17    1.1778E+05  2.2953E+03   1.1548E+05  0.000E+00  0.000E+00  0.000E+00  4.07836E+01  1.586E-01  2.000E+01  2.000E+04  1.148E-01
   1   12   18     1    18    1.1548E+05  3.6161E+01   1.1545E+05  0.000E+00  0.000E+00  0.000E+00  4.03054E+01  1.577E-01  2.000E+01  2.000E+04  1.808E-03
   1   12   19     1    19    1.1545E+05 -1.3005E+03   1.1675E+05  0.000E+00  0.000E+00  0.000E+00  3.98287E+01  1.582E-01  2.000E+01  2.000E+04 -6.502E-02
   1   13   20     1    20    1.1675E+05 -9.2876E+02   1.1768E+05  0.000E+00  0.000E+00  0.000E+00  3.93523E+01  1.591E-01  2.000E+01  2.000E+04 -4.644E-02
   1   14   21     1    21    1.1768E+05 -1.3021E+03   1.1898E+05  0.000E+00  0.000E+00  0.000E+00  3.88759E+01  1.600E-01  2.000E+01  2.000E+04 -6.510E-02
   1   14   22     1    22    1.1898E+05  4.8134E+03   1.1416E+05  0.000E+00  0.000E+00  0.000E+00  3.83972E+01  1.586E-01  2.000E+01  2.000E+04  2.407E-01
   1    9   30     2     1    5.0000E+04 -5.5005E+02   5.0550E+04  0.000E+00  0.000E+00  0.000E+00  4.02412E+01  1.162E-01  2.000E+01  2.000E+04 -2.750E-02
   1    9   29     2     2    5.0550E+04 -8.3964E+02   5.1390E+04  0.000E+00  0.000E+00  0.000E+00  3.99922E+01  1.172E-01  2.000E+01  2.000E+04 -4.198E-02
   1    9   28     2     3    5.1390E+04 -1.0695E+03   5.2459E+04  0.000E+00  0.000E+00  0.000E+00  3.97435E+01  1.185E-01  2.000E+01  2.000E+04 -5.348E-02
   1    9   27     2     4    5.2459E+04 -2.1701E+03   5.4629E+04  0.000E+00  0.000E+00  0.000E+00  3.94957E+01  1.207E-01  2.000E+01  2.000E+04 -1.085E-01
   1   10   26     2     5    5.4629E+04 -1.3748E+03   5.6004E+04  0.000E+00  0.000E+00  0.000E+00  3.92481E+01  1.231E-01  2.000E+01  2.000E+04 -6.874E-02
   1   11   25     2     6    5.6004E+04 -1.1734E+03   5.7177E+04  0.000E+00  0.000E+00  0.000E+00  3.89998E+01  1.248E-01  2.000E+01  2.000E+04 -5.867E-02
   1   12   24     2     7    5.7177E+04 -1.2428E+03   5.8420E+04  0.000E+00  0.000E+00  0.000E+00  3.87514E+01  1.264E-01  2.000E+01  2.000E+04 -6.214E-02
   1   13   23     2     8    5.8420E+04 -1.9490E+02   5.8615E+04  0.000E+00  0.000E+00  0.000E+00  3.85023E+01  1.273E-01  2.000E+01  2.000E+04 -9.745E-03
   1   14   22     2     9    5.8615E+04  1.8933E+03   5.6722E+04  0.000E+00  0.000E+00  0.000E+00  3.82512E+01  1.262E-01  2.000E+01  2.000E+04  9.466E-02
   1   14   22     3     1    1.7089E+05 -8.6590E+03   1.7955E+05  0.000E+00  0.000E+00  0.000E+00  3.77236E+01  1.681E-01  2.000E+01  2.000E+04 -4.330E-01
   1   15   23     3     2    1.7955E+05 -5.2284E+02   1.8007E+05  0.000E+00  0.000E+00  0.000E+00  3.68373E+01  1.707E-01  2.000E+01  2.000E+04 -2.614E-02
   1   15   24     3     3    1.8007E+05 -2.7018E+02   1.8034E+05  0.000E+00  0.000E+00  0.000E+00  3.59487E+01  1.709E-01  2.000E+01  2.000E+04 -1.351E-02
   1   15   25     3     4    1.8034E+05 -2.6177E+02   1.8060E+05  0.000E+00  0.000E+00  0.000E+00  3.50599E+01  1.711E-01  2.000E+01  2.000E+04 -1.309E-02
   1   15   26     3     5    1.8060E+05 -3.0787E+02   1.8091E+05  0.000E+00  0.000E+00  0.000E+00  3.41712E+01  1.712E-01  2.000E+01  2.000E+04 -1.539E-02
   1   16   27     3     6    1.8091E+05 -3.4542E+02   1.8125E+05  0.000E+00  0.000E+00  0.000E+00  3.32825E+01  1.714E-01  2.000E+01  2.000E+04 -1.727E-02
   1   17   28     3     7    1.8125E+05 -1.5241E+03   1.8278E+05  0.000E+00  0.000E+00  0.000E+00  3.23942E+01  1.719E-01  2.000E+01  2.000E+04 -7.621E-02
   1   18   29     3     8    1.8278E+05 -2.9623E+03   1.8574E+05  0.000E+00  0.000E+00  0.000E+00  3.15065E+01  1.732E-01  2.000E+01  2.000E+04 -1.481E-01
   1   18   30     3     9    1.8574E+05 -3.1926E+03   1.8893E+05  0.000E+00  0.000E+00  0.000E+00  3.06194E+01  1.749E-01  2.000E+01  2.000E+04 -1.596E-01



1
              HEAD IN LAYER   1 AT END OF TIME STEP   1 IN STRESS PERIOD    5
  ---------------------------------------------------------------------------

          1      2      3      4      5      6      7      8      9     10
         11     12     13     14     15     16     17     18     19     20
         21     22     23     24     25     26     27     28     29     30
 .........................................................................
   1  ****** ****** ****** ****** ****** ****** ****** ****** ****** ******
      ****** ****** ****** ****** ****** ****** ****** ****** ****** ******
      ****** ****** ****** ****** ****** ****** ****** ****** ****** ******
   2  ****** ****** ****** ****** ****** ****** ****** ****** ****** ******
      ****** ****** ****** ****** ****** ****** ****** ****** ****** ******
      ****** ****** ****** ****** ****** ****** ****** ****** ****** ******
   3  ****** ****** ****** ****** ****** ****** ****** ****** ****** ******
      ****** ****** ****** ****** ****** ****** ****** ****** ****** ******
      ****** ****** ****** ****** ****** ****** ****** ****** ****** ******
   4  ****** ****** ****** ****** ****** ****** ****** ****** ****** ******
      ****** ****** ****** ****** ****** ****** ****** ****** ****** ******
      ****** ****** ****** ****** ****** ****** ****** ****** ****** ******
   5  ****** ****** ****** ****** ****** ****** ****** ****** ****** ******
      ****** ****** ****** ****** ****** ****** ****** ****** ****** ******
      ****** ****** ****** ****** ****** ****** ****** ****** ****** ******
   6  ****** ****** ****** ****** ****** ****** ****** ****** ****** ******
      ****** ****** ****** ****** ****** ****** ****** ****** ****** ******
      ****** ****** ****** ****** ****** ****** ****** ****** ****** ******
   7  ****** ****** ****** ****** ****** ****** ****** ****** ****** ******
      ****** ****** ****** ****** ****** ****** ****** ****** ****** ******
      ****** ****** ****** ****** ****** ****** ****** ****** ****** ******
   8  ****** ****** ****** ****** ****** ****** ****** ****** ****** ******
      ****** ****** ****** ****** ****** ****** ****** ****** ****** ******
      ****** ****** ****** ****** ****** ****** ****** ****** ****** ******
   9  ****** ****** ****** ****** ****** ****** ****** ****** ****** ******
      ****** ****** ****** ****** ****** ****** ****** ****** ****** ******
      ****** ****** ****** ****** ****** ****** ****** ****** ****** ******
  10  ****** ****** ****** ****** ****** ****** ****** ****** ****** ******
      ****** ****** ****** ****** ****** ****** ****** ****** ****** ******
      ****** ****** ****** ****** ****** ****** ****** ****** ****** ******
  11  ****** ****** ****** ****** ****** ****** ****** ****** ****** ******
      ****** ****** ****** ****** ****** ****** ****** ****** ****** ******
      ****** ****** ****** ****** ****** ****** ****** ****** ****** ******
  12  ****** ****** ****** ****** ****** ****** ****** ****** ****** ******
      ****** ****** ****** ****** ****** ****** ****** ****** ****** ******
      ****** ****** ****** ****** ****** ****** ****** ****** ****** ******
  13  ****** ****** ****** ****** ****** ****** ****** ****** ****** ******
      ****** ****** ****** ****** ****** ****** ****** ****** ****** ******
      ****** ****** ****** ****** ****** ****** ****** ****** ****** ******
  14  ****** ****** ****** ****** ****** ****** ****** ****** ****** ******
      ****** ****** ****** ****** ****** ****** ****** ****** ****** ******
      ****** ****** ****** ****** ****** ****** ****** ****** ****** ******
  15  ****** ****** ****** ****** ****** ****** ****** ****** ****** ******
      ****** ****** ****** ****** ****** ****** ****** ****** ****** ******
      ****** ****** ****** ****** ****** ****** ****** ****** ****** ******
  16  ****** ****** ****** ****** ****** ****** ****** ****** ****** ******
      ****** ****** ****** ****** ****** ****** ****** ****** ****** ******
      ****** ****** ****** ****** ****** ****** ****** ****** ****** ******
  17  ****** ****** ****** ****** ****** ****** ****** ****** ****** ******
      ****** ****** ****** ****** ****** ****** ****** ****** ****** ******
      ****** ****** ****** ****** ****** ****** ****** ****** ****** ******
  18  ****** ****** ****** ****** ****** ****** ****** ****** ****** ******
      ****** ****** ****** ****** ****** ****** ****** ****** ****** ******
      ****** ****** ****** ****** ****** ****** ****** ****** ****** ******
  19  ****** ****** ****** ****** ****** ****** ****** ****** ****** ******
      ****** ****** ****** ****** ****** ****** ****** ****** ****** ******
      ****** ****** ****** ****** ****** ****** ****** ****** ****** ******
  20  ****** ****** ****** ****** ****** ****** ****** ****** ****** ******
      ****** ****** ****** ****** ****** ****** ****** ****** ****** ******
      ****** ****** ****** ****** ****** ****** ****** ****** ****** ******
  21  ****** ****** ****** ****** ****** ****** ****** ****** ****** ******
      ****** ****** ****** ****** ****** ****** ****** ****** ****** ******
      ****** ****** ****** ****** ****** ****** ****** ****** ****** ******
  22  ****** ****** ****** ****** ****** ****** ****** ****** ****** ******
      ****** ****** ****** ****** ****** ****** ****** ****** ****** ******
      ****** ****** ****** ****** ****** ****** ****** ****** ****** ******
  23  ****** ****** ****** ****** ****** ****** ****** ****** ****** ******
      ****** ****** ****** ****** ****** ****** ****** ****** ****** ******
      ****** ****** ****** ****** ****** ****** ****** ****** ****** ******
  24  ****** ****** ****** ****** ****** ****** ****** ****** ****** ******
      ****** ****** ****** ****** ****** ****** ****** ****** ****** ******
      ****** ****** ****** ****** ****** ****** ****** ****** ****** ******
  25  ****** ****** ****** ****** ****** ****** ****** ****** ****** ******
      ****** ****** ****** ****** ****** ****** ****** ****** ****** ******
      ****** ****** ****** ****** ****** ****** ****** ****** ****** ******

 HEAD WILL BE SAVED ON UNIT   51 AT END OF TIME STEP    1, STRESS PERIOD    5
1
  VOLUMETRIC BUDGET FOR ENTIRE MODEL AT END OF TIME STEP    1, STRESS PERIOD   5
  ------------------------------------------------------------------------------

     CUMULATIVE VOLUMES      L**3       RATES FOR THIS TIME STEP      L**3/T
     ------------------                 ------------------------

           IN:                                      IN:
           ---                                      ---
             STORAGE =    32188726.5437               STORAGE =       20295.0399
       CONSTANT HEAD =    11159702.6266         CONSTANT HEAD =       33260.7331
               WELLS =           0.0000                 WELLS =           0.0000
            RECHARGE =    10074000.0000              RECHARGE =       13800.0000
      STREAM LEAKAGE =     3203834.4927        STREAM LEAKAGE =        9038.1147

            TOTAL IN =    56626263.6629              TOTAL IN =       76393.8877

          OUT:                                     OUT:
          ----                                     ----
             STORAGE =        1201.7463               STORAGE =           0.0000
       CONSTANT HEAD =           0.0000         CONSTANT HEAD =           0.0000
               WELLS =    12989566.3941                 WELLS =       28423.5588
            RECHARGE =           0.0000              RECHARGE =           0.0000
      STREAM LEAKAGE =    43635497.8485        STREAM LEAKAGE =       47970.3323

           TOTAL OUT =    56626265.9889             TOTAL OUT =       76393.8911

            IN - OUT =          -2.3260              IN - OUT =      -3.4329E-03

 PERCENT DISCREPANCY =          -0.00     PERCENT DISCREPANCY =          -0.00






         TIME SUMMARY AT END OF TIME STEP    1 IN STRESS PERIOD    5
                    SECONDS     MINUTES      HOURS       DAYS        YEARS
                    -----------------------------------------------------------
   TIME STEP LENGTH 7.94880E+06 1.32480E+05  2208.0      92.000     0.25188    
 STRESS PERIOD TIME 7.94880E+06 1.32480E+05  2208.0      92.000     0.25188    
         TOTAL TIME 3.94848E+07 6.58080E+05  10968.      457.00      1.2512    
1
1
                            STRESS PERIOD NO.    6, LENGTH =   91.00000    
                            -----------------------------------------------

                              NUMBER OF TIME STEPS =     1

                               MULTIPLIER FOR DELT =     1.500

                            INITIAL TIME STEP SIZE =   91.00000    

 WELL NO.  LAYER   ROW   COL   STRESS RATE         
 --------------------------------------------------
      1      1      6     15      -8201.    
      2      1     13     17     -0.1103E+05
      3      1      5      8      -7262.    
      4      1      3     21      -1929.    

      4 WELLS

                 RECHARGE =  2.000000E-03

 REUSING STREAM SEGMENT DATA FROM LAST STRESS PERIOD
 
 SOLVING FOR HEAD 


     7 CALLS TO PCG ROUTINE FOR TIME STEP   1 IN STRESS PERIOD    6
    26 TOTAL ITERATIONS

 OUTPUT CONTROL FOR STRESS PERIOD    6   TIME STEP    1
    SAVE BUDGET
    SAVE HEAD FOR ALL LAYERS
    PRINT HEAD FOR ALL LAYERS
 UBDSV2 SAVING "STREAMFLOW OUT  " ON UNIT  50 AT TIME STEP  1, STRESS PERIOD   6



 STREAM LISTING     PERIOD      6   STEP        1

 LAYER ROW COL. STREAM  RCH.  FLOW INTO     FLOW TO   FLOW OUT OF   OVRLND.     DIRECT     STREAM       STREAM     STREAM     STREAM   STREAMBED  STREAMBED
                SEG.NO.  NO.  STRM. RCH.    AQUIFER    STRM. RCH.    RUNOFF     PRECIP       ET          HEAD       DEPTH      WIDTH   CONDCTNC.   GRADIENT

   1   13    1     1     1    1.0000E+05 -1.8152E+03   1.0182E+05  0.000E+00  0.000E+00  0.000E+00  4.84068E+01  1.454E-01  2.000E+01  2.000E+04 -9.076E-02
   1   13    2     1     2    1.0182E+05 -2.8067E+03   1.0462E+05  0.000E+00  0.000E+00  0.000E+00  4.79315E+01  1.474E-01  2.000E+01  2.000E+04 -1.403E-01
   1   14    3     1     3    1.0462E+05 -6.0690E+02   1.0523E+05  0.000E+00  0.000E+00  0.000E+00  4.74557E+01  1.489E-01  2.000E+01  2.000E+04 -3.034E-02
   1   15    4     1     4    1.0523E+05 -6.0543E+02   1.0583E+05  0.000E+00  0.000E+00  0.000E+00  4.69789E+01  1.494E-01  2.000E+01  2.000E+04 -3.027E-02
   1   16    5     1     5    1.0583E+05 -2.2163E+03   1.0805E+05  0.000E+00  0.000E+00  0.000E+00  4.65029E+01  1.506E-01  2.000E+01  2.000E+04 -1.108E-01
   1   16    6     1     6    1.0805E+05 -1.3762E+03   1.0943E+05  0.000E+00  0.000E+00  0.000E+00  4.60271E+01  1.521E-01  2.000E+01  2.000E+04 -6.881E-02
   1   16    7     1     7    1.0943E+05 -1.3429E+03   1.1077E+05  0.000E+00  0.000E+00  0.000E+00  4.55510E+01  1.532E-01  2.000E+01  2.000E+04 -6.715E-02
   1   16    8     1     8    1.1077E+05 -1.3339E+03   1.1210E+05  0.000E+00  0.000E+00  0.000E+00  4.50748E+01  1.544E-01  2.000E+01  2.000E+04 -6.670E-02
   1   16    9     1     9    1.1210E+05 -1.3230E+03   1.1343E+05  0.000E+00  0.000E+00  0.000E+00  4.45986E+01  1.555E-01  2.000E+01  2.000E+04 -6.615E-02
   1   16   10     1    10    1.1343E+05 -1.3078E+03   1.1473E+05  0.000E+00  0.000E+00  0.000E+00  4.41225E+01  1.565E-01  2.000E+01  2.000E+04 -6.539E-02
   1   16   11     1    11    1.1473E+05 -1.3065E+03   1.1604E+05  0.000E+00  0.000E+00  0.000E+00  4.36463E+01  1.576E-01  2.000E+01  2.000E+04 -6.532E-02
   1   16   12     1    12    1.1604E+05 -2.1039E+03   1.1814E+05  0.000E+00  0.000E+00  0.000E+00  4.31704E+01  1.590E-01  2.000E+01  2.000E+04 -1.052E-01
   1   15   13     1    13    1.1814E+05 -1.7228E+03   1.1987E+05  0.000E+00  0.000E+00  0.000E+00  4.26947E+01  1.606E-01  2.000E+01  2.000E+04 -8.614E-02
   1   14   14     1    14    1.1987E+05 -1.5032E+03   1.2137E+05  0.000E+00  0.000E+00  0.000E+00  4.22187E+01  1.619E-01  2.000E+01  2.000E+04 -7.516E-02
   1   13   15     1    15    1.2137E+05 -5.2897E+02   1.2190E+05  0.000E+00  0.000E+00  0.000E+00  4.17422E+01  1.627E-01  2.000E+01  2.000E+04 -2.645E-02
   1   12   16     1    16    1.2190E+05 -9.0576E+02   1.2281E+05  0.000E+00  0.000E+00  0.000E+00  4.12655E+01  1.633E-01  2.000E+01  2.000E+04 -4.529E-02
   1   12   17     1    17    1.2281E+05  2.0058E+03   1.2080E+05  0.000E+00  0.000E+00  0.000E+00  4.07878E+01  1.628E-01  2.000E+01  2.000E+04  1.003E-01
   1   12   18     1    18    1.2080E+05 -2.6163E+02   1.2106E+05  0.000E+00  0.000E+00  0.000E+00  4.03099E+01  1.621E-01  2.000E+01  2.000E+04 -1.308E-02
   1   12   19     1    19    1.2106E+05 -1.6713E+03   1.2273E+05  0.000E+00  0.000E+00  0.000E+00  3.98334E+01  1.629E-01  2.000E+01  2.000E+04 -8.356E-02
   1   13   20     1    20    1.2273E+05 -1.3437E+03   1.2408E+05  0.000E+00  0.000E+00  0.000E+00  3.93573E+01  1.641E-01  2.000E+01  2.000E+04 -6.719E-02
   1   14   21     1    21    1.2408E+05 -1.7164E+03   1.2579E+05  0.000E+00  0.000E+00  0.000E+00  3.88812E+01  1.653E-01  2.000E+01  2.000E+04 -8.582E-02
   1   14   22     1    22    1.2579E+05  4.7064E+03   1.2109E+05  0.000E+00  0.000E+00  0.000E+00  3.84028E+01  1.641E-01  2.000E+01  2.000E+04  2.353E-01
   1    9   30     2     1    5.0000E+04 -9.0927E+02   5.0909E+04  0.000E+00  0.000E+00  0.000E+00  4.02415E+01  1.165E-01  2.000E+01  2.000E+04 -4.546E-02
   1    9   29     2     2    5.0909E+04 -1.1940E+03   5.2103E+04  0.000E+00  0.000E+00  0.000E+00  3.99929E+01  1.179E-01  2.000E+01  2.000E+04 -5.970E-02
   1    9   28     2     3    5.2103E+04 -1.4159E+03   5.3519E+04  0.000E+00  0.000E+00  0.000E+00  3.97447E+01  1.197E-01  2.000E+01  2.000E+04 -7.080E-02
   1    9   27     2     4    5.3519E+04 -2.6019E+03   5.6121E+04  0.000E+00  0.000E+00  0.000E+00  3.94974E+01  1.224E-01  2.000E+01  2.000E+04 -1.301E-01
   1   10   26     2     5    5.6121E+04 -1.8325E+03   5.7954E+04  0.000E+00  0.000E+00  0.000E+00  3.92504E+01  1.254E-01  2.000E+01  2.000E+04 -9.163E-02
   1   11   25     2     6    5.7954E+04 -1.6169E+03   5.9571E+04  0.000E+00  0.000E+00  0.000E+00  3.90027E+01  1.277E-01  2.000E+01  2.000E+04 -8.085E-02
   1   12   24     2     7    5.9571E+04 -1.6414E+03   6.1212E+04  0.000E+00  0.000E+00  0.000E+00  3.87548E+01  1.298E-01  2.000E+01  2.000E+04 -8.207E-02
   1   13   23     2     8    6.1212E+04 -3.3098E+02   6.1543E+04  0.000E+00  0.000E+00  0.000E+00  3.85060E+01  1.310E-01  2.000E+01  2.000E+04 -1.655E-02
   1   14   22     2     9    6.1543E+04  1.7534E+03   5.9789E+04  0.000E+00  0.000E+00  0.000E+00  3.82551E+01  1.301E-01  2.000E+01  2.000E+04  8.767E-02
   1   14   22     3     1    1.8088E+05 -8.7625E+03   1.8964E+05  0.000E+00  0.000E+00  0.000E+00  3.77293E+01  1.738E-01  2.000E+01  2.000E+04 -4.381E-01
   1   15   23     3     2    1.8964E+05 -6.6160E+02   1.9030E+05  0.000E+00  0.000E+00  0.000E+00  3.68431E+01  1.764E-01  2.000E+01  2.000E+04 -3.308E-02
   1   15   24     3     3    1.9030E+05 -3.9294E+02   1.9069E+05  0.000E+00  0.000E+00  0.000E+00  3.59545E+01  1.767E-01  2.000E+01  2.000E+04 -1.965E-02
   1   15   25     3     4    1.9069E+05 -3.8891E+02   1.9108E+05  0.000E+00  0.000E+00  0.000E+00  3.50658E+01  1.769E-01  2.000E+01  2.000E+04 -1.945E-02
   1   15   26     3     5    1.9108E+05 -4.5974E+02   1.9154E+05  0.000E+00  0.000E+00  0.000E+00  3.41772E+01  1.772E-01  2.000E+01  2.000E+04 -2.299E-02
   1   16   27     3     6    1.9154E+05 -5.1502E+02   1.9206E+05  0.000E+00  0.000E+00  0.000E+00  3.32885E+01  1.774E-01  2.000E+01  2.000E+04 -2.575E-02
   1   17   28     3     7    1.9206E+05 -1.9902E+03   1.9405E+05  0.000E+00  0.000E+00  0.000E+00  3.24003E+01  1.781E-01  2.000E+01  2.000E+04 -9.951E-02
   1   18   29     3     8    1.9405E+05 -3.4090E+03   1.9746E+05  0.000E+00  0.000E+00  0.000E+00  3.15129E+01  1.796E-01  2.000E+01  2.000E+04 -1.705E-01
   1   18   30     3     9    1.9746E+05 -3.5532E+03   2.0101E+05  0.000E+00  0.000E+00  0.000E+00  3.06260E+01  1.815E-01  2.000E+01  2.000E+04 -1.777E-01



1
              HEAD IN LAYER   1 AT END OF TIME STEP   1 IN STRESS PERIOD    6
  ---------------------------------------------------------------------------

          1      2      3      4      5      6      7      8      9     10
         11     12     13     14     15     16     17     18     19     20
         21     22     23     24     25     26     27     28     29     30
 .........................................................................
   1  ****** ****** ****** ****** ****** ****** ****** ****** ****** ******
      ****** ****** ****** ****** ****** ****** ****** ****** ****** ******
      ****** ****** ****** ****** ****** ****** ****** ****** ****** ******
   2  ****** ****** ****** ****** ****** ****** ****** ****** ****** ******
      ****** ****** ****** ****** ****** ****** ****** ****** ****** ******
      ****** ****** ****** ****** ****** ****** ****** ****** ****** ******
   3  ****** ****** ****** ****** ****** ****** ****** ****** ****** ******
      ****** ****** ****** ****** ****** ****** ****** ****** ****** ******
      ****** ****** ****** ****** ****** ****** ****** ****** ****** ******
   4  ****** ****** ****** ****** ****** ****** ****** ****** ****** ******
      ****** ****** ****** ****** ****** ****** ****** ****** ****** ******
      ****** ****** ****** ****** ****** ****** ****** ****** ****** ******
   5  ****** ****** ****** ****** ****** ****** ****** ****** ****** ******
      ****** ****** ****** ****** ****** ****** ****** ****** ****** ******
      ****** ****** ****** ****** ****** ****** ****** ****** ****** ******
   6  ****** ****** ****** ****** ****** ****** ****** ****** ****** ******
      ****** ****** ****** ****** ****** ****** ****** ****** ****** ******
      ****** ****** ****** ****** ****** ****** ****** ****** ****** ******
   7  ****** ****** ****** ****** ****** ****** ****** ****** ****** ******
      ****** ****** ****** ****** ****** ****** ****** ****** ****** ******
      ****** ****** ****** ****** ****** ****** ****** ****** ****** ******
   8  ****** ****** ****** ****** ****** ****** ****** ****** ****** ******
      ****** ****** ****** ****** ****** ****** ****** ****** ****** ******
      ****** ****** ****** ****** ****** ****** ****** ****** ****** ******
   9  ****** ****** ****** ****** ****** ****** ****** ****** ****** ******
      ****** ****** ****** ****** ****** ****** ****** ****** ****** ******
      ****** ****** ****** ****** ****** ****** ****** ****** ****** ******
  10  ****** ****** ****** ****** ****** ****** ****** ****** ****** ******
      ****** ****** ****** ****** ****** ****** ****** ****** ****** ******
      ****** ****** ****** ****** ****** ****** ****** ****** ****** ******
  11  ****** ****** ****** ****** ****** ****** ****** ****** ****** ******
      ****** ****** ****** ****** ****** ****** ****** ****** ****** ******
      ****** ****** ****** ****** ****** ****** ****** ****** ****** ******
  12  ****** ****** ****** ****** ****** ****** ****** ****** ****** ******
      ****** ****** ****** ****** ****** ****** ****** ****** ****** ******
      ****** ****** ****** ****** ****** ****** ****** ****** ****** ******
  13  ****** ****** ****** ****** ****** ****** ****** ****** ****** ******
      ****** ****** ****** ****** ****** ****** ****** ****** ****** ******
      ****** ****** ****** ****** ****** ****** ****** ****** ****** ******
  14  ****** ****** ****** ****** ****** ****** ****** ****** ****** ******
      ****** ****** ****** ****** ****** ****** ****** ****** ****** ******
      ****** ****** ****** ****** ****** ****** ****** ****** ****** ******
  15  ****** ****** ****** ****** ****** ****** ****** ****** ****** ******
      ****** ****** ****** ****** ****** ****** ****** ****** ****** ******
      ****** ****** ****** ****** ****** ****** ****** ****** ****** ******
  16  ****** ****** ****** ****** ****** ****** ****** ****** ****** ******
      ****** ****** ****** ****** ****** ****** ****** ****** ****** ******
      ****** ****** ****** ****** ****** ****** ****** ****** ****** ******
  17  ****** ****** ****** ****** ****** ****** ****** ****** ****** ******
      ****** ****** ****** ****** ****** ****** ****** ****** ****** ******
      ****** ****** ****** ****** ****** ****** ****** ****** ****** ******
  18  ****** ****** ****** ****** ****** ****** ****** ****** ****** ******
      ****** ****** ****** ****** ****** ****** ****** ****** ****** ******
      ****** ****** ****** ****** ****** ****** ****** ****** ****** ******
  19  ****** ****** ****** ****** ****** ****** ****** ****** ****** ******
      ****** ****** ****** ****** ****** ****** ****** ****** ****** ******
      ****** ****** ****** ****** ****** ****** ****** ****** ****** ******
  20  ****** ****** ****** ****** ****** ****** ****** ****** ****** ******
      ****** ****** ****** ****** ****** ****** ****** ****** ****** ******
      ****** ****** ****** ****** ****** ****** ****** ****** ****** ******
  21  ****** ****** ****** ****** ****** ****** ****** ****** ****** ******
      ****** ****** ****** ****** ****** ****** ****** ****** ****** ******
      ****** ****** ****** ****** ****** ****** ****** ****** ****** ******
  22  ****** ****** ****** ****** ****** ****** ****** ****** ****** ******
      ****** ****** ****** ****** ****** ****** ****** ****** ****** ******
      ****** ****** ****** ****** ****** ****** ****** ****** ****** ******
  23  ****** ****** ****** ****** ****** ****** ****** ****** ****** ******
      ****** ****** ****** ****** ****** ****** ****** ****** ****** ******
      ****** ****** ****** ****** ****** ****** ****** ****** ****** ******
  24  ****** ****** ****** ****** ****** ****** ****** ****** ****** ******
      ****** ****** ****** ****** ****** ****** ****** ****** ****** ******
      ****** ****** ****** ****** ****** ****** ****** ****** ****** ******
  25  ****** ****** ****** ****** ****** ****** ****** ****** ****** ******
      ****** ****** ****** ****** ****** ****** ****** ****** ****** ******
      ****** ****** ****** ****** ****** ****** ****** ****** ****** ******

 HEAD WILL BE SAVED ON UNIT   51 AT END OF TIME STEP    1, STRESS PERIOD    6
1
  VOLUMETRIC BUDGET FOR ENTIRE MODEL AT END OF TIME STEP    1, STRESS PERIOD   6
  ------------------------------------------------------------------------------

     CUMULATIVE VOLUMES      L**3       RATES FOR THIS TIME STEP      L**3/T
     ------------------                 ------------------------

           IN:                                      IN:
           ---                                      ---
             STORAGE =    32222615.0777               STORAGE =         372.4015
       CONSTANT HEAD =    14027938.7171         CONSTANT HEAD =       31519.0779
               WELLS =           0.0000                 WELLS =           0.0000
            RECHARGE =    15097200.0000              RECHARGE =       55200.0000
      STREAM LEAKAGE =     3974206.6765        STREAM LEAKAGE =        8465.6284

            TOTAL IN =    65321960.4714              TOTAL IN =       95557.1078

          OUT:                                     OUT:
          ----                                     ----
             STORAGE =      698170.7996               STORAGE =        7659.0006
       CONSTANT HEAD =           0.0000         CONSTANT HEAD =           0.0000
               WELLS =    15576110.2494                 WELLS =       28423.5588
            RECHARGE =           0.0000              RECHARGE =           0.0000
      STREAM LEAKAGE =    49047681.4952        STREAM LEAKAGE =       59474.5456

           TOTAL OUT =    65321962.5443             TOTAL OUT =       95557.1050

            IN - OUT =          -2.0729              IN - OUT =       2.7814E-03

 PERCENT DISCREPANCY =          -0.00     PERCENT DISCREPANCY =           0.00






         TIME SUMMARY AT END OF TIME STEP    1 IN STRESS PERIOD    6
                    SECONDS     MINUTES      HOURS       DAYS        YEARS
                    -----------------------------------------------------------
   TIME STEP LENGTH 7.86240E+06 1.31040E+05  2184.0      91.000     0.24914    
 STRESS PERIOD TIME 7.86240E+06 1.31040E+05  2184.0      91.000     0.24914    
         TOTAL TIME 4.73472E+07 7.89120E+05  13152.      548.00      1.5003    
1
1
                            STRESS PERIOD NO.    7, LENGTH =   91.00000    
                            -----------------------------------------------

                              NUMBER OF TIME STEPS =     1

                               MULTIPLIER FOR DELT =     1.500

                            INITIAL TIME STEP SIZE =   91.00000    

 WELL NO.  LAYER   ROW   COL   STRESS RATE         
 --------------------------------------------------
      1      1      6     15      -8201.    
      2      1     13     17     -0.1103E+05
      3      1      5      8      -7262.    
      4      1      3     21      -1929.    

      4 WELLS

                 RECHARGE =   0.00000    

 REUSING STREAM SEGMENT DATA FROM LAST STRESS PERIOD
 
 SOLVING FOR HEAD 


     7 CALLS TO PCG ROUTINE FOR TIME STEP   1 IN STRESS PERIOD    7
    26 TOTAL ITERATIONS

 OUTPUT CONTROL FOR STRESS PERIOD    7   TIME STEP    1
    SAVE BUDGET
    SAVE HEAD FOR ALL LAYERS
    PRINT HEAD FOR ALL LAYERS
 UBDSV2 SAVING "STREAMFLOW OUT  " ON UNIT  50 AT TIME STEP  1, STRESS PERIOD   7



 STREAM LISTING     PERIOD      7   STEP        1

 LAYER ROW COL. STREAM  RCH.  FLOW INTO     FLOW TO   FLOW OUT OF   OVRLND.     DIRECT     STREAM       STREAM     STREAM     STREAM   STREAMBED  STREAMBED
                SEG.NO.  NO.  STRM. RCH.    AQUIFER    STRM. RCH.    RUNOFF     PRECIP       ET          HEAD       DEPTH      WIDTH   CONDCTNC.   GRADIENT

   1   13    1     1     1    1.0000E+05 -1.1100E+03   1.0111E+05  0.000E+00  0.000E+00  0.000E+00  4.84065E+01  1.451E-01  2.000E+01  2.000E+04 -5.550E-02
   1   13    2     1     2    1.0111E+05 -2.0161E+03   1.0313E+05  0.000E+00  0.000E+00  0.000E+00  4.79306E+01  1.465E-01  2.000E+01  2.000E+04 -1.008E-01
   1   14    3     1     3    1.0313E+05 -3.4899E+02   1.0348E+05  0.000E+00  0.000E+00  0.000E+00  4.74543E+01  1.475E-01  2.000E+01  2.000E+04 -1.745E-02
   1   15    4     1     4    1.0348E+05 -3.3828E+02   1.0381E+05  0.000E+00  0.000E+00  0.000E+00  4.69773E+01  1.478E-01  2.000E+01  2.000E+04 -1.691E-02
   1   16    5     1     5    1.0381E+05 -1.4615E+03   1.0527E+05  0.000E+00  0.000E+00  0.000E+00  4.65008E+01  1.486E-01  2.000E+01  2.000E+04 -7.308E-02
   1   16    6     1     6    1.0527E+05 -9.1869E+02   1.0619E+05  0.000E+00  0.000E+00  0.000E+00  4.60246E+01  1.496E-01  2.000E+01  2.000E+04 -4.593E-02
   1   16    7     1     7    1.0619E+05 -9.0337E+02   1.0710E+05  0.000E+00  0.000E+00  0.000E+00  4.55481E+01  1.503E-01  2.000E+01  2.000E+04 -4.517E-02
   1   16    8     1     8    1.0710E+05 -9.0042E+02   1.0800E+05  0.000E+00  0.000E+00  0.000E+00  4.50716E+01  1.511E-01  2.000E+01  2.000E+04 -4.502E-02
   1   16    9     1     9    1.0800E+05 -8.9324E+02   1.0889E+05  0.000E+00  0.000E+00  0.000E+00  4.45950E+01  1.519E-01  2.000E+01  2.000E+04 -4.466E-02
   1   16   10     1    10    1.0889E+05 -8.8146E+02   1.0977E+05  0.000E+00  0.000E+00  0.000E+00  4.41185E+01  1.526E-01  2.000E+01  2.000E+04 -4.407E-02
   1   16   11     1    11    1.0977E+05 -8.8021E+02   1.1065E+05  0.000E+00  0.000E+00  0.000E+00  4.36420E+01  1.533E-01  2.000E+01  2.000E+04 -4.401E-02
   1   16   12     1    12    1.1065E+05 -1.3859E+03   1.1204E+05  0.000E+00  0.000E+00  0.000E+00  4.31656E+01  1.543E-01  2.000E+01  2.000E+04 -6.929E-02
   1   15   13     1    13    1.1204E+05 -9.4349E+02   1.1298E+05  0.000E+00  0.000E+00  0.000E+00  4.26893E+01  1.553E-01  2.000E+01  2.000E+04 -4.717E-02
   1   14   14     1    14    1.1298E+05 -6.8937E+02   1.1367E+05  0.000E+00  0.000E+00  0.000E+00  4.22127E+01  1.559E-01  2.000E+01  2.000E+04 -3.447E-02
   1   13   15     1    15    1.1367E+05  2.9266E+02   1.1338E+05  0.000E+00  0.000E+00  0.000E+00  4.17356E+01  1.561E-01  2.000E+01  2.000E+04  1.463E-02
   1   12   16     1    16    1.1338E+05 -8.0370E+01   1.1346E+05  0.000E+00  0.000E+00  0.000E+00  4.12583E+01  1.560E-01  2.000E+01  2.000E+04 -4.019E-03
   1   12   17     1    17    1.1346E+05  2.5978E+03   1.1086E+05  0.000E+00  0.000E+00  0.000E+00  4.07800E+01  1.550E-01  2.000E+01  2.000E+04  1.299E-01
   1   12   18     1    18    1.1086E+05  3.1333E+02   1.1055E+05  0.000E+00  0.000E+00  0.000E+00  4.03015E+01  1.538E-01  2.000E+01  2.000E+04  1.567E-02
   1   12   19     1    19    1.1055E+05 -9.6916E+02   1.1152E+05  0.000E+00  0.000E+00  0.000E+00  3.98245E+01  1.540E-01  2.000E+01  2.000E+04 -4.846E-02
   1   13   20     1    20    1.1152E+05 -6.6999E+02   1.1219E+05  0.000E+00  0.000E+00  0.000E+00  3.93479E+01  1.547E-01  2.000E+01  2.000E+04 -3.350E-02
   1   14   21     1    21    1.1219E+05 -1.0577E+03   1.1324E+05  0.000E+00  0.000E+00  0.000E+00  3.88713E+01  1.554E-01  2.000E+01  2.000E+04 -5.288E-02
   1   14   22     1    22    1.1324E+05  4.8598E+03   1.0838E+05  0.000E+00  0.000E+00  0.000E+00  3.83925E+01  1.538E-01  2.000E+01  2.000E+04  2.430E-01
   1    9   30     2     1    5.0000E+04 -3.9258E+02   5.0393E+04  0.000E+00  0.000E+00  0.000E+00  4.02411E+01  1.161E-01  2.000E+01  2.000E+04 -1.963E-02
   1    9   29     2     2    5.0393E+04 -6.7879E+02   5.1071E+04  0.000E+00  0.000E+00  0.000E+00  3.99919E+01  1.169E-01  2.000E+01  2.000E+04 -3.394E-02
   1    9   28     2     3    5.1071E+04 -8.9856E+02   5.1970E+04  0.000E+00  0.000E+00  0.000E+00  3.97430E+01  1.180E-01  2.000E+01  2.000E+04 -4.493E-02
   1    9   27     2     4    5.1970E+04 -1.8953E+03   5.3865E+04  0.000E+00  0.000E+00  0.000E+00  3.94949E+01  1.199E-01  2.000E+01  2.000E+04 -9.477E-02
   1   10   26     2     5    5.3865E+04 -1.1253E+03   5.4991E+04  0.000E+00  0.000E+00  0.000E+00  3.92469E+01  1.219E-01  2.000E+01  2.000E+04 -5.626E-02
   1   11   25     2     6    5.4991E+04 -9.3860E+02   5.5929E+04  0.000E+00  0.000E+00  0.000E+00  3.89983E+01  1.233E-01  2.000E+01  2.000E+04 -4.693E-02
   1   12   24     2     7    5.5929E+04 -1.0221E+03   5.6951E+04  0.000E+00  0.000E+00  0.000E+00  3.87496E+01  1.246E-01  2.000E+01  2.000E+04 -5.111E-02
   1   13   23     2     8    5.6951E+04 -1.3786E+02   5.7089E+04  0.000E+00  0.000E+00  0.000E+00  3.85004E+01  1.254E-01  2.000E+01  2.000E+04 -6.893E-03
   1   14   22     2     9    5.7089E+04  1.9930E+03   5.5096E+04  0.000E+00  0.000E+00  0.000E+00  3.82491E+01  1.241E-01  2.000E+01  2.000E+04  9.965E-02
   1   14   22     3     1    1.6348E+05 -8.6039E+03   1.7208E+05  0.000E+00  0.000E+00  0.000E+00  3.77193E+01  1.637E-01  2.000E+01  2.000E+04 -4.302E-01
   1   15   23     3     2    1.7208E+05 -4.5643E+02   1.7254E+05  0.000E+00  0.000E+00  0.000E+00  3.68330E+01  1.664E-01  2.000E+01  2.000E+04 -2.282E-02
   1   15   24     3     3    1.7254E+05 -2.2005E+02   1.7276E+05  0.000E+00  0.000E+00  0.000E+00  3.59443E+01  1.666E-01  2.000E+01  2.000E+04 -1.100E-02
   1   15   25     3     4    1.7276E+05 -2.1287E+02   1.7297E+05  0.000E+00  0.000E+00  0.000E+00  3.50556E+01  1.667E-01  2.000E+01  2.000E+04 -1.064E-02
   1   15   26     3     5    1.7297E+05 -2.5898E+02   1.7323E+05  0.000E+00  0.000E+00  0.000E+00  3.41668E+01  1.668E-01  2.000E+01  2.000E+04 -1.295E-02
   1   16   27     3     6    1.7323E+05 -2.8349E+02   1.7352E+05  0.000E+00  0.000E+00  0.000E+00  3.32781E+01  1.670E-01  2.000E+01  2.000E+04 -1.417E-02
   1   17   28     3     7    1.7352E+05 -1.3515E+03   1.7487E+05  0.000E+00  0.000E+00  0.000E+00  3.23897E+01  1.675E-01  2.000E+01  2.000E+04 -6.758E-02
   1   18   29     3     8    1.7487E+05 -2.7288E+03   1.7760E+05  0.000E+00  0.000E+00  0.000E+00  3.15020E+01  1.686E-01  2.000E+01  2.000E+04 -1.364E-01
   1   18   30     3     9    1.7760E+05 -3.0283E+03   1.8063E+05  0.000E+00  0.000E+00  0.000E+00  3.06147E+01  1.703E-01  2.000E+01  2.000E+04 -1.514E-01



1
              HEAD IN LAYER   1 AT END OF TIME STEP   1 IN STRESS PERIOD    7
  ---------------------------------------------------------------------------

          1      2      3      4      5      6      7      8      9     10
         11     12     13     14     15     16     17     18     19     20
         21     22     23     24     25     26     27     28     29     30
 .........................................................................
   1  ****** ****** ****** ****** ****** ****** ****** ****** ****** ******
      ****** ****** ****** ****** ****** ****** ****** ****** ****** ******
      ****** ****** ****** ****** ****** ****** ****** ****** ****** ******
   2  ****** ****** ****** ****** ****** ****** ****** ****** ****** ******
      ****** ****** ****** ****** ****** ****** ****** ****** ****** ******
      ****** ****** ****** ****** ****** ****** ****** ****** ****** ******
   3  ****** ****** ****** ****** ****** ****** ****** ****** ****** ******
      ****** ****** ****** ****** ****** ****** ****** ****** ****** ******
      ****** ****** ****** ****** ****** ****** ****** ****** ****** ******
   4  ****** ****** ****** ****** ****** ****** ****** ****** ****** ******
      ****** ****** ****** ****** ****** ****** ****** ****** ****** ******
      ****** ****** ****** ****** ****** ****** ****** ****** ****** ******
   5  ****** ****** ****** ****** ****** ****** ****** ****** ****** ******
      ****** ****** ****** ****** ****** ****** ****** ****** ****** ******
      ****** ****** ****** ****** ****** ****** ****** ****** ****** ******
   6  ****** ****** ****** ****** ****** ****** ****** ****** ****** ******
      ****** ****** ****** ****** ****** ****** ****** ****** ****** ******
      ****** ****** ****** ****** ****** ****** ****** ****** ****** ******
   7  ****** ****** ****** ****** ****** ****** ****** ****** ****** ******
      ****** ****** ****** ****** ****** ****** ****** ****** ****** ******
      ****** ****** ****** ****** ****** ****** ****** ****** ****** ******
   8  ****** ****** ****** ****** ****** ****** ****** ****** ****** ******
      ****** ****** ****** ****** ****** ****** ****** ****** ****** ******
      ****** ****** ****** ****** ****** ****** ****** ****** ****** ******
   9  ****** ****** ****** ****** ****** ****** ****** ****** ****** ******
      ****** ****** ****** ****** ****** ****** ****** ****** ****** ******
      ****** ****** ****** ****** ****** ****** ****** ****** ****** ******
  10  ****** ****** ****** ****** ****** ****** ****** ****** ****** ******
      ****** ****** ****** ****** ****** ****** ****** ****** ****** ******
      ****** ****** ****** ****** ****** ****** ****** ****** ****** ******
  11  ****** ****** ****** ****** ****** ****** ****** ****** ****** ******
      ****** ****** ****** ****** ****** ****** ****** ****** ****** ******
      ****** ****** ****** ****** ****** ****** ****** ****** ****** ******
  12  ****** ****** ****** ****** ****** ****** ****** ****** ****** ******
      ****** ****** ****** ****** ****** ****** ****** ****** ****** ******
      ****** ****** ****** ****** ****** ****** ****** ****** ****** ******
  13  ****** ****** ****** ****** ****** ****** ****** ****** ****** ******
      ****** ****** ****** ****** ****** ****** ****** ****** ****** ******
      ****** ****** ****** ****** ****** ****** ****** ****** ****** ******
  14  ****** ****** ****** ****** ****** ****** ****** ****** ****** ******
      ****** ****** ****** ****** ****** ****** ****** ****** ****** ******
      ****** ****** ****** ****** ****** ****** ****** ****** ****** ******
  15  ****** ****** ****** ****** ****** ****** ****** ****** ****** ******
      ****** ****** ****** ****** ****** ****** ****** ****** ****** ******
      ****** ****** ****** ****** ****** ****** ****** ****** ****** ******
  16  ****** ****** ****** ****** ****** ****** ****** ****** ****** ******
      ****** ****** ****** ****** ****** ****** ****** ****** ****** ******
      ****** ****** ****** ****** ****** ****** ****** ****** ****** ******
  17  ****** ****** ****** ****** ****** ****** ****** ****** ****** ******
      ****** ****** ****** ****** ****** ****** ****** ****** ****** ******
      ****** ****** ****** ****** ****** ****** ****** ****** ****** ******
  18  ****** ****** ****** ****** ****** ****** ****** ****** ****** ******
      ****** ****** ****** ****** ****** ****** ****** ****** ****** ******
      ****** ****** ****** ****** ****** ****** ****** ****** ****** ******
  19  ****** ****** ****** ****** ****** ****** ****** ****** ****** ******
      ****** ****** ****** ****** ****** ****** ****** ****** ****** ******
      ****** ****** ****** ****** ****** ****** ****** ****** ****** ******
  20  ****** ****** ****** ****** ****** ****** ****** ****** ****** ******
      ****** ****** ****** ****** ****** ****** ****** ****** ****** ******
      ****** ****** ****** ****** ****** ****** ****** ****** ****** ******
  21  ****** ****** ****** ****** ****** ****** ****** ****** ****** ******
      ****** ****** ****** ****** ****** ****** ****** ****** ****** ******
      ****** ****** ****** ****** ****** ****** ****** ****** ****** ******
  22  ****** ****** ****** ****** ****** ****** ****** ****** ****** ******
      ****** ****** ****** ****** ****** ****** ****** ****** ****** ******
      ****** ****** ****** ****** ****** ****** ****** ****** ****** ******
  23  ****** ****** ****** ****** ****** ****** ****** ****** ****** ******
      ****** ****** ****** ****** ****** ****** ****** ****** ****** ******
      ****** ****** ****** ****** ****** ****** ****** ****** ****** ******
  24  ****** ****** ****** ****** ****** ****** ****** ****** ****** ******
      ****** ****** ****** ****** ****** ****** ****** ****** ****** ******
      ****** ****** ****** ****** ****** ****** ****** ****** ****** ******
  25  ****** ****** ****** ****** ****** ****** ****** ****** ****** ******
      ****** ****** ****** ****** ****** ****** ****** ****** ****** ******
      ****** ****** ****** ****** ****** ****** ****** ****** ****** ******

 HEAD WILL BE SAVED ON UNIT   51 AT END OF TIME STEP    1, STRESS PERIOD    7
1
  VOLUMETRIC BUDGET FOR ENTIRE MODEL AT END OF TIME STEP    1, STRESS PERIOD   7
  ------------------------------------------------------------------------------

     CUMULATIVE VOLUMES      L**3       RATES FOR THIS TIME STEP      L**3/T
     ------------------                 ------------------------

           IN:                                      IN:
           ---                                      ---
             STORAGE =    34359433.4300               STORAGE =       23481.5204
       CONSTANT HEAD =    17264559.3213         CONSTANT HEAD =       35567.2594
               WELLS =           0.0000                 WELLS =           0.0000
            RECHARGE =    15097200.0000              RECHARGE =           0.0000
      STREAM LEAKAGE =     4889360.8588        STREAM LEAKAGE =       10056.6394

            TOTAL IN =    71610553.6101              TOTAL IN =       69105.4191

          OUT:                                     OUT:
          ----                                     ----
             STORAGE =      698170.7996               STORAGE =           0.0000
       CONSTANT HEAD =           0.0000         CONSTANT HEAD =           0.0000
               WELLS =    18162654.1047                 WELLS =       28423.5588
            RECHARGE =           0.0000              RECHARGE =           0.0000
      STREAM LEAKAGE =    52749731.2865        STREAM LEAKAGE =       40681.8658

           TOTAL OUT =    71610556.1908             TOTAL OUT =       69105.4247

            IN - OUT =          -2.5807              IN - OUT =      -5.5805E-03

 PERCENT DISCREPANCY =          -0.00     PERCENT DISCREPANCY =          -0.00






         TIME SUMMARY AT END OF TIME STEP    1 IN STRESS PERIOD    7
                    SECONDS     MINUTES      HOURS       DAYS        YEARS
                    -----------------------------------------------------------
   TIME STEP LENGTH 7.86240E+06 1.31040E+05  2184.0      91.000     0.24914    
 STRESS PERIOD TIME 7.86240E+06 1.31040E+05  2184.0      91.000     0.24914    
         TOTAL TIME 5.52096E+07 9.20160E+05  15336.      639.00      1.7495    
1
1
                            STRESS PERIOD NO.    8, LENGTH =   91.00000    
                            -----------------------------------------------

                              NUMBER OF TIME STEPS =     1

                               MULTIPLIER FOR DELT =     1.500

                            INITIAL TIME STEP SIZE =   91.00000    

 WELL NO.  LAYER   ROW   COL   STRESS RATE         
 --------------------------------------------------
      1      1      6     15      -8201.    
      2      1     13     17     -0.1103E+05
      3      1      5      8      -7262.    
      4      1      3     21      -1929.    

      4 WELLS

                 RECHARGE =  1.000000E-03

 REUSING STREAM SEGMENT DATA FROM LAST STRESS PERIOD
 
 SOLVING FOR HEAD 


     6 CALLS TO PCG ROUTINE FOR TIME STEP   1 IN STRESS PERIOD    8
    22 TOTAL ITERATIONS

 OUTPUT CONTROL FOR STRESS PERIOD    8   TIME STEP    1
    SAVE BUDGET
    SAVE HEAD FOR ALL LAYERS
    PRINT HEAD FOR ALL LAYERS
 UBDSV2 SAVING "STREAMFLOW OUT  " ON UNIT  50 AT TIME STEP  1, STRESS PERIOD   8



 STREAM LISTING     PERIOD      8   STEP        1

 LAYER ROW COL. STREAM  RCH.  FLOW INTO     FLOW TO   FLOW OUT OF   OVRLND.     DIRECT     STREAM       STREAM     STREAM     STREAM   STREAMBED  STREAMBED
                SEG.NO.  NO.  STRM. RCH.    AQUIFER    STRM. RCH.    RUNOFF     PRECIP       ET          HEAD       DEPTH      WIDTH   CONDCTNC.   GRADIENT

   1   13    1     1     1    1.0000E+05 -1.1551E+03   1.0116E+05  0.000E+00  0.000E+00  0.000E+00  4.84065E+01  1.452E-01  2.000E+01  2.000E+04 -5.775E-02
   1   13    2     1     2    1.0116E+05 -2.0560E+03   1.0321E+05  0.000E+00  0.000E+00  0.000E+00  4.79306E+01  1.465E-01  2.000E+01  2.000E+04 -1.028E-01
   1   14    3     1     3    1.0321E+05 -4.0840E+02   1.0362E+05  0.000E+00  0.000E+00  0.000E+00  4.74544E+01  1.476E-01  2.000E+01  2.000E+04 -2.042E-02
   1   15    4     1     4    1.0362E+05 -4.0340E+02   1.0402E+05  0.000E+00  0.000E+00  0.000E+00  4.69775E+01  1.479E-01  2.000E+01  2.000E+04 -2.017E-02
   1   16    5     1     5    1.0402E+05 -1.6339E+03   1.0566E+05  0.000E+00  0.000E+00  0.000E+00  4.65011E+01  1.488E-01  2.000E+01  2.000E+04 -8.170E-02
   1   16    6     1     6    1.0566E+05 -1.0229E+03   1.0668E+05  0.000E+00  0.000E+00  0.000E+00  4.60249E+01  1.499E-01  2.000E+01  2.000E+04 -5.115E-02
   1   16    7     1     7    1.0668E+05 -1.0023E+03   1.0768E+05  0.000E+00  0.000E+00  0.000E+00  4.55485E+01  1.508E-01  2.000E+01  2.000E+04 -5.011E-02
   1   16    8     1     8    1.0768E+05 -9.9862E+02   1.0868E+05  0.000E+00  0.000E+00  0.000E+00  4.50721E+01  1.516E-01  2.000E+01  2.000E+04 -4.993E-02
   1   16    9     1     9    1.0868E+05 -9.9307E+02   1.0967E+05  0.000E+00  0.000E+00  0.000E+00  4.45957E+01  1.525E-01  2.000E+01  2.000E+04 -4.965E-02
   1   16   10     1    10    1.0967E+05 -9.8461E+02   1.1066E+05  0.000E+00  0.000E+00  0.000E+00  4.41192E+01  1.533E-01  2.000E+01  2.000E+04 -4.923E-02
   1   16   11     1    11    1.1066E+05 -9.8747E+02   1.1165E+05  0.000E+00  0.000E+00  0.000E+00  4.36428E+01  1.541E-01  2.000E+01  2.000E+04 -4.937E-02
   1   16   12     1    12    1.1165E+05 -1.5451E+03   1.1319E+05  0.000E+00  0.000E+00  0.000E+00  4.31665E+01  1.552E-01  2.000E+01  2.000E+04 -7.725E-02
   1   15   13     1    13    1.1319E+05 -1.1027E+03   1.1429E+05  0.000E+00  0.000E+00  0.000E+00  4.26904E+01  1.563E-01  2.000E+01  2.000E+04 -5.513E-02
   1   14   14     1    14    1.1429E+05 -8.3666E+02   1.1513E+05  0.000E+00  0.000E+00  0.000E+00  4.22139E+01  1.571E-01  2.000E+01  2.000E+04 -4.183E-02
   1   13   15     1    15    1.1513E+05  1.6246E+02   1.1497E+05  0.000E+00  0.000E+00  0.000E+00  4.17369E+01  1.573E-01  2.000E+01  2.000E+04  8.123E-03
   1   12   16     1    16    1.1497E+05 -1.6519E+02   1.1513E+05  0.000E+00  0.000E+00  0.000E+00  4.12596E+01  1.573E-01  2.000E+01  2.000E+04 -8.259E-03
   1   12   17     1    17    1.1513E+05  2.4994E+03   1.1263E+05  0.000E+00  0.000E+00  0.000E+00  4.07814E+01  1.564E-01  2.000E+01  2.000E+04  1.250E-01
   1   12   18     1    18    1.1263E+05  2.0583E+02   1.1243E+05  0.000E+00  0.000E+00  0.000E+00  4.03030E+01  1.553E-01  2.000E+01  2.000E+04  1.029E-02
   1   12   19     1    19    1.1243E+05 -1.1055E+03   1.1353E+05  0.000E+00  0.000E+00  0.000E+00  3.98261E+01  1.556E-01  2.000E+01  2.000E+04 -5.527E-02
   1   13   20     1    20    1.1353E+05 -8.4381E+02   1.1438E+05  0.000E+00  0.000E+00  0.000E+00  3.93496E+01  1.564E-01  2.000E+01  2.000E+04 -4.219E-02
   1   14   21     1    21    1.1438E+05 -1.2166E+03   1.1559E+05  0.000E+00  0.000E+00  0.000E+00  3.88732E+01  1.573E-01  2.000E+01  2.000E+04 -6.083E-02
   1   14   22     1    22    1.1559E+05  4.8120E+03   1.1078E+05  0.000E+00  0.000E+00  0.000E+00  3.83944E+01  1.558E-01  2.000E+01  2.000E+04  2.406E-01
   1    9   30     2     1    5.0000E+04 -5.5315E+02   5.0553E+04  0.000E+00  0.000E+00  0.000E+00  4.02412E+01  1.162E-01  2.000E+01  2.000E+04 -2.766E-02
   1    9   29     2     2    5.0553E+04 -8.3634E+02   5.1389E+04  0.000E+00  0.000E+00  0.000E+00  3.99922E+01  1.172E-01  2.000E+01  2.000E+04 -4.182E-02
   1    9   28     2     3    5.1389E+04 -1.0499E+03   5.2439E+04  0.000E+00  0.000E+00  0.000E+00  3.97435E+01  1.185E-01  2.000E+01  2.000E+04 -5.249E-02
   1    9   27     2     4    5.2439E+04 -2.0657E+03   5.4505E+04  0.000E+00  0.000E+00  0.000E+00  3.94956E+01  1.206E-01  2.000E+01  2.000E+04 -1.033E-01
   1   10   26     2     5    5.4505E+04 -1.3238E+03   5.5829E+04  0.000E+00  0.000E+00  0.000E+00  3.92479E+01  1.229E-01  2.000E+01  2.000E+04 -6.619E-02
   1   11   25     2     6    5.5829E+04 -1.1359E+03   5.6965E+04  0.000E+00  0.000E+00  0.000E+00  3.89995E+01  1.245E-01  2.000E+01  2.000E+04 -5.680E-02
   1   12   24     2     7    5.6965E+04 -1.2006E+03   5.8165E+04  0.000E+00  0.000E+00  0.000E+00  3.87511E+01  1.261E-01  2.000E+01  2.000E+04 -6.003E-02
   1   13   23     2     8    5.8165E+04 -2.1113E+02   5.8377E+04  0.000E+00  0.000E+00  0.000E+00  3.85020E+01  1.270E-01  2.000E+01  2.000E+04 -1.056E-02
   1   14   22     2     9    5.8377E+04  1.9406E+03   5.6436E+04  0.000E+00  0.000E+00  0.000E+00  3.82509E+01  1.259E-01  2.000E+01  2.000E+04  9.703E-02
   1   14   22     3     1    1.6722E+05 -8.6473E+03   1.7586E+05  0.000E+00  0.000E+00  0.000E+00  3.77215E+01  1.659E-01  2.000E+01  2.000E+04 -4.324E-01
   1   15   23     3     2    1.7586E+05 -5.2118E+02   1.7639E+05  0.000E+00  0.000E+00  0.000E+00  3.68352E+01  1.686E-01  2.000E+01  2.000E+04 -2.606E-02
   1   15   24     3     3    1.7639E+05 -2.8087E+02   1.7667E+05  0.000E+00  0.000E+00  0.000E+00  3.59466E+01  1.688E-01  2.000E+01  2.000E+04 -1.404E-02
   1   15   25     3     4    1.7667E+05 -2.7538E+02   1.7694E+05  0.000E+00  0.000E+00  0.000E+00  3.50579E+01  1.690E-01  2.000E+01  2.000E+04 -1.377E-02
   1   15   26     3     5    1.7694E+05 -3.3382E+02   1.7728E+05  0.000E+00  0.000E+00  0.000E+00  3.41691E+01  1.691E-01  2.000E+01  2.000E+04 -1.669E-02
   1   16   27     3     6    1.7728E+05 -3.6566E+02   1.7764E+05  0.000E+00  0.000E+00  0.000E+00  3.32805E+01  1.693E-01  2.000E+01  2.000E+04 -1.828E-02
   1   17   28     3     7    1.7764E+05 -1.5565E+03   1.7920E+05  0.000E+00  0.000E+00  0.000E+00  3.23921E+01  1.699E-01  2.000E+01  2.000E+04 -7.782E-02
   1   18   29     3     8    1.7920E+05 -2.8969E+03   1.8210E+05  0.000E+00  0.000E+00  0.000E+00  3.15045E+01  1.712E-01  2.000E+01  2.000E+04 -1.448E-01
   1   18   30     3     9    1.8210E+05 -3.1766E+03   1.8527E+05  0.000E+00  0.000E+00  0.000E+00  3.06173E+01  1.729E-01  2.000E+01  2.000E+04 -1.588E-01



1
              HEAD IN LAYER   1 AT END OF TIME STEP   1 IN STRESS PERIOD    8
  ---------------------------------------------------------------------------

          1      2      3      4      5      6      7      8      9     10
         11     12     13     14     15     16     17     18     19     20
         21     22     23     24     25     26     27     28     29     30
 .........................................................................
   1  ****** ****** ****** ****** ****** ****** ****** ****** ****** ******
      ****** ****** ****** ****** ****** ****** ****** ****** ****** ******
      ****** ****** ****** ****** ****** ****** ****** ****** ****** ******
   2  ****** ****** ****** ****** ****** ****** ****** ****** ****** ******
      ****** ****** ****** ****** ****** ****** ****** ****** ****** ******
      ****** ****** ****** ****** ****** ****** ****** ****** ****** ******
   3  ****** ****** ****** ****** ****** ****** ****** ****** ****** ******
      ****** ****** ****** ****** ****** ****** ****** ****** ****** ******
      ****** ****** ****** ****** ****** ****** ****** ****** ****** ******
   4  ****** ****** ****** ****** ****** ****** ****** ****** ****** ******
      ****** ****** ****** ****** ****** ****** ****** ****** ****** ******
      ****** ****** ****** ****** ****** ****** ****** ****** ****** ******
   5  ****** ****** ****** ****** ****** ****** ****** ****** ****** ******
      ****** ****** ****** ****** ****** ****** ****** ****** ****** ******
      ****** ****** ****** ****** ****** ****** ****** ****** ****** ******
   6  ****** ****** ****** ****** ****** ****** ****** ****** ****** ******
      ****** ****** ****** ****** ****** ****** ****** ****** ****** ******
      ****** ****** ****** ****** ****** ****** ****** ****** ****** ******
   7  ****** ****** ****** ****** ****** ****** ****** ****** ****** ******
      ****** ****** ****** ****** ****** ****** ****** ****** ****** ******
      ****** ****** ****** ****** ****** ****** ****** ****** ****** ******
   8  ****** ****** ****** ****** ****** ****** ****** ****** ****** ******
      ****** ****** ****** ****** ****** ****** ****** ****** ****** ******
      ****** ****** ****** ****** ****** ****** ****** ****** ****** ******
   9  ****** ****** ****** ****** ****** ****** ****** ****** ****** ******
      ****** ****** ****** ****** ****** ****** ****** ****** ****** ******
      ****** ****** ****** ****** ****** ****** ****** ****** ****** ******
  10  ****** ****** ****** ****** ****** ****** ****** ****** ****** ******
      ****** ****** ****** ****** ****** ****** ****** ****** ****** ******
      ****** ****** ****** ****** ****** ****** ****** ****** ****** ******
  11  ****** ****** ****** ****** ****** ****** ****** ****** ****** ******
      ****** ****** ****** ****** ****** ****** ****** ****** ****** ******
      ****** ****** ****** ****** ****** ****** ****** ****** ****** ******
  12  ****** ****** ****** ****** ****** ****** ****** ****** ****** ******
      ****** ****** ****** ****** ****** ****** ****** ****** ****** ******
      ****** ****** ****** ****** ****** ****** ****** ****** ****** ******
  13  ****** ****** ****** ****** ****** ****** ****** ****** ****** ******
      ****** ****** ****** ****** ****** ****** ****** ****** ****** ******
      ****** ****** ****** ****** ****** ****** ****** ****** ****** ******
  14  ****** ****** ****** ****** ****** ****** ****** ****** ****** ******
      ****** ****** ****** ****** ****** ****** ****** ****** ****** ******
      ****** ****** ****** ****** ****** ****** ****** ****** ****** ******
  15  ****** ****** ****** ****** ****** ****** ****** ****** ****** ******
      ****** ****** ****** ****** ****** ****** ****** ****** ****** ******
      ****** ****** ****** ****** ****** ****** ****** ****** ****** ******
  16  ****** ****** ****** ****** ****** ****** ****** ****** ****** ******
      ****** ****** ****** ****** ****** ****** ****** ****** ****** ******
      ****** ****** ****** ****** ****** ****** ****** ****** ****** ******
  17  ****** ****** ****** ****** ****** ****** ****** ****** ****** ******
      ****** ****** ****** ****** ****** ****** ****** ****** ****** ******
      ****** ****** ****** ****** ****** ****** ****** ****** ****** ******
  18  ****** ****** ****** ****** ****** ****** ****** ****** ****** ******
      ****** ****** ****** ****** ****** ****** ****** ****** ****** ******
      ****** ****** ****** ****** ****** ****** ****** ****** ****** ******
  19  ****** ****** ****** ****** ****** ****** ****** ****** ****** ******
      ****** ****** ****** ****** ****** ****** ****** ****** ****** ******
      ****** ****** ****** ****** ****** ****** ****** ****** ****** ******
  20  ****** ****** ****** ****** ****** ****** ****** ****** ****** ******
      ****** ****** ****** ****** ****** ****** ****** ****** ****** ******
      ****** ****** ****** ****** ****** ****** ****** ****** ****** ******
  21  ****** ****** ****** ****** ****** ****** ****** ****** ****** ******
      ****** ****** ****** ****** ****** ****** ****** ****** ****** ******
      ****** ****** ****** ****** ****** ****** ****** ****** ****** ******
  22  ****** ****** ****** ****** ****** ****** ****** ****** ****** ******
      ****** ****** ****** ****** ****** ****** ****** ****** ****** ******
      ****** ****** ****** ****** ****** ****** ****** ****** ****** ******
  23  ****** ****** ****** ****** ****** ****** ****** ****** ****** ******
      ****** ****** ****** ****** ****** ****** ****** ****** ****** ******
      ****** ****** ****** ****** ****** ****** ****** ****** ****** ******
  24  ****** ****** ****** ****** ****** ****** ****** ****** ****** ******
      ****** ****** ****** ****** ****** ****** ****** ****** ****** ******
      ****** ****** ****** ****** ****** ****** ****** ****** ****** ******
  25  ****** ****** ****** ****** ****** ****** ****** ****** ****** ******
      ****** ****** ****** ****** ****** ****** ****** ****** ****** ******
      ****** ****** ****** ****** ****** ****** ****** ****** ****** ******

 HEAD WILL BE SAVED ON UNIT   51 AT END OF TIME STEP    1, STRESS PERIOD    8
1
  VOLUMETRIC BUDGET FOR ENTIRE MODEL AT END OF TIME STEP    1, STRESS PERIOD   8
  ------------------------------------------------------------------------------

     CUMULATIVE VOLUMES      L**3       RATES FOR THIS TIME STEP      L**3/T
     ------------------                 ------------------------

           IN:                                      IN:
           ---                                      ---
             STORAGE =    34565185.8890               STORAGE =        2261.0160
       CONSTANT HEAD =    20482473.1114         CONSTANT HEAD =       35361.6900
               WELLS =           0.0000                 WELLS =           0.0000
            RECHARGE =    17608800.0000              RECHARGE =       27600.0000
      STREAM LEAKAGE =     5764806.8795        STREAM LEAKAGE =        9620.2859

            TOTAL IN =    78421265.8800              TOTAL IN =       74842.9920

          OUT:                                     OUT:
          ----                                     ----
             STORAGE =      837173.8336               STORAGE =        1527.5059
       CONSTANT HEAD =           0.0000         CONSTANT HEAD =           0.0000
               WELLS =    20749197.9600                 WELLS =       28423.5588
            RECHARGE =           0.0000              RECHARGE =           0.0000
      STREAM LEAKAGE =    56834896.0086        STREAM LEAKAGE =       44891.9200

           TOTAL OUT =    78421267.8023             TOTAL OUT =       74842.9847

            IN - OUT =          -1.9223              IN - OUT =       7.2352E-03

 PERCENT DISCREPANCY =          -0.00     PERCENT DISCREPANCY =           0.00






         TIME SUMMARY AT END OF TIME STEP    1 IN STRESS PERIOD    8
                    SECONDS     MINUTES      HOURS       DAYS        YEARS
                    -----------------------------------------------------------
   TIME STEP LENGTH 7.86240E+06 1.31040E+05  2184.0      91.000     0.24914    
 STRESS PERIOD TIME 7.86240E+06 1.31040E+05  2184.0      91.000     0.24914    
         TOTAL TIME 6.30720E+07 1.05120E+06  17520.      730.00      1.9986    
1
1
                            STRESS PERIOD NO.    9, LENGTH =   92.00000    
                            -----------------------------------------------

                              NUMBER OF TIME STEPS =     1

                               MULTIPLIER FOR DELT =     1.500

                            INITIAL TIME STEP SIZE =   92.00000    

 WELL NO.  LAYER   ROW   COL   STRESS RATE         
 --------------------------------------------------
      1      1      6     15      -8201.    
      2      1     13     17     -0.1103E+05
      3      1      5      8      -7262.    
      4      1      3     21      -1929.    

      4 WELLS

                 RECHARGE =  5.000000E-04

 REUSING STREAM SEGMENT DATA FROM LAST STRESS PERIOD
 
 SOLVING FOR HEAD 


     6 CALLS TO PCG ROUTINE FOR TIME STEP   1 IN STRESS PERIOD    9
    23 TOTAL ITERATIONS

 OUTPUT CONTROL FOR STRESS PERIOD    9   TIME STEP    1
    SAVE BUDGET
    SAVE HEAD FOR ALL LAYERS
    PRINT HEAD FOR ALL LAYERS
 UBDSV2 SAVING "STREAMFLOW OUT  " ON UNIT  50 AT TIME STEP  1, STRESS PERIOD   9



 STREAM LISTING     PERIOD      9   STEP        1

 LAYER ROW COL. STREAM  RCH.  FLOW INTO     FLOW TO   FLOW OUT OF   OVRLND.     DIRECT     STREAM       STREAM     STREAM     STREAM   STREAMBED  STREAMBED
                SEG.NO.  NO.  STRM. RCH.    AQUIFER    STRM. RCH.    RUNOFF     PRECIP       ET          HEAD       DEPTH      WIDTH   CONDCTNC.   GRADIENT

   1   13    1     1     1    1.0000E+05 -9.1988E+02   1.0092E+05  0.000E+00  0.000E+00  0.000E+00  4.84064E+01  1.451E-01  2.000E+01  2.000E+04 -4.599E-02
   1   13    2     1     2    1.0092E+05 -1.7887E+03   1.0271E+05  0.000E+00  0.000E+00  0.000E+00  4.79303E+01  1.462E-01  2.000E+01  2.000E+04 -8.943E-02
   1   14    3     1     3    1.0271E+05 -3.3402E+02   1.0304E+05  0.000E+00  0.000E+00  0.000E+00  4.74540E+01  1.471E-01  2.000E+01  2.000E+04 -1.670E-02
   1   15    4     1     4    1.0304E+05 -3.2880E+02   1.0337E+05  0.000E+00  0.000E+00  0.000E+00  4.69770E+01  1.474E-01  2.000E+01  2.000E+04 -1.644E-02
   1   16    5     1     5    1.0337E+05 -1.4403E+03   1.0481E+05  0.000E+00  0.000E+00  0.000E+00  4.65004E+01  1.482E-01  2.000E+01  2.000E+04 -7.201E-02
   1   16    6     1     6    1.0481E+05 -9.0081E+02   1.0571E+05  0.000E+00  0.000E+00  0.000E+00  4.60242E+01  1.492E-01  2.000E+01  2.000E+04 -4.504E-02
   1   16    7     1     7    1.0571E+05 -8.8364E+02   1.0660E+05  0.000E+00  0.000E+00  0.000E+00  4.55477E+01  1.499E-01  2.000E+01  2.000E+04 -4.418E-02
   1   16    8     1     8    1.0660E+05 -8.8158E+02   1.0748E+05  0.000E+00  0.000E+00  0.000E+00  4.50711E+01  1.507E-01  2.000E+01  2.000E+04 -4.408E-02
   1   16    9     1     9    1.0748E+05 -8.7800E+02   1.0836E+05  0.000E+00  0.000E+00  0.000E+00  4.45946E+01  1.514E-01  2.000E+01  2.000E+04 -4.390E-02
   1   16   10     1    10    1.0836E+05 -8.7218E+02   1.0923E+05  0.000E+00  0.000E+00  0.000E+00  4.41181E+01  1.522E-01  2.000E+01  2.000E+04 -4.361E-02
   1   16   11     1    11    1.0923E+05 -8.7683E+02   1.1010E+05  0.000E+00  0.000E+00  0.000E+00  4.36415E+01  1.529E-01  2.000E+01  2.000E+04 -4.384E-02
   1   16   12     1    12    1.1010E+05 -1.3549E+03   1.1146E+05  0.000E+00  0.000E+00  0.000E+00  4.31652E+01  1.538E-01  2.000E+01  2.000E+04 -6.775E-02
   1   15   13     1    13    1.1146E+05 -8.8646E+02   1.1235E+05  0.000E+00  0.000E+00  0.000E+00  4.26888E+01  1.547E-01  2.000E+01  2.000E+04 -4.432E-02
   1   14   14     1    14    1.1235E+05 -6.0370E+02   1.1295E+05  0.000E+00  0.000E+00  0.000E+00  4.22122E+01  1.554E-01  2.000E+01  2.000E+04 -3.018E-02
   1   13   15     1    15    1.1295E+05  4.0403E+02   1.1255E+05  0.000E+00  0.000E+00  0.000E+00  4.17350E+01  1.554E-01  2.000E+01  2.000E+04  2.020E-02
   1   12   16     1    16    1.1255E+05  8.9405E+01   1.1246E+05  0.000E+00  0.000E+00  0.000E+00  4.12575E+01  1.552E-01  2.000E+01  2.000E+04  4.470E-03
   1   12   17     1    17    1.1246E+05  2.6706E+03   1.0979E+05  0.000E+00  0.000E+00  0.000E+00  4.07791E+01  1.541E-01  2.000E+01  2.000E+04  1.335E-01
   1   12   18     1    18    1.0979E+05  3.6796E+02   1.0942E+05  0.000E+00  0.000E+00  0.000E+00  4.03006E+01  1.528E-01  2.000E+01  2.000E+04  1.840E-02
   1   12   19     1    19    1.0942E+05 -9.1048E+02   1.1033E+05  0.000E+00  0.000E+00  0.000E+00  3.98235E+01  1.531E-01  2.000E+01  2.000E+04 -4.552E-02
   1   13   20     1    20    1.1033E+05 -6.6757E+02   1.1100E+05  0.000E+00  0.000E+00  0.000E+00  3.93469E+01  1.537E-01  2.000E+01  2.000E+04 -3.338E-02
   1   14   21     1    21    1.1100E+05 -1.0453E+03   1.1204E+05  0.000E+00  0.000E+00  0.000E+00  3.88703E+01  1.544E-01  2.000E+01  2.000E+04 -5.226E-02
   1   14   22     1    22    1.1204E+05  4.8488E+03   1.0719E+05  0.000E+00  0.000E+00  0.000E+00  3.83915E+01  1.528E-01  2.000E+01  2.000E+04  2.424E-01
   1    9   30     2     1    5.0000E+04 -4.2818E+02   5.0428E+04  0.000E+00  0.000E+00  0.000E+00  4.02412E+01  1.162E-01  2.000E+01  2.000E+04 -2.141E-02
   1    9   29     2     2    5.0428E+04 -7.1098E+02   5.1139E+04  0.000E+00  0.000E+00  0.000E+00  3.99920E+01  1.170E-01  2.000E+01  2.000E+04 -3.555E-02
   1    9   28     2     3    5.1139E+04 -9.2224E+02   5.2061E+04  0.000E+00  0.000E+00  0.000E+00  3.97431E+01  1.181E-01  2.000E+01  2.000E+04 -4.611E-02
   1    9   27     2     4    5.2061E+04 -1.8843E+03   5.3946E+04  0.000E+00  0.000E+00  0.000E+00  3.94950E+01  1.200E-01  2.000E+01  2.000E+04 -9.422E-02
   1   10   26     2     5    5.3946E+04 -1.1460E+03   5.5092E+04  0.000E+00  0.000E+00  0.000E+00  3.92470E+01  1.220E-01  2.000E+01  2.000E+04 -5.730E-02
   1   11   25     2     6    5.5092E+04 -9.6568E+02   5.6057E+04  0.000E+00  0.000E+00  0.000E+00  3.89985E+01  1.235E-01  2.000E+01  2.000E+04 -4.828E-02
   1   12   24     2     7    5.6057E+04 -1.0437E+03   5.7101E+04  0.000E+00  0.000E+00  0.000E+00  3.87498E+01  1.248E-01  2.000E+01  2.000E+04 -5.219E-02
   1   13   23     2     8    5.7101E+04 -1.6337E+02   5.7264E+04  0.000E+00  0.000E+00  0.000E+00  3.85006E+01  1.256E-01  2.000E+01  2.000E+04 -8.168E-03
   1   14   22     2     9    5.7264E+04  2.0064E+03   5.5258E+04  0.000E+00  0.000E+00  0.000E+00  3.82494E+01  1.244E-01  2.000E+01  2.000E+04  1.003E-01
   1   14   22     3     1    1.6245E+05 -8.6071E+03   1.7106E+05  0.000E+00  0.000E+00  0.000E+00  3.77187E+01  1.631E-01  2.000E+01  2.000E+04 -4.304E-01
   1   15   23     3     2    1.7106E+05 -4.6898E+02   1.7153E+05  0.000E+00  0.000E+00  0.000E+00  3.68325E+01  1.658E-01  2.000E+01  2.000E+04 -2.345E-02
   1   15   24     3     3    1.7153E+05 -2.3809E+02   1.7176E+05  0.000E+00  0.000E+00  0.000E+00  3.59438E+01  1.660E-01  2.000E+01  2.000E+04 -1.190E-02
   1   15   25     3     4    1.7176E+05 -2.3232E+02   1.7200E+05  0.000E+00  0.000E+00  0.000E+00  3.50550E+01  1.661E-01  2.000E+01  2.000E+04 -1.162E-02
   1   15   26     3     5    1.7200E+05 -2.8637E+02   1.7228E+05  0.000E+00  0.000E+00  0.000E+00  3.41663E+01  1.663E-01  2.000E+01  2.000E+04 -1.432E-02
   1   16   27     3     6    1.7228E+05 -3.0991E+02   1.7259E+05  0.000E+00  0.000E+00  0.000E+00  3.32776E+01  1.664E-01  2.000E+01  2.000E+04 -1.550E-02
   1   17   28     3     7    1.7259E+05 -1.4038E+03   1.7400E+05  0.000E+00  0.000E+00  0.000E+00  3.23892E+01  1.669E-01  2.000E+01  2.000E+04 -7.019E-02
   1   18   29     3     8    1.7400E+05 -2.7228E+03   1.7672E+05  0.000E+00  0.000E+00  0.000E+00  3.15015E+01  1.681E-01  2.000E+01  2.000E+04 -1.361E-01
   1   18   30     3     9    1.7672E+05 -3.0455E+03   1.7977E+05  0.000E+00  0.000E+00  0.000E+00  3.06142E+01  1.698E-01  2.000E+01  2.000E+04 -1.523E-01



1
              HEAD IN LAYER   1 AT END OF TIME STEP   1 IN STRESS PERIOD    9
  ---------------------------------------------------------------------------

          1      2      3      4      5      6      7      8      9     10
         11     12     13     14     15     16     17     18     19     20
         21     22     23     24     25     26     27     28     29     30
 .........................................................................
   1  ****** ****** ****** ****** ****** ****** ****** ****** ****** ******
      ****** ****** ****** ****** ****** ****** ****** ****** ****** ******
      ****** ****** ****** ****** ****** ****** ****** ****** ****** ******
   2  ****** ****** ****** ****** ****** ****** ****** ****** ****** ******
      ****** ****** ****** ****** ****** ****** ****** ****** ****** ******
      ****** ****** ****** ****** ****** ****** ****** ****** ****** ******
   3  ****** ****** ****** ****** ****** ****** ****** ****** ****** ******
      ****** ****** ****** ****** ****** ****** ****** ****** ****** ******
      ****** ****** ****** ****** ****** ****** ****** ****** ****** ******
   4  ****** ****** ****** ****** ****** ****** ****** ****** ****** ******
      ****** ****** ****** ****** ****** ****** ****** ****** ****** ******
      ****** ****** ****** ****** ****** ****** ****** ****** ****** ******
   5  ****** ****** ****** ****** ****** ****** ****** ****** ****** ******
      ****** ****** ****** ****** ****** ****** ****** ****** ****** ******
      ****** ****** ****** ****** ****** ****** ****** ****** ****** ******
   6  ****** ****** ****** ****** ****** ****** ****** ****** ****** ******
      ****** ****** ****** ****** ****** ****** ****** ****** ****** ******
      ****** ****** ****** ****** ****** ****** ****** ****** ****** ******
   7  ****** ****** ****** ****** ****** ****** ****** ****** ****** ******
      ****** ****** ****** ****** ****** ****** ****** ****** ****** ******
      ****** ****** ****** ****** ****** ****** ****** ****** ****** ******
   8  ****** ****** ****** ****** ****** ****** ****** ****** ****** ******
      ****** ****** ****** ****** ****** ****** ****** ****** ****** ******
      ****** ****** ****** ****** ****** ****** ****** ****** ****** ******
   9  ****** ****** ****** ****** ****** ****** ****** ****** ****** ******
      ****** ****** ****** ****** ****** ****** ****** ****** ****** ******
      ****** ****** ****** ****** ****** ****** ****** ****** ****** ******
  10  ****** ****** ****** ****** ****** ****** ****** ****** ****** ******
      ****** ****** ****** ****** ****** ****** ****** ****** ****** ******
      ****** ****** ****** ****** ****** ****** ****** ****** ****** ******
  11  ****** ****** ****** ****** ****** ****** ****** ****** ****** ******
      ****** ****** ****** ****** ****** ****** ****** ****** ****** ******
      ****** ****** ****** ****** ****** ****** ****** ****** ****** ******
  12  ****** ****** ****** ****** ****** ****** ****** ****** ****** ******
      ****** ****** ****** ****** ****** ****** ****** ****** ****** ******
      ****** ****** ****** ****** ****** ****** ****** ****** ****** ******
  13  ****** ****** ****** ****** ****** ****** ****** ****** ****** ******
      ****** ****** ****** ****** ****** ****** ****** ****** ****** ******
      ****** ****** ****** ****** ****** ****** ****** ****** ****** ******
  14  ****** ****** ****** ****** ****** ****** ****** ****** ****** ******
      ****** ****** ****** ****** ****** ****** ****** ****** ****** ******
      ****** ****** ****** ****** ****** ****** ****** ****** ****** ******
  15  ****** ****** ****** ****** ****** ****** ****** ****** ****** ******
      ****** ****** ****** ****** ****** ****** ****** ****** ****** ******
      ****** ****** ****** ****** ****** ****** ****** ****** ****** ******
  16  ****** ****** ****** ****** ****** ****** ****** ****** ****** ******
      ****** ****** ****** ****** ****** ****** ****** ****** ****** ******
      ****** ****** ****** ****** ****** ****** ****** ****** ****** ******
  17  ****** ****** ****** ****** ****** ****** ****** ****** ****** ******
      ****** ****** ****** ****** ****** ****** ****** ****** ****** ******
      ****** ****** ****** ****** ****** ****** ****** ****** ****** ******
  18  ****** ****** ****** ****** ****** ****** ****** ****** ****** ******
      ****** ****** ****** ****** ****** ****** ****** ****** ****** ******
      ****** ****** ****** ****** ****** ****** ****** ****** ****** ******
  19  ****** ****** ****** ****** ****** ****** ****** ****** ****** ******
      ****** ****** ****** ****** ****** ****** ****** ****** ****** ******
      ****** ****** ****** ****** ****** ****** ****** ****** ****** ******
  20  ****** ****** ****** ****** ****** ****** ****** ****** ****** ******
      ****** ****** ****** ****** ****** ****** ****** ****** ****** ******
      ****** ****** ****** ****** ****** ****** ****** ****** ****** ******
  21  ****** ****** ****** ****** ****** ****** ****** ****** ****** ******
      ****** ****** ****** ****** ****** ****** ****** ****** ****** ******
      ****** ****** ****** ****** ****** ****** ****** ****** ****** ******
  22  ****** ****** ****** ****** ****** ****** ****** ****** ****** ******
      ****** ****** ****** ****** ****** ****** ****** ****** ****** ******
      ****** ****** ****** ****** ****** ****** ****** ****** ****** ******
  23  ****** ****** ****** ****** ****** ****** ****** ****** ****** ******
      ****** ****** ****** ****** ****** ****** ****** ****** ****** ******
      ****** ****** ****** ****** ****** ****** ****** ****** ****** ******
  24  ****** ****** ****** ****** ****** ****** ****** ****** ****** ******
      ****** ****** ****** ****** ****** ****** ****** ****** ****** ******
      ****** ****** ****** ****** ****** ****** ****** ****** ****** ******
  25  ****** ****** ****** ****** ****** ****** ****** ****** ****** ******
      ****** ****** ****** ****** ****** ****** ****** ****** ****** ******
      ****** ****** ****** ****** ****** ****** ****** ****** ****** ******

 HEAD WILL BE SAVED ON UNIT   51 AT END OF TIME STEP    1, STRESS PERIOD    9
1
  VOLUMETRIC BUDGET FOR ENTIRE MODEL AT END OF TIME STEP    1, STRESS PERIOD   9
  ------------------------------------------------------------------------------

     CUMULATIVE VOLUMES      L**3       RATES FOR THIS TIME STEP      L**3/T
     ------------------                 ------------------------

           IN:                                      IN:
           ---                                      ---
             STORAGE =    35282382.4120               STORAGE =        7795.6144
       CONSTANT HEAD =    23849044.2837         CONSTANT HEAD =       36593.1649
               WELLS =           0.0000                 WELLS =           0.0000
            RECHARGE =    18878400.0000              RECHARGE =       13800.0000
      STREAM LEAKAGE =     6720430.8286        STREAM LEAKAGE =       10387.2168

            TOTAL IN =    84730257.5243              TOTAL IN =       68575.9961

          OUT:                                     OUT:
          ----                                     ----
             STORAGE =      837173.8336               STORAGE =           0.0000
       CONSTANT HEAD =           0.0000         CONSTANT HEAD =           0.0000
               WELLS =    23364165.3741                 WELLS =       28423.5588
            RECHARGE =           0.0000              RECHARGE =           0.0000
      STREAM LEAKAGE =    60528920.3155        STREAM LEAKAGE =       40152.4381

           TOTAL OUT =    84730259.5233             TOTAL OUT =       68575.9970

            IN - OUT =          -1.9991              IN - OUT =      -8.3444E-04

 PERCENT DISCREPANCY =          -0.00     PERCENT DISCREPANCY =          -0.00






         TIME SUMMARY AT END OF TIME STEP    1 IN STRESS PERIOD    9
                    SECONDS     MINUTES      HOURS       DAYS        YEARS
                    -----------------------------------------------------------
   TIME STEP LENGTH 7.94880E+06 1.32480E+05  2208.0      92.000     0.25188    
 STRESS PERIOD TIME 7.94880E+06 1.32480E+05  2208.0      92.000     0.25188    
         TOTAL TIME 7.10208E+07 1.18368E+06  19728.      822.00      2.2505    
1
1
                            STRESS PERIOD NO.   10, LENGTH =   91.00000    
                            -----------------------------------------------

                              NUMBER OF TIME STEPS =     1

                               MULTIPLIER FOR DELT =     1.500

                            INITIAL TIME STEP SIZE =   91.00000    

 WELL NO.  LAYER   ROW   COL   STRESS RATE         
 --------------------------------------------------
      1      1      6     15      -8201.    
      2      1     13     17     -0.1103E+05
      3      1      5      8      -7262.    
      4      1      3     21      -1929.    

      4 WELLS

                 RECHARGE =  2.000000E-03

 REUSING STREAM SEGMENT DATA FROM LAST STRESS PERIOD
 
 SOLVING FOR HEAD 


     7 CALLS TO PCG ROUTINE FOR TIME STEP   1 IN STRESS PERIOD   10
    26 TOTAL ITERATIONS

 OUTPUT CONTROL FOR STRESS PERIOD   10   TIME STEP    1
    SAVE BUDGET
    SAVE HEAD FOR ALL LAYERS
    PRINT HEAD FOR ALL LAYERS
 UBDSV2 SAVING "STREAMFLOW OUT  " ON UNIT  50 AT TIME STEP  1, STRESS PERIOD  10



 STREAM LISTING     PERIOD     10   STEP        1

 LAYER ROW COL. STREAM  RCH.  FLOW INTO     FLOW TO   FLOW OUT OF   OVRLND.     DIRECT     STREAM       STREAM     STREAM     STREAM   STREAMBED  STREAMBED
                SEG.NO.  NO.  STRM. RCH.    AQUIFER    STRM. RCH.    RUNOFF     PRECIP       ET          HEAD       DEPTH      WIDTH   CONDCTNC.   GRADIENT

   1   13    1     1     1    1.0000E+05 -1.3574E+03   1.0136E+05  0.000E+00  0.000E+00  0.000E+00  4.84066E+01  1.452E-01  2.000E+01  2.000E+04 -6.787E-02
   1   13    2     1     2    1.0136E+05 -2.2725E+03   1.0363E+05  0.000E+00  0.000E+00  0.000E+00  4.79309E+01  1.468E-01  2.000E+01  2.000E+04 -1.136E-01
   1   14    3     1     3    1.0363E+05 -5.1790E+02   1.0415E+05  0.000E+00  0.000E+00  0.000E+00  4.74548E+01  1.480E-01  2.000E+01  2.000E+04 -2.590E-02
   1   15    4     1     4    1.0415E+05 -5.2614E+02   1.0467E+05  0.000E+00  0.000E+00  0.000E+00  4.69780E+01  1.484E-01  2.000E+01  2.000E+04 -2.631E-02
   1   16    5     1     5    1.0467E+05 -2.0582E+03   1.0673E+05  0.000E+00  0.000E+00  0.000E+00  4.65018E+01  1.495E-01  2.000E+01  2.000E+04 -1.029E-01
   1   16    6     1     6    1.0673E+05 -1.2614E+03   1.0799E+05  0.000E+00  0.000E+00  0.000E+00  4.60260E+01  1.510E-01  2.000E+01  2.000E+04 -6.307E-02
   1   16    7     1     7    1.0799E+05 -1.2262E+03   1.0922E+05  0.000E+00  0.000E+00  0.000E+00  4.55497E+01  1.520E-01  2.000E+01  2.000E+04 -6.131E-02
   1   16    8     1     8    1.0922E+05 -1.2188E+03   1.1044E+05  0.000E+00  0.000E+00  0.000E+00  4.50735E+01  1.530E-01  2.000E+01  2.000E+04 -6.094E-02
   1   16    9     1     9    1.1044E+05 -1.2139E+03   1.1165E+05  0.000E+00  0.000E+00  0.000E+00  4.45972E+01  1.540E-01  2.000E+01  2.000E+04 -6.070E-02
   1   16   10     1    10    1.1165E+05 -1.2087E+03   1.1286E+05  0.000E+00  0.000E+00  0.000E+00  4.41210E+01  1.550E-01  2.000E+01  2.000E+04 -6.044E-02
   1   16   11     1    11    1.1286E+05 -1.2174E+03   1.1408E+05  0.000E+00  0.000E+00  0.000E+00  4.36447E+01  1.560E-01  2.000E+01  2.000E+04 -6.087E-02
   1   16   12     1    12    1.1408E+05 -1.9229E+03   1.1600E+05  0.000E+00  0.000E+00  0.000E+00  4.31687E+01  1.573E-01  2.000E+01  2.000E+04 -9.614E-02
   1   15   13     1    13    1.1600E+05 -1.4681E+03   1.1747E+05  0.000E+00  0.000E+00  0.000E+00  4.26928E+01  1.587E-01  2.000E+01  2.000E+04 -7.340E-02
   1   14   14     1    14    1.1747E+05 -1.1902E+03   1.1866E+05  0.000E+00  0.000E+00  0.000E+00  4.22166E+01  1.598E-01  2.000E+01  2.000E+04 -5.951E-02
   1   13   15     1    15    1.1866E+05 -1.7065E+02   1.1883E+05  0.000E+00  0.000E+00  0.000E+00  4.17399E+01  1.604E-01  2.000E+01  2.000E+04 -8.532E-03
   1   12   16     1    16    1.1883E+05 -4.6055E+02   1.1929E+05  0.000E+00  0.000E+00  0.000E+00  4.12629E+01  1.606E-01  2.000E+01  2.000E+04 -2.303E-02
   1   12   17     1    17    1.1929E+05  2.2509E+03   1.1704E+05  0.000E+00  0.000E+00  0.000E+00  4.07849E+01  1.599E-01  2.000E+01  2.000E+04  1.125E-01
   1   12   18     1    18    1.1704E+05 -4.8665E+01   1.1709E+05  0.000E+00  0.000E+00  0.000E+00  4.03067E+01  1.590E-01  2.000E+01  2.000E+04 -2.433E-03
   1   12   19     1    19    1.1709E+05 -1.4235E+03   1.1851E+05  0.000E+00  0.000E+00  0.000E+00  3.98300E+01  1.596E-01  2.000E+01  2.000E+04 -7.117E-02
   1   13   20     1    20    1.1851E+05 -1.1868E+03   1.1970E+05  0.000E+00  0.000E+00  0.000E+00  3.93538E+01  1.607E-01  2.000E+01  2.000E+04 -5.934E-02
   1   14   21     1    21    1.1970E+05 -1.5702E+03   1.2127E+05  0.000E+00  0.000E+00  0.000E+00  3.88777E+01  1.618E-01  2.000E+01  2.000E+04 -7.851E-02
   1   14   22     1    22    1.2127E+05  4.7240E+03   1.1655E+05  0.000E+00  0.000E+00  0.000E+00  3.83991E+01  1.605E-01  2.000E+01  2.000E+04  2.362E-01
   1    9   30     2     1    5.0000E+04 -8.4129E+02   5.0841E+04  0.000E+00  0.000E+00  0.000E+00  4.02414E+01  1.164E-01  2.000E+01  2.000E+04 -4.206E-02
   1    9   29     2     2    5.0841E+04 -1.1217E+03   5.1963E+04  0.000E+00  0.000E+00  0.000E+00  3.99928E+01  1.178E-01  2.000E+01  2.000E+04 -5.609E-02
   1    9   28     2     3    5.1963E+04 -1.3319E+03   5.3295E+04  0.000E+00  0.000E+00  0.000E+00  3.97445E+01  1.195E-01  2.000E+01  2.000E+04 -6.659E-02
   1    9   27     2     4    5.3295E+04 -2.4341E+03   5.5729E+04  0.000E+00  0.000E+00  0.000E+00  3.94970E+01  1.220E-01  2.000E+01  2.000E+04 -1.217E-01
   1   10   26     2     5    5.5729E+04 -1.6961E+03   5.7425E+04  0.000E+00  0.000E+00  0.000E+00  3.92498E+01  1.248E-01  2.000E+01  2.000E+04 -8.481E-02
   1   11   25     2     6    5.7425E+04 -1.4914E+03   5.8916E+04  0.000E+00  0.000E+00  0.000E+00  3.90019E+01  1.269E-01  2.000E+01  2.000E+04 -7.457E-02
   1   12   24     2     7    5.8916E+04 -1.5193E+03   6.0436E+04  0.000E+00  0.000E+00  0.000E+00  3.87538E+01  1.288E-01  2.000E+01  2.000E+04 -7.596E-02
   1   13   23     2     8    6.0436E+04 -3.1166E+02   6.0747E+04  0.000E+00  0.000E+00  0.000E+00  3.85050E+01  1.300E-01  2.000E+01  2.000E+04 -1.558E-02
   1   14   22     2     9    6.0747E+04  1.8225E+03   5.8925E+04  0.000E+00  0.000E+00  0.000E+00  3.82540E+01  1.290E-01  2.000E+01  2.000E+04  9.112E-02
   1   14   22     3     1    1.7547E+05 -8.7334E+03   1.8420E+05  0.000E+00  0.000E+00  0.000E+00  3.77263E+01  1.707E-01  2.000E+01  2.000E+04 -4.367E-01
   1   15   23     3     2    1.8420E+05 -6.3172E+02   1.8484E+05  0.000E+00  0.000E+00  0.000E+00  3.68400E+01  1.734E-01  2.000E+01  2.000E+04 -3.159E-02
   1   15   24     3     3    1.8484E+05 -3.7538E+02   1.8521E+05  0.000E+00  0.000E+00  0.000E+00  3.59514E+01  1.736E-01  2.000E+01  2.000E+04 -1.877E-02
   1   15   25     3     4    1.8521E+05 -3.7301E+02   1.8558E+05  0.000E+00  0.000E+00  0.000E+00  3.50627E+01  1.738E-01  2.000E+01  2.000E+04 -1.865E-02
   1   15   26     3     5    1.8558E+05 -4.4868E+02   1.8603E+05  0.000E+00  0.000E+00  0.000E+00  3.41741E+01  1.741E-01  2.000E+01  2.000E+04 -2.243E-02
   1   16   27     3     6    1.8603E+05 -4.9590E+02   1.8653E+05  0.000E+00  0.000E+00  0.000E+00  3.32855E+01  1.743E-01  2.000E+01  2.000E+04 -2.480E-02
   1   17   28     3     7    1.8653E+05 -1.9250E+03   1.8845E+05  0.000E+00  0.000E+00  0.000E+00  3.23972E+01  1.750E-01  2.000E+01  2.000E+04 -9.625E-02
   1   18   29     3     8    1.8845E+05 -3.2752E+03   1.9173E+05  0.000E+00  0.000E+00  0.000E+00  3.15098E+01  1.765E-01  2.000E+01  2.000E+04 -1.638E-01
   1   18   30     3     9    1.9173E+05 -3.4715E+03   1.9520E+05  0.000E+00  0.000E+00  0.000E+00  3.06228E+01  1.783E-01  2.000E+01  2.000E+04 -1.736E-01



1
              HEAD IN LAYER   1 AT END OF TIME STEP   1 IN STRESS PERIOD   10
  ---------------------------------------------------------------------------

          1      2      3      4      5      6      7      8      9     10
         11     12     13     14     15     16     17     18     19     20
         21     22     23     24     25     26     27     28     29     30
 .........................................................................
   1  ****** ****** ****** ****** ****** ****** ****** ****** ****** ******
      ****** ****** ****** ****** ****** ****** ****** ****** ****** ******
      ****** ****** ****** ****** ****** ****** ****** ****** ****** ******
   2  ****** ****** ****** ****** ****** ****** ****** ****** ****** ******
      ****** ****** ****** ****** ****** ****** ****** ****** ****** ******
      ****** ****** ****** ****** ****** ****** ****** ****** ****** ******
   3  ****** ****** ****** ****** ****** ****** ****** ****** ****** ******
      ****** ****** ****** ****** ****** ****** ****** ****** ****** ******
      ****** ****** ****** ****** ****** ****** ****** ****** ****** ******
   4  ****** ****** ****** ****** ****** ****** ****** ****** ****** ******
      ****** ****** ****** ****** ****** ****** ****** ****** ****** ******
      ****** ****** ****** ****** ****** ****** ****** ****** ****** ******
   5  ****** ****** ****** ****** ****** ****** ****** ****** ****** ******
      ****** ****** ****** ****** ****** ****** ****** ****** ****** ******
      ****** ****** ****** ****** ****** ****** ****** ****** ****** ******
   6  ****** ****** ****** ****** ****** ****** ****** ****** ****** ******
      ****** ****** ****** ****** ****** ****** ****** ****** ****** ******
      ****** ****** ****** ****** ****** ****** ****** ****** ****** ******
   7  ****** ****** ****** ****** ****** ****** ****** ****** ****** ******
      ****** ****** ****** ****** ****** ****** ****** ****** ****** ******
      ****** ****** ****** ****** ****** ****** ****** ****** ****** ******
   8  ****** ****** ****** ****** ****** ****** ****** ****** ****** ******
      ****** ****** ****** ****** ****** ****** ****** ****** ****** ******
      ****** ****** ****** ****** ****** ****** ****** ****** ****** ******
   9  ****** ****** ****** ****** ****** ****** ****** ****** ****** ******
      ****** ****** ****** ****** ****** ****** ****** ****** ****** ******
      ****** ****** ****** ****** ****** ****** ****** ****** ****** ******
  10  ****** ****** ****** ****** ****** ****** ****** ****** ****** ******
      ****** ****** ****** ****** ****** ****** ****** ****** ****** ******
      ****** ****** ****** ****** ****** ****** ****** ****** ****** ******
  11  ****** ****** ****** ****** ****** ****** ****** ****** ****** ******
      ****** ****** ****** ****** ****** ****** ****** ****** ****** ******
      ****** ****** ****** ****** ****** ****** ****** ****** ****** ******
  12  ****** ****** ****** ****** ****** ****** ****** ****** ****** ******
      ****** ****** ****** ****** ****** ****** ****** ****** ****** ******
      ****** ****** ****** ****** ****** ****** ****** ****** ****** ******
  13  ****** ****** ****** ****** ****** ****** ****** ****** ****** ******
      ****** ****** ****** ****** ****** ****** ****** ****** ****** ******
      ****** ****** ****** ****** ****** ****** ****** ****** ****** ******
  14  ****** ****** ****** ****** ****** ****** ****** ****** ****** ******
      ****** ****** ****** ****** ****** ****** ****** ****** ****** ******
      ****** ****** ****** ****** ****** ****** ****** ****** ****** ******
  15  ****** ****** ****** ****** ****** ****** ****** ****** ****** ******
      ****** ****** ****** ****** ****** ****** ****** ****** ****** ******
      ****** ****** ****** ****** ****** ****** ****** ****** ****** ******
  16  ****** ****** ****** ****** ****** ****** ****** ****** ****** ******
      ****** ****** ****** ****** ****** ****** ****** ****** ****** ******
      ****** ****** ****** ****** ****** ****** ****** ****** ****** ******
  17  ****** ****** ****** ****** ****** ****** ****** ****** ****** ******
      ****** ****** ****** ****** ****** ****** ****** ****** ****** ******
      ****** ****** ****** ****** ****** ****** ****** ****** ****** ******
  18  ****** ****** ****** ****** ****** ****** ****** ****** ****** ******
      ****** ****** ****** ****** ****** ****** ****** ****** ****** ******
      ****** ****** ****** ****** ****** ****** ****** ****** ****** ******
  19  ****** ****** ****** ****** ****** ****** ****** ****** ****** ******
      ****** ****** ****** ****** ****** ****** ****** ****** ****** ******
      ****** ****** ****** ****** ****** ****** ****** ****** ****** ******
  20  ****** ****** ****** ****** ****** ****** ****** ****** ****** ******
      ****** ****** ****** ****** ****** ****** ****** ****** ****** ******
      ****** ****** ****** ****** ****** ****** ****** ****** ****** ******
  21  ****** ****** ****** ****** ****** ****** ****** ****** ****** ******
      ****** ****** ****** ****** ****** ****** ****** ****** ****** ******
      ****** ****** ****** ****** ****** ****** ****** ****** ****** ******
  22  ****** ****** ****** ****** ****** ****** ****** ****** ****** ******
      ****** ****** ****** ****** ****** ****** ****** ****** ****** ******
      ****** ****** ****** ****** ****** ****** ****** ****** ****** ******
  23  ****** ****** ****** ****** ****** ****** ****** ****** ****** ******
      ****** ****** ****** ****** ****** ****** ****** ****** ****** ******
      ****** ****** ****** ****** ****** ****** ****** ****** ****** ******
  24  ****** ****** ****** ****** ****** ****** ****** ****** ****** ******
      ****** ****** ****** ****** ****** ****** ****** ****** ****** ******
      ****** ****** ****** ****** ****** ****** ****** ****** ****** ******
  25  ****** ****** ****** ****** ****** ****** ****** ****** ****** ******
      ****** ****** ****** ****** ****** ****** ****** ****** ****** ******
      ****** ****** ****** ****** ****** ****** ****** ****** ****** ******

 HEAD WILL BE SAVED ON UNIT   51 AT END OF TIME STEP    1, STRESS PERIOD   10
1
  VOLUMETRIC BUDGET FOR ENTIRE MODEL AT END OF TIME STEP    1, STRESS PERIOD  10
  ------------------------------------------------------------------------------

     CUMULATIVE VOLUMES      L**3       RATES FOR THIS TIME STEP      L**3/T
     ------------------                 ------------------------

           IN:                                      IN:
           ---                                      ---
             STORAGE =    35282382.4120               STORAGE =           0.0000
       CONSTANT HEAD =    26914502.8971         CONSTANT HEAD =       33686.3584
               WELLS =           0.0000                 WELLS =           0.0000
            RECHARGE =    23901600.0000              RECHARGE =       55200.0000
      STREAM LEAKAGE =     7520995.0191        STREAM LEAKAGE =        8797.4087

            TOTAL IN =    93619480.3281              TOTAL IN =       97683.7671

          OUT:                                     OUT:
          ----                                     ----
             STORAGE =     2226098.8435               STORAGE =       15262.9122
       CONSTANT HEAD =           0.0000         CONSTANT HEAD =           0.0000
               WELLS =    25950709.2294                 WELLS =       28423.5588
            RECHARGE =           0.0000              RECHARGE =           0.0000
      STREAM LEAKAGE =    65442673.9810        STREAM LEAKAGE =       53997.2930

           TOTAL OUT =    93619482.0540             TOTAL OUT =       97683.7641

            IN - OUT =          -1.7258              IN - OUT =       3.0027E-03

 PERCENT DISCREPANCY =          -0.00     PERCENT DISCREPANCY =           0.00






         TIME SUMMARY AT END OF TIME STEP    1 IN STRESS PERIOD   10
                    SECONDS     MINUTES      HOURS       DAYS        YEARS
                    -----------------------------------------------------------
   TIME STEP LENGTH 7.86240E+06 1.31040E+05  2184.0      91.000     0.24914    
 STRESS PERIOD TIME 7.86240E+06 1.31040E+05  2184.0      91.000     0.24914    
         TOTAL TIME 7.88832E+07 1.31472E+06  21912.      913.00      2.4997    
1
1
                            STRESS PERIOD NO.   11, LENGTH =   91.00000    
                            -----------------------------------------------

                              NUMBER OF TIME STEPS =     1

                               MULTIPLIER FOR DELT =     1.500

                            INITIAL TIME STEP SIZE =   91.00000    

 WELL NO.  LAYER   ROW   COL   STRESS RATE         
 --------------------------------------------------
      1      1      6     15      -8201.    
      2      1     13     17     -0.1103E+05
      3      1      5      8      -7262.    
      4      1      3     21      -1929.    

      4 WELLS

                 RECHARGE =   0.00000    

 REUSING STREAM SEGMENT DATA FROM LAST STRESS PERIOD
 
 SOLVING FOR HEAD 


     7 CALLS TO PCG ROUTINE FOR TIME STEP   1 IN STRESS PERIOD   11
    26 TOTAL ITERATIONS

 OUTPUT CONTROL FOR STRESS PERIOD   11   TIME STEP    1
    SAVE BUDGET
    SAVE HEAD FOR ALL LAYERS
    PRINT HEAD FOR ALL LAYERS
 UBDSV2 SAVING "STREAMFLOW OUT  " ON UNIT  50 AT TIME STEP  1, STRESS PERIOD  11



 STREAM LISTING     PERIOD     11   STEP        1

 LAYER ROW COL. STREAM  RCH.  FLOW INTO     FLOW TO   FLOW OUT OF   OVRLND.     DIRECT     STREAM       STREAM     STREAM     STREAM   STREAMBED  STREAMBED
                SEG.NO.  NO.  STRM. RCH.    AQUIFER    STRM. RCH.    RUNOFF     PRECIP       ET          HEAD       DEPTH      WIDTH   CONDCTNC.   GRADIENT

   1   13    1     1     1    1.0000E+05 -7.7887E+02   1.0078E+05  0.000E+00  0.000E+00  0.000E+00  4.84064E+01  1.450E-01  2.000E+01  2.000E+04 -3.894E-02
   1   13    2     1     2    1.0078E+05 -1.6275E+03   1.0241E+05  0.000E+00  0.000E+00  0.000E+00  4.79301E+01  1.460E-01  2.000E+01  2.000E+04 -8.138E-02
   1   14    3     1     3    1.0241E+05 -2.8504E+02   1.0269E+05  0.000E+00  0.000E+00  0.000E+00  4.74537E+01  1.469E-01  2.000E+01  2.000E+04 -1.425E-02
   1   15    4     1     4    1.0269E+05 -2.8268E+02   1.0297E+05  0.000E+00  0.000E+00  0.000E+00  4.69766E+01  1.471E-01  2.000E+01  2.000E+04 -1.413E-02
   1   16    5     1     5    1.0297E+05 -1.3696E+03   1.0434E+05  0.000E+00  0.000E+00  0.000E+00  4.65001E+01  1.478E-01  2.000E+01  2.000E+04 -6.848E-02
   1   16    6     1     6    1.0434E+05 -8.4578E+02   1.0519E+05  0.000E+00  0.000E+00  0.000E+00  4.60238E+01  1.488E-01  2.000E+01  2.000E+04 -4.229E-02
   1   16    7     1     7    1.0519E+05 -8.2808E+02   1.0602E+05  0.000E+00  0.000E+00  0.000E+00  4.55472E+01  1.495E-01  2.000E+01  2.000E+04 -4.140E-02
   1   16    8     1     8    1.0602E+05 -8.2619E+02   1.0684E+05  0.000E+00  0.000E+00  0.000E+00  4.50706E+01  1.502E-01  2.000E+01  2.000E+04 -4.131E-02
   1   16    9     1     9    1.0684E+05 -8.2379E+02   1.0767E+05  0.000E+00  0.000E+00  0.000E+00  4.45940E+01  1.509E-01  2.000E+01  2.000E+04 -4.119E-02
   1   16   10     1    10    1.0767E+05 -8.2001E+02   1.0849E+05  0.000E+00  0.000E+00  0.000E+00  4.41175E+01  1.516E-01  2.000E+01  2.000E+04 -4.100E-02
   1   16   11     1    11    1.0849E+05 -8.2732E+02   1.0931E+05  0.000E+00  0.000E+00  0.000E+00  4.36409E+01  1.522E-01  2.000E+01  2.000E+04 -4.137E-02
   1   16   12     1    12    1.0931E+05 -1.2761E+03   1.1059E+05  0.000E+00  0.000E+00  0.000E+00  4.31645E+01  1.531E-01  2.000E+01  2.000E+04 -6.380E-02
   1   15   13     1    13    1.1059E+05 -7.7598E+02   1.1137E+05  0.000E+00  0.000E+00  0.000E+00  4.26881E+01  1.540E-01  2.000E+01  2.000E+04 -3.880E-02
   1   14   14     1    14    1.1137E+05 -4.7878E+02   1.1185E+05  0.000E+00  0.000E+00  0.000E+00  4.22113E+01  1.545E-01  2.000E+01  2.000E+04 -2.394E-02
   1   13   15     1    15    1.1185E+05  5.3655E+02   1.1131E+05  0.000E+00  0.000E+00  0.000E+00  4.17340E+01  1.545E-01  2.000E+01  2.000E+04  2.683E-02
   1   12   16     1    16    1.1131E+05  2.2545E+02   1.1108E+05  0.000E+00  0.000E+00  0.000E+00  4.12564E+01  1.542E-01  2.000E+01  2.000E+04  1.127E-02
   1   12   17     1    17    1.1108E+05  2.7618E+03   1.0832E+05  0.000E+00  0.000E+00  0.000E+00  4.07779E+01  1.529E-01  2.000E+01  2.000E+04  1.381E-01
   1   12   18     1    18    1.0832E+05  4.5369E+02   1.0787E+05  0.000E+00  0.000E+00  0.000E+00  4.02993E+01  1.516E-01  2.000E+01  2.000E+04  2.268E-02
   1   12   19     1    19    1.0787E+05 -8.0698E+02   1.0868E+05  0.000E+00  0.000E+00  0.000E+00  3.98222E+01  1.517E-01  2.000E+01  2.000E+04 -4.035E-02
   1   13   20     1    20    1.0868E+05 -5.7323E+02   1.0925E+05  0.000E+00  0.000E+00  0.000E+00  3.93455E+01  1.523E-01  2.000E+01  2.000E+04 -2.866E-02
   1   14   21     1    21    1.0925E+05 -9.7340E+02   1.1022E+05  0.000E+00  0.000E+00  0.000E+00  3.88689E+01  1.529E-01  2.000E+01  2.000E+04 -4.867E-02
   1   14   22     1    22    1.1022E+05  4.8673E+03   1.0535E+05  0.000E+00  0.000E+00  0.000E+00  3.83899E+01  1.513E-01  2.000E+01  2.000E+04  2.434E-01
   1    9   30     2     1    5.0000E+04 -3.5250E+02   5.0353E+04  0.000E+00  0.000E+00  0.000E+00  4.02411E+01  1.161E-01  2.000E+01  2.000E+04 -1.763E-02
   1    9   29     2     2    5.0353E+04 -6.3590E+02   5.0988E+04  0.000E+00  0.000E+00  0.000E+00  3.99918E+01  1.168E-01  2.000E+01  2.000E+04 -3.179E-02
   1    9   28     2     3    5.0988E+04 -8.4807E+02   5.1836E+04  0.000E+00  0.000E+00  0.000E+00  3.97428E+01  1.178E-01  2.000E+01  2.000E+04 -4.240E-02
   1    9   27     2     4    5.1836E+04 -1.7921E+03   5.3629E+04  0.000E+00  0.000E+00  0.000E+00  3.94946E+01  1.196E-01  2.000E+01  2.000E+04 -8.960E-02
   1   10   26     2     5    5.3629E+04 -1.0400E+03   5.4669E+04  0.000E+00  0.000E+00  0.000E+00  3.92465E+01  1.215E-01  2.000E+01  2.000E+04 -5.200E-02
   1   11   25     2     6    5.4669E+04 -8.5917E+02   5.5528E+04  0.000E+00  0.000E+00  0.000E+00  3.89978E+01  1.228E-01  2.000E+01  2.000E+04 -4.296E-02
   1   12   24     2     7    5.5528E+04 -9.4396E+02   5.6472E+04  0.000E+00  0.000E+00  0.000E+00  3.87490E+01  1.240E-01  2.000E+01  2.000E+04 -4.720E-02
   1   13   23     2     8    5.6472E+04 -1.2547E+02   5.6597E+04  0.000E+00  0.000E+00  0.000E+00  3.84997E+01  1.247E-01  2.000E+01  2.000E+04 -6.273E-03
   1   14   22     2     9    5.6597E+04  2.0375E+03   5.4560E+04  0.000E+00  0.000E+00  0.000E+00  3.82485E+01  1.235E-01  2.000E+01  2.000E+04  1.019E-01
   1   14   22     3     1    1.5991E+05 -8.5878E+03   1.6850E+05  0.000E+00  0.000E+00  0.000E+00  3.77172E+01  1.616E-01  2.000E+01  2.000E+04 -4.294E-01
   1   15   23     3     2    1.6850E+05 -4.3980E+02   1.6894E+05  0.000E+00  0.000E+00  0.000E+00  3.68310E+01  1.643E-01  2.000E+01  2.000E+04 -2.199E-02
   1   15   24     3     3    1.6894E+05 -2.1034E+02   1.6915E+05  0.000E+00  0.000E+00  0.000E+00  3.59423E+01  1.645E-01  2.000E+01  2.000E+04 -1.052E-02
   1   15   25     3     4    1.6915E+05 -2.0413E+02   1.6936E+05  0.000E+00  0.000E+00  0.000E+00  3.50535E+01  1.646E-01  2.000E+01  2.000E+04 -1.021E-02
   1   15   26     3     5    1.6936E+05 -2.5304E+02   1.6961E+05  0.000E+00  0.000E+00  0.000E+00  3.41647E+01  1.647E-01  2.000E+01  2.000E+04 -1.265E-02
   1   16   27     3     6    1.6961E+05 -2.7298E+02   1.6988E+05  0.000E+00  0.000E+00  0.000E+00  3.32760E+01  1.649E-01  2.000E+01  2.000E+04 -1.365E-02
   1   17   28     3     7    1.6988E+05 -1.3155E+03   1.7120E+05  0.000E+00  0.000E+00  0.000E+00  3.23876E+01  1.653E-01  2.000E+01  2.000E+04 -6.578E-02
   1   18   29     3     8    1.7120E+05 -2.6540E+03   1.7385E+05  0.000E+00  0.000E+00  0.000E+00  3.14998E+01  1.665E-01  2.000E+01  2.000E+04 -1.327E-01
   1   18   30     3     9    1.7385E+05 -2.9827E+03   1.7683E+05  0.000E+00  0.000E+00  0.000E+00  3.06126E+01  1.681E-01  2.000E+01  2.000E+04 -1.491E-01



1
              HEAD IN LAYER   1 AT END OF TIME STEP   1 IN STRESS PERIOD   11
  ---------------------------------------------------------------------------

          1      2      3      4      5      6      7      8      9     10
         11     12     13     14     15     16     17     18     19     20
         21     22     23     24     25     26     27     28     29     30
 .........................................................................
   1  ****** ****** ****** ****** ****** ****** ****** ****** ****** ******
      ****** ****** ****** ****** ****** ****** ****** ****** ****** ******
      ****** ****** ****** ****** ****** ****** ****** ****** ****** ******
   2  ****** ****** ****** ****** ****** ****** ****** ****** ****** ******
      ****** ****** ****** ****** ****** ****** ****** ****** ****** ******
      ****** ****** ****** ****** ****** ****** ****** ****** ****** ******
   3  ****** ****** ****** ****** ****** ****** ****** ****** ****** ******
      ****** ****** ****** ****** ****** ****** ****** ****** ****** ******
      ****** ****** ****** ****** ****** ****** ****** ****** ****** ******
   4  ****** ****** ****** ****** ****** ****** ****** ****** ****** ******
      ****** ****** ****** ****** ****** ****** ****** ****** ****** ******
      ****** ****** ****** ****** ****** ****** ****** ****** ****** ******
   5  ****** ****** ****** ****** ****** ****** ****** ****** ****** ******
      ****** ****** ****** ****** ****** ****** ****** ****** ****** ******
      ****** ****** ****** ****** ****** ****** ****** ****** ****** ******
   6  ****** ****** ****** ****** ****** ****** ****** ****** ****** ******
      ****** ****** ****** ****** ****** ****** ****** ****** ****** ******
      ****** ****** ****** ****** ****** ****** ****** ****** ****** ******
   7  ****** ****** ****** ****** ****** ****** ****** ****** ****** ******
      ****** ****** ****** ****** ****** ****** ****** ****** ****** ******
      ****** ****** ****** ****** ****** ****** ****** ****** ****** ******
   8  ****** ****** ****** ****** ****** ****** ****** ****** ****** ******
      ****** ****** ****** ****** ****** ****** ****** ****** ****** ******
      ****** ****** ****** ****** ****** ****** ****** ****** ****** ******
   9  ****** ****** ****** ****** ****** ****** ****** ****** ****** ******
      ****** ****** ****** ****** ****** ****** ****** ****** ****** ******
      ****** ****** ****** ****** ****** ****** ****** ****** ****** ******
  10  ****** ****** ****** ****** ****** ****** ****** ****** ****** ******
      ****** ****** ****** ****** ****** ****** ****** ****** ****** ******
      ****** ****** ****** ****** ****** ****** ****** ****** ****** ******
  11  ****** ****** ****** ****** ****** ****** ****** ****** ****** ******
      ****** ****** ****** ****** ****** ****** ****** ****** ****** ******
      ****** ****** ****** ****** ****** ****** ****** ****** ****** ******
  12  ****** ****** ****** ****** ****** ****** ****** ****** ****** ******
      ****** ****** ****** ****** ****** ****** ****** ****** ****** ******
      ****** ****** ****** ****** ****** ****** ****** ****** ****** ******
  13  ****** ****** ****** ****** ****** ****** ****** ****** ****** ******
      ****** ****** ****** ****** ****** ****** ****** ****** ****** ******
      ****** ****** ****** ****** ****** ****** ****** ****** ****** ******
  14  ****** ****** ****** ****** ****** ****** ****** ****** ****** ******
      ****** ****** ****** ****** ****** ****** ****** ****** ****** ******
      ****** ****** ****** ****** ****** ****** ****** ****** ****** ******
  15  ****** ****** ****** ****** ****** ****** ****** ****** ****** ******
      ****** ****** ****** ****** ****** ****** ****** ****** ****** ******
      ****** ****** ****** ****** ****** ****** ****** ****** ****** ******
  16  ****** ****** ****** ****** ****** ****** ****** ****** ****** ******
      ****** ****** ****** ****** ****** ****** ****** ****** ****** ******
      ****** ****** ****** ****** ****** ****** ****** ****** ****** ******
  17  ****** ****** ****** ****** ****** ****** ****** ****** ****** ******
      ****** ****** ****** ****** ****** ****** ****** ****** ****** ******
      ****** ****** ****** ****** ****** ****** ****** ****** ****** ******
  18  ****** ****** ****** ****** ****** ****** ****** ****** ****** ******
      ****** ****** ****** ****** ****** ****** ****** ****** ****** ******
      ****** ****** ****** ****** ****** ****** ****** ****** ****** ******
  19  ****** ****** ****** ****** ****** ****** ****** ****** ****** ******
      ****** ****** ****** ****** ****** ****** ****** ****** ****** ******
      ****** ****** ****** ****** ****** ****** ****** ****** ****** ******
  20  ****** ****** ****** ****** ****** ****** ****** ****** ****** ******
      ****** ****** ****** ****** ****** ****** ****** ****** ****** ******
      ****** ****** ****** ****** ****** ****** ****** ****** ****** ******
  21  ****** ****** ****** ****** ****** ****** ****** ****** ****** ******
      ****** ****** ****** ****** ****** ****** ****** ****** ****** ******
      ****** ****** ****** ****** ****** ****** ****** ****** ****** ******
  22  ****** ****** ****** ****** ****** ****** ****** ****** ****** ******
      ****** ****** ****** ****** ****** ****** ****** ****** ****** ******
      ****** ****** ****** ****** ****** ****** ****** ****** ****** ******
  23  ****** ****** ****** ****** ****** ****** ****** ****** ****** ******
      ****** ****** ****** ****** ****** ****** ****** ****** ****** ******
      ****** ****** ****** ****** ****** ****** ****** ****** ****** ******
  24  ****** ****** ****** ****** ****** ****** ****** ****** ****** ******
      ****** ****** ****** ****** ****** ****** ****** ****** ****** ******
      ****** ****** ****** ****** ****** ****** ****** ****** ****** ******
  25  ****** ****** ****** ****** ****** ****** ****** ****** ****** ******
      ****** ****** ****** ****** ****** ****** ****** ****** ****** ******
      ****** ****** ****** ****** ****** ****** ****** ****** ****** ******

 HEAD WILL BE SAVED ON UNIT   51 AT END OF TIME STEP    1, STRESS PERIOD   11
1
  VOLUMETRIC BUDGET FOR ENTIRE MODEL AT END OF TIME STEP    1, STRESS PERIOD  11
  ------------------------------------------------------------------------------

     CUMULATIVE VOLUMES      L**3       RATES FOR THIS TIME STEP      L**3/T
     ------------------                 ------------------------

           IN:                                      IN:
           ---                                      ---
             STORAGE =    36943344.9426               STORAGE =       18252.3355
       CONSTANT HEAD =    30282027.8105         CONSTANT HEAD =       37005.7683
               WELLS =           0.0000                 WELLS =           0.0000
            RECHARGE =    23901600.0000              RECHARGE =           0.0000
      STREAM LEAKAGE =     8511276.7385        STREAM LEAKAGE =       10882.2167

            TOTAL IN =    99638249.4916              TOTAL IN =       66140.3205

          OUT:                                     OUT:
          ----                                     ----
             STORAGE =     2226098.8435               STORAGE =           0.0000
       CONSTANT HEAD =           0.0000         CONSTANT HEAD =           0.0000
               WELLS =    28537253.0847                 WELLS =       28423.5588
            RECHARGE =           0.0000              RECHARGE =           0.0000
      STREAM LEAKAGE =    68874899.7434        STREAM LEAKAGE =       37716.7666

           TOTAL OUT =    99638251.6717             TOTAL OUT =       66140.3255

            IN - OUT =          -2.1801              IN - OUT =      -4.9923E-03

 PERCENT DISCREPANCY =          -0.00     PERCENT DISCREPANCY =          -0.00






         TIME SUMMARY AT END OF TIME STEP    1 IN STRESS PERIOD   11
                    SECONDS     MINUTES      HOURS       DAYS        YEARS
                    -----------------------------------------------------------
   TIME STEP LENGTH 7.86240E+06 1.31040E+05  2184.0      91.000     0.24914    
 STRESS PERIOD TIME 7.86240E+06 1.31040E+05  2184.0      91.000     0.24914    
         TOTAL TIME 8.67456E+07 1.44576E+06  24096.      1004.0      2.7488    
1
1
                            STRESS PERIOD NO.   12, LENGTH =   91.00000    
                            -----------------------------------------------

                              NUMBER OF TIME STEPS =     1

                               MULTIPLIER FOR DELT =     1.500

                            INITIAL TIME STEP SIZE =   91.00000    

 WELL NO.  LAYER   ROW   COL   STRESS RATE         
 --------------------------------------------------
      1      1      6     15      -8201.    
      2      1     13     17     -0.1103E+05
      3      1      5      8      -7262.    
      4      1      3     21      -1929.    

      4 WELLS

                 RECHARGE =  1.000000E-03

 REUSING STREAM SEGMENT DATA FROM LAST STRESS PERIOD
 
 SOLVING FOR HEAD 


     7 CALLS TO PCG ROUTINE FOR TIME STEP   1 IN STRESS PERIOD   12
    24 TOTAL ITERATIONS

 OUTPUT CONTROL FOR STRESS PERIOD   12   TIME STEP    1
    SAVE BUDGET
    SAVE HEAD FOR ALL LAYERS
    PRINT HEAD FOR ALL LAYERS
 UBDSV2 SAVING "STREAMFLOW OUT  " ON UNIT  50 AT TIME STEP  1, STRESS PERIOD  12



 STREAM LISTING     PERIOD     12   STEP        1

 LAYER ROW COL. STREAM  RCH.  FLOW INTO     FLOW TO   FLOW OUT OF   OVRLND.     DIRECT     STREAM       STREAM     STREAM     STREAM   STREAMBED  STREAMBED
                SEG.NO.  NO.  STRM. RCH.    AQUIFER    STRM. RCH.    RUNOFF     PRECIP       ET          HEAD       DEPTH      WIDTH   CONDCTNC.   GRADIENT

   1   13    1     1     1    1.0000E+05 -9.1524E+02   1.0092E+05  0.000E+00  0.000E+00  0.000E+00  4.84064E+01  1.450E-01  2.000E+01  2.000E+04 -4.576E-02
   1   13    2     1     2    1.0092E+05 -1.7733E+03   1.0269E+05  0.000E+00  0.000E+00  0.000E+00  4.79303E+01  1.462E-01  2.000E+01  2.000E+04 -8.866E-02
   1   14    3     1     3    1.0269E+05 -3.6214E+02   1.0305E+05  0.000E+00  0.000E+00  0.000E+00  4.74539E+01  1.471E-01  2.000E+01  2.000E+04 -1.811E-02
   1   15    4     1     4    1.0305E+05 -3.6387E+02   1.0341E+05  0.000E+00  0.000E+00  0.000E+00  4.69770E+01  1.474E-01  2.000E+01  2.000E+04 -1.819E-02
   1   16    5     1     5    1.0341E+05 -1.5787E+03   1.0499E+05  0.000E+00  0.000E+00  0.000E+00  4.65005E+01  1.483E-01  2.000E+01  2.000E+04 -7.893E-02
   1   16    6     1     6    1.0499E+05 -9.7524E+02   1.0597E+05  0.000E+00  0.000E+00  0.000E+00  4.60244E+01  1.494E-01  2.000E+01  2.000E+04 -4.876E-02
   1   16    7     1     7    1.0597E+05 -9.5236E+02   1.0692E+05  0.000E+00  0.000E+00  0.000E+00  4.55479E+01  1.502E-01  2.000E+01  2.000E+04 -4.762E-02
   1   16    8     1     8    1.0692E+05 -9.4947E+02   1.0787E+05  0.000E+00  0.000E+00  0.000E+00  4.50714E+01  1.510E-01  2.000E+01  2.000E+04 -4.747E-02
   1   16    9     1     9    1.0787E+05 -9.4764E+02   1.0882E+05  0.000E+00  0.000E+00  0.000E+00  4.45950E+01  1.518E-01  2.000E+01  2.000E+04 -4.738E-02
   1   16   10     1    10    1.0882E+05 -9.4543E+02   1.0976E+05  0.000E+00  0.000E+00  0.000E+00  4.41185E+01  1.526E-01  2.000E+01  2.000E+04 -4.727E-02
   1   16   11     1    11    1.0976E+05 -9.5527E+02   1.1072E+05  0.000E+00  0.000E+00  0.000E+00  4.36420E+01  1.534E-01  2.000E+01  2.000E+04 -4.776E-02
   1   16   12     1    12    1.1072E+05 -1.4769E+03   1.1220E+05  0.000E+00  0.000E+00  0.000E+00  4.31657E+01  1.544E-01  2.000E+01  2.000E+04 -7.384E-02
   1   15   13     1    13    1.1220E+05 -9.9031E+02   1.1319E+05  0.000E+00  0.000E+00  0.000E+00  4.26895E+01  1.554E-01  2.000E+01  2.000E+04 -4.952E-02
   1   14   14     1    14    1.1319E+05 -6.9255E+02   1.1388E+05  0.000E+00  0.000E+00  0.000E+00  4.22129E+01  1.561E-01  2.000E+01  2.000E+04 -3.463E-02
   1   13   15     1    15    1.1388E+05  3.3100E+02   1.1355E+05  0.000E+00  0.000E+00  0.000E+00  4.17358E+01  1.562E-01  2.000E+01  2.000E+04  1.655E-02
   1   12   16     1    16    1.1355E+05  4.7945E+01   1.1350E+05  0.000E+00  0.000E+00  0.000E+00  4.12584E+01  1.561E-01  2.000E+01  2.000E+04  2.397E-03
   1   12   17     1    17    1.1350E+05  2.6112E+03   1.1089E+05  0.000E+00  0.000E+00  0.000E+00  4.07800E+01  1.550E-01  2.000E+01  2.000E+04  1.306E-01
   1   12   18     1    18    1.1089E+05  3.0041E+02   1.1059E+05  0.000E+00  0.000E+00  0.000E+00  4.03015E+01  1.538E-01  2.000E+01  2.000E+04  1.502E-02
   1   12   19     1    19    1.1059E+05 -9.9668E+02   1.1158E+05  0.000E+00  0.000E+00  0.000E+00  3.98245E+01  1.541E-01  2.000E+01  2.000E+04 -4.983E-02
   1   13   20     1    20    1.1158E+05 -7.8256E+02   1.1237E+05  0.000E+00  0.000E+00  0.000E+00  3.93480E+01  1.548E-01  2.000E+01  2.000E+04 -3.913E-02
   1   14   21     1    21    1.1237E+05 -1.1673E+03   1.1353E+05  0.000E+00  0.000E+00  0.000E+00  3.88715E+01  1.556E-01  2.000E+01  2.000E+04 -5.836E-02
   1   14   22     1    22    1.1353E+05  4.8151E+03   1.0872E+05  0.000E+00  0.000E+00  0.000E+00  3.83927E+01  1.541E-01  2.000E+01  2.000E+04  2.408E-01
   1    9   30     2     1    5.0000E+04 -5.2839E+02   5.0528E+04  0.000E+00  0.000E+00  0.000E+00  4.02412E+01  1.162E-01  2.000E+01  2.000E+04 -2.642E-02
   1    9   29     2     2    5.0528E+04 -8.0969E+02   5.1338E+04  0.000E+00  0.000E+00  0.000E+00  3.99922E+01  1.172E-01  2.000E+01  2.000E+04 -4.048E-02
   1    9   28     2     3    5.1338E+04 -1.0182E+03   5.2356E+04  0.000E+00  0.000E+00  0.000E+00  3.97434E+01  1.184E-01  2.000E+01  2.000E+04 -5.091E-02
   1    9   27     2     4    5.2356E+04 -1.9997E+03   5.4356E+04  0.000E+00  0.000E+00  0.000E+00  3.94955E+01  1.205E-01  2.000E+01  2.000E+04 -9.998E-02
   1   10   26     2     5    5.4356E+04 -1.2685E+03   5.5624E+04  0.000E+00  0.000E+00  0.000E+00  3.92477E+01  1.227E-01  2.000E+01  2.000E+04 -6.342E-02
   1   11   25     2     6    5.5624E+04 -1.0838E+03   5.6708E+04  0.000E+00  0.000E+00  0.000E+00  3.89992E+01  1.242E-01  2.000E+01  2.000E+04 -5.419E-02
   1   12   24     2     7    5.6708E+04 -1.1489E+03   5.7857E+04  0.000E+00  0.000E+00  0.000E+00  3.87507E+01  1.257E-01  2.000E+01  2.000E+04 -5.744E-02
   1   13   23     2     8    5.7857E+04 -2.0290E+02   5.8060E+04  0.000E+00  0.000E+00  0.000E+00  3.85016E+01  1.266E-01  2.000E+01  2.000E+04 -1.015E-02
   1   14   22     2     9    5.8060E+04  1.9691E+03   5.6091E+04  0.000E+00  0.000E+00  0.000E+00  3.82504E+01  1.254E-01  2.000E+01  2.000E+04  9.845E-02
   1   14   22     3     1    1.6481E+05 -8.6381E+03   1.7345E+05  0.000E+00  0.000E+00  0.000E+00  3.77201E+01  1.645E-01  2.000E+01  2.000E+04 -4.319E-01
   1   15   23     3     2    1.7345E+05 -5.1190E+02   1.7396E+05  0.000E+00  0.000E+00  0.000E+00  3.68338E+01  1.672E-01  2.000E+01  2.000E+04 -2.559E-02
   1   15   24     3     3    1.7396E+05 -2.7546E+02   1.7424E+05  0.000E+00  0.000E+00  0.000E+00  3.59452E+01  1.674E-01  2.000E+01  2.000E+04 -1.377E-02
   1   15   25     3     4    1.7424E+05 -2.7052E+02   1.7451E+05  0.000E+00  0.000E+00  0.000E+00  3.50565E+01  1.676E-01  2.000E+01  2.000E+04 -1.353E-02
   1   15   26     3     5    1.7451E+05 -3.3055E+02   1.7484E+05  0.000E+00  0.000E+00  0.000E+00  3.41677E+01  1.677E-01  2.000E+01  2.000E+04 -1.653E-02
   1   16   27     3     6    1.7484E+05 -3.5981E+02   1.7520E+05  0.000E+00  0.000E+00  0.000E+00  3.32790E+01  1.679E-01  2.000E+01  2.000E+04 -1.799E-02
   1   17   28     3     7    1.7520E+05 -1.5364E+03   1.7673E+05  0.000E+00  0.000E+00  0.000E+00  3.23907E+01  1.685E-01  2.000E+01  2.000E+04 -7.682E-02
   1   18   29     3     8    1.7673E+05 -2.8549E+03   1.7959E+05  0.000E+00  0.000E+00  0.000E+00  3.15031E+01  1.697E-01  2.000E+01  2.000E+04 -1.427E-01
   1   18   30     3     9    1.7959E+05 -3.1510E+03   1.8274E+05  0.000E+00  0.000E+00  0.000E+00  3.06159E+01  1.715E-01  2.000E+01  2.000E+04 -1.576E-01



1
              HEAD IN LAYER   1 AT END OF TIME STEP   1 IN STRESS PERIOD   12
  ---------------------------------------------------------------------------

          1      2      3      4      5      6      7      8      9     10
         11     12     13     14     15     16     17     18     19     20
         21     22     23     24     25     26     27     28     29     30
 .........................................................................
   1  ****** ****** ****** ****** ****** ****** ****** ****** ****** ******
      ****** ****** ****** ****** ****** ****** ****** ****** ****** ******
      ****** ****** ****** ****** ****** ****** ****** ****** ****** ******
   2  ****** ****** ****** ****** ****** ****** ****** ****** ****** ******
      ****** ****** ****** ****** ****** ****** ****** ****** ****** ******
      ****** ****** ****** ****** ****** ****** ****** ****** ****** ******
   3  ****** ****** ****** ****** ****** ****** ****** ****** ****** ******
      ****** ****** ****** ****** ****** ****** ****** ****** ****** ******
      ****** ****** ****** ****** ****** ****** ****** ****** ****** ******
   4  ****** ****** ****** ****** ****** ****** ****** ****** ****** ******
      ****** ****** ****** ****** ****** ****** ****** ****** ****** ******
      ****** ****** ****** ****** ****** ****** ****** ****** ****** ******
   5  ****** ****** ****** ****** ****** ****** ****** ****** ****** ******
      ****** ****** ****** ****** ****** ****** ****** ****** ****** ******
      ****** ****** ****** ****** ****** ****** ****** ****** ****** ******
   6  ****** ****** ****** ****** ****** ****** ****** ****** ****** ******
      ****** ****** ****** ****** ****** ****** ****** ****** ****** ******
      ****** ****** ****** ****** ****** ****** ****** ****** ****** ******
   7  ****** ****** ****** ****** ****** ****** ****** ****** ****** ******
      ****** ****** ****** ****** ****** ****** ****** ****** ****** ******
      ****** ****** ****** ****** ****** ****** ****** ****** ****** ******
   8  ****** ****** ****** ****** ****** ****** ****** ****** ****** ******
      ****** ****** ****** ****** ****** ****** ****** ****** ****** ******
      ****** ****** ****** ****** ****** ****** ****** ****** ****** ******
   9  ****** ****** ****** ****** ****** ****** ****** ****** ****** ******
      ****** ****** ****** ****** ****** ****** ****** ****** ****** ******
      ****** ****** ****** ****** ****** ****** ****** ****** ****** ******
  10  ****** ****** ****** ****** ****** ****** ****** ****** ****** ******
      ****** ****** ****** ****** ****** ****** ****** ****** ****** ******
      ****** ****** ****** ****** ****** ****** ****** ****** ****** ******
  11  ****** ****** ****** ****** ****** ****** ****** ****** ****** ******
      ****** ****** ****** ****** ****** ****** ****** ****** ****** ******
      ****** ****** ****** ****** ****** ****** ****** ****** ****** ******
  12  ****** ****** ****** ****** ****** ****** ****** ****** ****** ******
      ****** ****** ****** ****** ****** ****** ****** ****** ****** ******
      ****** ****** ****** ****** ****** ****** ****** ****** ****** ******
  13  ****** ****** ****** ****** ****** ****** ****** ****** ****** ******
      ****** ****** ****** ****** ****** ****** ****** ****** ****** ******
      ****** ****** ****** ****** ****** ****** ****** ****** ****** ******
  14  ****** ****** ****** ****** ****** ****** ****** ****** ****** ******
      ****** ****** ****** ****** ****** ****** ****** ****** ****** ******
      ****** ****** ****** ****** ****** ****** ****** ****** ****** ******
  15  ****** ****** ****** ****** ****** ****** ****** ****** ****** ******
      ****** ****** ****** ****** ****** ****** ****** ****** ****** ******
      ****** ****** ****** ****** ****** ****** ****** ****** ****** ******
  16  ****** ****** ****** ****** ****** ****** ****** ****** ****** ******
      ****** ****** ****** ****** ****** ****** ****** ****** ****** ******
      ****** ****** ****** ****** ****** ****** ****** ****** ****** ******
  17  ****** ****** ****** ****** ****** ****** ****** ****** ****** ******
      ****** ****** ****** ****** ****** ****** ****** ****** ****** ******
      ****** ****** ****** ****** ****** ****** ****** ****** ****** ******
  18  ****** ****** ****** ****** ****** ****** ****** ****** ****** ******
      ****** ****** ****** ****** ****** ****** ****** ****** ****** ******
      ****** ****** ****** ****** ****** ****** ****** ****** ****** ******
  19  ****** ****** ****** ****** ****** ****** ****** ****** ****** ******
      ****** ****** ****** ****** ****** ****** ****** ****** ****** ******
      ****** ****** ****** ****** ****** ****** ****** ****** ****** ******
  20  ****** ****** ****** ****** ****** ****** ****** ****** ****** ******
      ****** ****** ****** ****** ****** ****** ****** ****** ****** ******
      ****** ****** ****** ****** ****** ****** ****** ****** ****** ******
  21  ****** ****** ****** ****** ****** ****** ****** ****** ****** ******
      ****** ****** ****** ****** ****** ****** ****** ****** ****** ******
      ****** ****** ****** ****** ****** ****** ****** ****** ****** ******
  22  ****** ****** ****** ****** ****** ****** ****** ****** ****** ******
      ****** ****** ****** ****** ****** ****** ****** ****** ****** ******
      ****** ****** ****** ****** ****** ****** ****** ****** ****** ******
  23  ****** ****** ****** ****** ****** ****** ****** ****** ****** ******
      ****** ****** ****** ****** ****** ****** ****** ****** ****** ******
      ****** ****** ****** ****** ****** ****** ****** ****** ****** ******
  24  ****** ****** ****** ****** ****** ****** ****** ****** ****** ******
      ****** ****** ****** ****** ****** ****** ****** ****** ****** ******
      ****** ****** ****** ****** ****** ****** ****** ****** ****** ******
  25  ****** ****** ****** ****** ****** ****** ****** ****** ****** ******
      ****** ****** ****** ****** ****** ****** ****** ****** ****** ******
      ****** ****** ****** ****** ****** ****** ****** ****** ****** ******

 HEAD WILL BE SAVED ON UNIT   51 AT END OF TIME STEP    1, STRESS PERIOD   12
1
  VOLUMETRIC BUDGET FOR ENTIRE MODEL AT END OF TIME STEP    1, STRESS PERIOD  12
  ------------------------------------------------------------------------------

     CUMULATIVE VOLUMES      L**3       RATES FOR THIS TIME STEP      L**3/T
     ------------------                 ------------------------

           IN:                                      IN:
           ---                                      ---
             STORAGE =    36951490.9585               STORAGE =          89.5167
       CONSTANT HEAD =    33588439.6201         CONSTANT HEAD =       36334.1957
               WELLS =           0.0000                 WELLS =           0.0000
            RECHARGE =    26413200.0000              RECHARGE =       27600.0000
      STREAM LEAKAGE =     9428077.9065        STREAM LEAKAGE =       10074.7381

            TOTAL IN =   106381208.4851              TOTAL IN =       74098.4505

          OUT:                                     OUT:
          ----                                     ----
             STORAGE =     2486470.1626               STORAGE =        2861.2233
       CONSTANT HEAD =           0.0000         CONSTANT HEAD =           0.0000
               WELLS =    31123796.9400                 WELLS =       28423.5588
            RECHARGE =           0.0000              RECHARGE =           0.0000
      STREAM LEAKAGE =    72770943.4790        STREAM LEAKAGE =       42813.6674

           TOTAL OUT =   106381210.5816             TOTAL OUT =       74098.4496

            IN - OUT =          -2.0965              IN - OUT =       9.1911E-04

 PERCENT DISCREPANCY =          -0.00     PERCENT DISCREPANCY =           0.00






         TIME SUMMARY AT END OF TIME STEP    1 IN STRESS PERIOD   12
                    SECONDS     MINUTES      HOURS       DAYS        YEARS
                    -----------------------------------------------------------
   TIME STEP LENGTH 7.86240E+06 1.31040E+05  2184.0      91.000     0.24914    
 STRESS PERIOD TIME 7.86240E+06 1.31040E+05  2184.0      91.000     0.24914    
         TOTAL TIME 9.46080E+07 1.57680E+06  26280.      1095.0      2.9979    
1

 Run end date and time (yyyy/mm/dd hh:mm:ss): 2019/08/06 18:39:10
 Elapsed run time:  0.036 Seconds

