                                  MODFLOW-2005     
      U.S. GEOLOGICAL SURVEY MODULAR FINITE-DIFFERENCE GROUND-WATER FLOW MODEL
                            VERSION 1.11.00 8/8/2013

 LIST FILE: supply2.lst
                         UNIT   10

 OPENING ..\data\supply.dis
 FILE TYPE:DIS   UNIT   11   STATUS:OLD    
 FORMAT:FORMATTED              ACCESS:SEQUENTIAL          

 OPENING ..\data\supply.ba6
 FILE TYPE:BAS6   UNIT   12   STATUS:OLD    
 FORMAT:FORMATTED              ACCESS:SEQUENTIAL          

 OPENING ..\data\supply_het.bc6
 FILE TYPE:BCF6   UNIT   13   STATUS:OLD    
 FORMAT:FORMATTED              ACCESS:SEQUENTIAL          

 OPENING ..\data\supply.rch
 FILE TYPE:RCH   UNIT   15   STATUS:OLD    
 FORMAT:FORMATTED              ACCESS:SEQUENTIAL          

 OPENING ..\data\supply2.sfr
 FILE TYPE:SFR   UNIT   16   STATUS:OLD    
 FORMAT:FORMATTED              ACCESS:SEQUENTIAL          

 OPENING ..\data\supply.oc
 FILE TYPE:OC   UNIT   17   STATUS:OLD    
 FORMAT:FORMATTED              ACCESS:SEQUENTIAL          

 OPENING ..\data\supply.pcg
 FILE TYPE:PCG   UNIT   18   STATUS:OLD    
 FORMAT:FORMATTED              ACCESS:SEQUENTIAL          

 OPENING supply2.wel
 FILE TYPE:WEL   UNIT   19   STATUS:OLD    
 FORMAT:FORMATTED              ACCESS:SEQUENTIAL          

 OPENING supply2sf.cbc
 FILE TYPE:DATA(BINARY)   UNIT   50   STATUS:UNKNOWN
 FORMAT:BINARY                 ACCESS:SEQUENTIAL          

 OPENING supply2hd.bhd
 FILE TYPE:DATA(BINARY)   UNIT   51   STATUS:UNKNOWN
 FORMAT:BINARY                 ACCESS:SEQUENTIAL          

 BAS -- BASIC PACKAGE, VERSION 7, 5/2/2005 INPUT READ FROM UNIT   12
 
 MODFLOW was compiled using uniform precision
 Precision of REAL and DOUBLE PRECISION variables:          15

 DISCRETIZATION INPUT DATA READ FROM UNIT   11
    1 LAYERS        25 ROWS        30 COLUMNS
   12 STRESS PERIOD(S) IN SIMULATION
 MODEL TIME UNIT IS DAYS
 MODEL LENGTH UNIT IS UNDEFINED
  Confining bed flag for each layer:
   0

                     DELR =   200.000    

                     DELC =   200.000    

 TOP ELEVATION OF LAYER 1 =  100.0000    

   MODEL LAYER BOTTOM EL. =   0.00000     FOR LAYER   1


 STRESS PERIOD     LENGTH       TIME STEPS     MULTIPLIER FOR DELT    SS FLAG
 ----------------------------------------------------------------------------
        1         92.00000          1                    1.500         TR
        2         91.00000          1                    1.500         TR
        3         91.00000          1                    1.500         TR
        4         91.00000          1                    1.500         TR
        5         92.00000          1                    1.500         TR
        6         91.00000          1                    1.500         TR
        7         91.00000          1                    1.500         TR
        8         91.00000          1                    1.500         TR
        9         92.00000          1                    1.500         TR
       10         91.00000          1                    1.500         TR
       11         91.00000          1                    1.500         TR
       12         91.00000          1                    1.500         TR

 TRANSIENT SIMULATION



 
 #MODOFC transient water supply sample problem                                   
 #                                                                               
 THE FREE FORMAT OPTION HAS BEEN SELECTED



                     BOUNDARY ARRAY FOR LAYER   1
 READING ON UNIT   12 WITH FORMAT: (20I4)              

 AQUIFER HEAD WILL BE SET TO   0.0000     AT ALL NO-FLOW NODES (IBOUND=0).



                       INITIAL HEAD FOR LAYER   1
 READING ON UNIT   12 WITH FORMAT: (10F13.0)           

 OUTPUT CONTROL IS SPECIFIED ONLY AT TIME STEPS FOR WHICH OUTPUT IS DESIRED
 COMPACT CELL-BY-CELL BUDGET FILES WILL BE WRITTEN
 HEAD PRINT FORMAT CODE IS  18    DRAWDOWN PRINT FORMAT CODE IS   0
 HEADS WILL BE SAVED ON UNIT   51    DRAWDOWNS WILL BE SAVED ON UNIT    0

 BCF -- BLOCK-CENTERED FLOW PACKAGE, VERSION 7, 5/2/2005
         INPUT READ FROM UNIT 13
 TRANSIENT SIMULATION
 HEAD AT CELLS THAT CONVERT TO DRY=   0.0000    
 WETTING CAPABILITY IS NOT ACTIVE
      LAYER  LAYER-TYPE CODE     INTERBLOCK T
      --------------------------------------------
         1            0          0 -- HARMONIC    

 COLUMN TO ROW ANISOTROPY =  1.000000    

     PRIMARY STORAGE COEF =  5.000000E-02 FOR LAYER   1



               TRANSMIS. ALONG ROWS FOR LAYER   1
 READING ON UNIT   13 WITH FORMAT: (FREE)              

 WEL -- WELL PACKAGE, VERSION 7, 5/2/2005 INPUT READ FROM UNIT   19
 # Well package input file written by MMProc
 No named parameters
 MAXIMUM OF      8 ACTIVE WELLS AT ONE TIME


     0 Well parameters

 RCH -- RECHARGE PACKAGE, VERSION 7, 5/2/2005 INPUT READ FROM UNIT   15
 No named parameters
 OPTION 1 -- RECHARGE TO TOP LAYER


     0 Recharge parameters

 SFR7 -- STREAMFLOW ROUTING PACKAGE, VERSION 1.0.7, 2013-01-15
         INPUT READ FROM UNIT  16
 #  Supply2 test problem for GWM-VI
 #  The eighth entry in the first data line is ISTCB2 -
 #    Setting this to a negative number indicates that
 #    streamflows out of the reach will be saved to a
 #    binary file.  The absolute value of ISTCB2 is the
 #    unit to which unformatted flows will be written.
 #
 No named parameters
 Segment information will not be 
 read by reach
 No named parameters
 No specifed inflow files


 NUMBER OF STREAM REACHES IS   40

 NUMBER OF STREAM SEGMENTS IS    3

 NUMBER OF STREAM PARAMETERS IS    0

 NUMBER OF STREAM SEGMENTS DEFINED USING PARAMETERS IS              0

 MAXIMUM ERROR FOR STREAM LEAKAGE RATES IS  1.00E-04

 CONSTANT FOR MANNINGS EQUATION IS  1.2839E+05





   STREAM NETWORK DESCRIPTION: 

   LAYER    ROW    COL   SEGMENT   REACH     LENGTH
                          NUMBER   NUMBER    IN CELL        
   --------------------------------------------------
      1     13      1       1        1    2.0000E+02
      1     13      2       1        2    2.0000E+02
      1     14      3       1        3    2.0000E+02
      1     15      4       1        4    2.0000E+02
      1     16      5       1        5    2.0000E+02
      1     16      6       1        6    2.0000E+02
      1     16      7       1        7    2.0000E+02
      1     16      8       1        8    2.0000E+02
      1     16      9       1        9    2.0000E+02
      1     16     10       1       10    2.0000E+02
      1     16     11       1       11    2.0000E+02
      1     16     12       1       12    2.0000E+02
      1     15     13       1       13    2.0000E+02
      1     14     14       1       14    2.0000E+02
      1     13     15       1       15    2.0000E+02
      1     12     16       1       16    2.0000E+02
      1     12     17       1       17    2.0000E+02
      1     12     18       1       18    2.0000E+02
      1     12     19       1       19    2.0000E+02
      1     13     20       1       20    2.0000E+02
      1     14     21       1       21    2.0000E+02
      1     14     22       1       22    2.0000E+02
      1      9     30       2        1    2.0000E+02
      1      9     29       2        2    2.0000E+02
      1      9     28       2        3    2.0000E+02
      1      9     27       2        4    2.0000E+02
      1     10     26       2        5    2.0000E+02
      1     11     25       2        6    2.0000E+02
      1     12     24       2        7    2.0000E+02
      1     13     23       2        8    2.0000E+02
      1     14     22       2        9    2.0000E+02
      1     14     22       3        1    2.0000E+02
      1     15     23       3        2    2.0000E+02
      1     15     24       3        3    2.0000E+02
      1     15     25       3        4    2.0000E+02
      1     15     26       3        5    2.0000E+02
      1     16     27       3        6    2.0000E+02
      1     17     28       3        7    2.0000E+02
      1     18     29       3        8    2.0000E+02
      1     18     30       3        9    2.0000E+02




 PCG -- CONJUGATE-GRADIENT SOLUTION PACKAGE, VERSION 7, 5/2/2005
 MAXIMUM OF    500 CALLS OF SOLUTION ROUTINE
 MAXIMUM OF      5 INTERNAL ITERATIONS PER CALL TO SOLUTION ROUTINE
 MATRIX PRECONDITIONING TYPE :    1



                                    SOLUTION BY THE CONJUGATE-GRADIENT METHOD
                                   -------------------------------------------
                    MAXIMUM NUMBER OF CALLS TO PCG ROUTINE =      500
                        MAXIMUM ITERATIONS PER CALL TO PCG =        5
                               MATRIX PRECONDITIONING TYPE =        1
        RELAXATION FACTOR (ONLY USED WITH PRECOND. TYPE 1) =    0.10000E+01
 PARAMETER OF POLYNOMIAL PRECOND. = 2 (2) OR IS CALCULATED :        0
                         HEAD CHANGE CRITERION FOR CLOSURE =    0.10000E-05
                     RESIDUAL CHANGE CRITERION FOR CLOSURE =    0.10000E+01
            PCG HEAD AND RESIDUAL CHANGE PRINTOUT INTERVAL =        1
     PRINTING FROM SOLVER IS LIMITED(1) OR SUPPRESSED (>1) =        1
                            STEADY-STATE DAMPING PARAMETER =    0.10000E+01
                               TRANSIENT DAMPING PARAMETER =    0.10000E+01
1
                            STRESS PERIOD NO.    1, LENGTH =   92.00000    
                            -----------------------------------------------

                              NUMBER OF TIME STEPS =     1

                               MULTIPLIER FOR DELT =     1.500

                            INITIAL TIME STEP SIZE =   92.00000    

 WELL NO.  LAYER   ROW   COL   STRESS RATE         
 --------------------------------------------------
      1      1     14      6       0.000    
      2      1      3      9       0.000    
      3      1     20     10       0.000    
      4      1     14     20       0.000    
      5      1     10     24     -0.1045E+05
      6      1      7      8      -7751.    
      7      1      5     20      -7335.    
      8      1     11     21      -9620.    

      8 WELLS

                 RECHARGE =  5.000000E-04



 CLASSIFICATION & COUNT OF STREAM SEGMENTS BASED ON SOURCE OF INFLOW:

                HEADWATER     DIVERSION     RECEIVES TRIBUTARY FLOW
                ---------     ---------     -----------------------
                     2              0               1



                    INPUT DATA FOR EACH STREAM SEGMENT
 ---------------------------------------------------------------------------------------------

 SEGMENT    SEG.     INFLOW   OVERLAND   STREAM    STREAM   ICALC  OUTFLOW  DIVERSION PRIORITY
    NO.    LENGTH     RATE     RUNOFF      ET       PPT.    METH.  TO SEG.  FROM SEG.    NO.

      1  4.400E+03 1.000E+05 0.000E+00 0.000E+00 0.000E+00    1        3        0        0
      2  1.800E+03 5.000E+04 0.000E+00 0.000E+00 0.000E+00    1        3        0        0
      3  1.800E+03 0.000E+00 0.000E+00 0.000E+00 0.000E+00    1        0        0        0


         STREAMBED PROPERTIES AND STREAM DIMENSIONS

 SEGMENT     BED HYD. COND.      BED THICKNESS     ELEV.-TOP OF BED     WIDTH OF STREAM     DEPTH OF STREAM    STREAM ROUGHNESS
    No.     UPPER     LOWER     UPPER     LOWER     UPPER     LOWER     UPPER     LOWER     UPPER     LOWER   CHANNEL      BANK

     1  5.000E+00 5.000E+00 1.000E+00 1.000E+00 4.850E+01 3.800E+01 2.000E+01 2.000E+01                     5.000E-02
     2  5.000E+00 5.000E+00 1.000E+00 1.000E+00 4.025E+01 3.800E+01 2.000E+01 2.000E+01                     5.000E-02
     3  5.000E+00 5.000E+00 1.000E+00 1.000E+00 3.800E+01 3.000E+01 2.000E+01 2.000E+01                     5.000E-02



 
 SOLVING FOR HEAD 


     9 CALLS TO PCG ROUTINE FOR TIME STEP   1 IN STRESS PERIOD    1
    36 TOTAL ITERATIONS

 OUTPUT CONTROL FOR STRESS PERIOD    1   TIME STEP    1
    SAVE BUDGET
    SAVE HEAD FOR ALL LAYERS
    PRINT HEAD FOR ALL LAYERS
 UBDSV2 SAVING "STREAMFLOW OUT  " ON UNIT  50 AT TIME STEP  1, STRESS PERIOD   1



 STREAM LISTING     PERIOD      1   STEP        1

 LAYER ROW COL. STREAM  RCH.  FLOW INTO     FLOW TO   FLOW OUT OF   OVRLND.     DIRECT     STREAM       STREAM     STREAM     STREAM   STREAMBED  STREAMBED
                SEG.NO.  NO.  STRM. RCH.    AQUIFER    STRM. RCH.    RUNOFF     PRECIP       ET          HEAD       DEPTH      WIDTH   CONDCTNC.   GRADIENT

   1   13    1     1     1    1.0000E+05 -6.0086E+03   1.0601E+05  0.000E+00  0.000E+00  0.000E+00  4.84086E+01  1.472E-01  2.000E+01  2.000E+04 -3.004E-01
   1   13    2     1     2    1.0601E+05 -7.4731E+03   1.1348E+05  0.000E+00  0.000E+00  0.000E+00  4.79370E+01  1.530E-01  2.000E+01  2.000E+04 -3.737E-01
   1   14    3     1     3    1.1348E+05 -2.1932E+03   1.1567E+05  0.000E+00  0.000E+00  0.000E+00  4.74638E+01  1.570E-01  2.000E+01  2.000E+04 -1.097E-01
   1   15    4     1     4    1.1567E+05 -2.2675E+03   1.1794E+05  0.000E+00  0.000E+00  0.000E+00  4.69883E+01  1.588E-01  2.000E+01  2.000E+04 -1.134E-01
   1   16    5     1     5    1.1794E+05 -7.1853E+03   1.2513E+05  0.000E+00  0.000E+00  0.000E+00  4.65149E+01  1.626E-01  2.000E+01  2.000E+04 -3.593E-01
   1   16    6     1     6    1.2513E+05 -4.3031E+03   1.2943E+05  0.000E+00  0.000E+00  0.000E+00  4.60422E+01  1.672E-01  2.000E+01  2.000E+04 -2.152E-01
   1   16    7     1     7    1.2943E+05 -4.1382E+03   1.3357E+05  0.000E+00  0.000E+00  0.000E+00  4.55682E+01  1.705E-01  2.000E+01  2.000E+04 -2.069E-01
   1   16    8     1     8    1.3357E+05 -4.0979E+03   1.3767E+05  0.000E+00  0.000E+00  0.000E+00  4.50941E+01  1.737E-01  2.000E+01  2.000E+04 -2.049E-01
   1   16    9     1     9    1.3767E+05 -4.0883E+03   1.4176E+05  0.000E+00  0.000E+00  0.000E+00  4.46200E+01  1.768E-01  2.000E+01  2.000E+04 -2.044E-01
   1   16   10     1    10    1.4176E+05 -4.0870E+03   1.4584E+05  0.000E+00  0.000E+00  0.000E+00  4.41458E+01  1.799E-01  2.000E+01  2.000E+04 -2.044E-01
   1   16   11     1    11    1.4584E+05 -4.1242E+03   1.4997E+05  0.000E+00  0.000E+00  0.000E+00  4.36716E+01  1.829E-01  2.000E+01  2.000E+04 -2.062E-01
   1   16   12     1    12    1.4997E+05 -7.0000E+03   1.5697E+05  0.000E+00  0.000E+00  0.000E+00  4.31984E+01  1.870E-01  2.000E+01  2.000E+04 -3.500E-01
   1   15   13     1    13    1.5697E+05 -7.2748E+03   1.6424E+05  0.000E+00  0.000E+00  0.000E+00  4.27263E+01  1.922E-01  2.000E+01  2.000E+04 -3.637E-01
   1   14   14     1    14    1.6424E+05 -7.7196E+03   1.7196E+05  0.000E+00  0.000E+00  0.000E+00  4.22544E+01  1.975E-01  2.000E+01  2.000E+04 -3.860E-01
   1   13   15     1    15    1.7196E+05 -7.9841E+03   1.7994E+05  0.000E+00  0.000E+00  0.000E+00  4.17826E+01  2.030E-01  2.000E+01  2.000E+04 -3.992E-01
   1   12   16     1    16    1.7994E+05 -8.4049E+03   1.8835E+05  0.000E+00  0.000E+00  0.000E+00  4.13109E+01  2.087E-01  2.000E+01  2.000E+04 -4.202E-01
   1   12   17     1    17    1.8835E+05 -5.8833E+03   1.9423E+05  0.000E+00  0.000E+00  0.000E+00  4.08385E+01  2.135E-01  2.000E+01  2.000E+04 -2.942E-01
   1   12   18     1    18    1.9423E+05 -5.5059E+03   1.9974E+05  0.000E+00  0.000E+00  0.000E+00  4.03650E+01  2.173E-01  2.000E+01  2.000E+04 -2.753E-01
   1   12   19     1    19    1.9974E+05 -5.6768E+03   2.0542E+05  0.000E+00  0.000E+00  0.000E+00  3.98914E+01  2.209E-01  2.000E+01  2.000E+04 -2.838E-01
   1   13   20     1    20    2.0542E+05 -5.1329E+03   2.1055E+05  0.000E+00  0.000E+00  0.000E+00  3.94176E+01  2.245E-01  2.000E+01  2.000E+04 -2.566E-01
   1   14   21     1    21    2.1055E+05 -5.7504E+03   2.1630E+05  0.000E+00  0.000E+00  0.000E+00  3.89439E+01  2.280E-01  2.000E+01  2.000E+04 -2.875E-01
   1   14   22     1    22    2.1630E+05  3.9641E+03   2.1234E+05  0.000E+00  0.000E+00  0.000E+00  3.84672E+01  2.285E-01  2.000E+01  2.000E+04  1.982E-01
   1    9   30     2     1    5.0000E+04 -4.7228E+03   5.4723E+04  0.000E+00  0.000E+00  0.000E+00  4.02441E+01  1.191E-01  2.000E+01  2.000E+04 -2.361E-01
   1    9   29     2     2    5.4723E+04 -4.9880E+03   5.9711E+04  0.000E+00  0.000E+00  0.000E+00  4.00006E+01  1.256E-01  2.000E+01  2.000E+04 -2.494E-01
   1    9   28     2     3    5.9711E+04 -5.1848E+03   6.4896E+04  0.000E+00  0.000E+00  0.000E+00  3.97572E+01  1.322E-01  2.000E+01  2.000E+04 -2.592E-01
   1    9   27     2     4    6.4896E+04 -7.3522E+03   7.2248E+04  0.000E+00  0.000E+00  0.000E+00  3.95150E+01  1.400E-01  2.000E+01  2.000E+04 -3.676E-01
   1   10   26     2     5    7.2248E+04 -5.2362E+03   7.7484E+04  0.000E+00  0.000E+00  0.000E+00  3.92726E+01  1.476E-01  2.000E+01  2.000E+04 -2.618E-01
   1   11   25     2     6    7.7484E+04 -3.5767E+03   8.1061E+04  0.000E+00  0.000E+00  0.000E+00  3.90278E+01  1.528E-01  2.000E+01  2.000E+04 -1.788E-01
   1   12   24     2     7    8.1061E+04 -3.4092E+03   8.4470E+04  0.000E+00  0.000E+00  0.000E+00  3.87818E+01  1.568E-01  2.000E+01  2.000E+04 -1.705E-01
   1   13   23     2     8    8.4470E+04 -1.2868E+03   8.5757E+04  0.000E+00  0.000E+00  0.000E+00  3.85344E+01  1.594E-01  2.000E+01  2.000E+04 -6.434E-02
   1   14   22     2     9    8.5757E+04  3.2005E+02   8.5437E+04  0.000E+00  0.000E+00  0.000E+00  3.82850E+01  1.600E-01  2.000E+01  2.000E+04  1.600E-02
   1   14   22     3     1    2.9777E+05 -9.6035E+03   3.0738E+05  0.000E+00  0.000E+00  0.000E+00  3.77888E+01  2.332E-01  2.000E+01  2.000E+04 -4.802E-01
   1   15   23     3     2    3.0738E+05 -1.9876E+03   3.0936E+05  0.000E+00  0.000E+00  0.000E+00  3.69026E+01  2.359E-01  2.000E+01  2.000E+04 -9.938E-02
   1   15   24     3     3    3.0936E+05 -1.5290E+03   3.1089E+05  0.000E+00  0.000E+00  0.000E+00  3.60145E+01  2.367E-01  2.000E+01  2.000E+04 -7.645E-02
   1   15   25     3     4    3.1089E+05 -1.5784E+03   3.1247E+05  0.000E+00  0.000E+00  0.000E+00  3.51263E+01  2.374E-01  2.000E+01  2.000E+04 -7.892E-02
   1   15   26     3     5    3.1247E+05 -1.8817E+03   3.1435E+05  0.000E+00  0.000E+00  0.000E+00  3.42382E+01  2.382E-01  2.000E+01  2.000E+04 -9.408E-02
   1   16   27     3     6    3.1435E+05 -2.1641E+03   3.1652E+05  0.000E+00  0.000E+00  0.000E+00  3.33502E+01  2.391E-01  2.000E+01  2.000E+04 -1.082E-01
   1   17   28     3     7    3.1652E+05 -6.5777E+03   3.2309E+05  0.000E+00  0.000E+00  0.000E+00  3.24633E+01  2.411E-01  2.000E+01  2.000E+04 -3.289E-01
   1   18   29     3     8    3.2309E+05 -7.9946E+03   3.3109E+05  0.000E+00  0.000E+00  0.000E+00  3.15777E+01  2.444E-01  2.000E+01  2.000E+04 -3.997E-01
   1   18   30     3     9    3.3109E+05 -7.1743E+03   3.3826E+05  0.000E+00  0.000E+00  0.000E+00  3.06922E+01  2.478E-01  2.000E+01  2.000E+04 -3.587E-01



1
              HEAD IN LAYER   1 AT END OF TIME STEP   1 IN STRESS PERIOD    1
  ---------------------------------------------------------------------------

          1      2      3      4      5      6      7      8      9     10
         11     12     13     14     15     16     17     18     19     20
         21     22     23     24     25     26     27     28     29     30
 .........................................................................
   1  ****** ****** ****** ****** ****** ****** ****** ****** ****** ******
      ****** ****** ****** ****** ****** ****** ****** ****** ****** ******
      ****** ****** ****** ****** ****** ****** ****** ****** ****** ******
   2  ****** ****** ****** ****** ****** ****** ****** ****** ****** ******
      ****** ****** ****** ****** ****** ****** ****** ****** ****** ******
      ****** ****** ****** ****** ****** ****** ****** ****** ****** ******
   3  ****** ****** ****** ****** ****** ****** ****** ****** ****** ******
      ****** ****** ****** ****** ****** ****** ****** ****** ****** ******
      ****** ****** ****** ****** ****** ****** ****** ****** ****** ******
   4  ****** ****** ****** ****** ****** ****** ****** ****** ****** ******
      ****** ****** ****** ****** ****** ****** ****** ****** ****** ******
      ****** ****** ****** ****** ****** ****** ****** ****** ****** ******
   5  ****** ****** ****** ****** ****** ****** ****** ****** ****** ******
      ****** ****** ****** ****** ****** ****** ****** ****** ****** ******
      ****** ****** ****** ****** ****** ****** ****** ****** ****** ******
   6  ****** ****** ****** ****** ****** ****** ****** ****** ****** ******
      ****** ****** ****** ****** ****** ****** ****** ****** ****** ******
      ****** ****** ****** ****** ****** ****** ****** ****** ****** ******
   7  ****** ****** ****** ****** ****** ****** ****** ****** ****** ******
      ****** ****** ****** ****** ****** ****** ****** ****** ****** ******
      ****** ****** ****** ****** ****** ****** ****** ****** ****** ******
   8  ****** ****** ****** ****** ****** ****** ****** ****** ****** ******
      ****** ****** ****** ****** ****** ****** ****** ****** ****** ******
      ****** ****** ****** ****** ****** ****** ****** ****** ****** ******
   9  ****** ****** ****** ****** ****** ****** ****** ****** ****** ******
      ****** ****** ****** ****** ****** ****** ****** ****** ****** ******
      ****** ****** ****** ****** ****** ****** ****** ****** ****** ******
  10  ****** ****** ****** ****** ****** ****** ****** ****** ****** ******
      ****** ****** ****** ****** ****** ****** ****** ****** ****** ******
      ****** ****** ****** ****** ****** ****** ****** ****** ****** ******
  11  ****** ****** ****** ****** ****** ****** ****** ****** ****** ******
      ****** ****** ****** ****** ****** ****** ****** ****** ****** ******
      ****** ****** ****** ****** ****** ****** ****** ****** ****** ******
  12  ****** ****** ****** ****** ****** ****** ****** ****** ****** ******
      ****** ****** ****** ****** ****** ****** ****** ****** ****** ******
      ****** ****** ****** ****** ****** ****** ****** ****** ****** ******
  13  ****** ****** ****** ****** ****** ****** ****** ****** ****** ******
      ****** ****** ****** ****** ****** ****** ****** ****** ****** ******
      ****** ****** ****** ****** ****** ****** ****** ****** ****** ******
  14  ****** ****** ****** ****** ****** ****** ****** ****** ****** ******
      ****** ****** ****** ****** ****** ****** ****** ****** ****** ******
      ****** ****** ****** ****** ****** ****** ****** ****** ****** ******
  15  ****** ****** ****** ****** ****** ****** ****** ****** ****** ******
      ****** ****** ****** ****** ****** ****** ****** ****** ****** ******
      ****** ****** ****** ****** ****** ****** ****** ****** ****** ******
  16  ****** ****** ****** ****** ****** ****** ****** ****** ****** ******
      ****** ****** ****** ****** ****** ****** ****** ****** ****** ******
      ****** ****** ****** ****** ****** ****** ****** ****** ****** ******
  17  ****** ****** ****** ****** ****** ****** ****** ****** ****** ******
      ****** ****** ****** ****** ****** ****** ****** ****** ****** ******
      ****** ****** ****** ****** ****** ****** ****** ****** ****** ******
  18  ****** ****** ****** ****** ****** ****** ****** ****** ****** ******
      ****** ****** ****** ****** ****** ****** ****** ****** ****** ******
      ****** ****** ****** ****** ****** ****** ****** ****** ****** ******
  19  ****** ****** ****** ****** ****** ****** ****** ****** ****** ******
      ****** ****** ****** ****** ****** ****** ****** ****** ****** ******
      ****** ****** ****** ****** ****** ****** ****** ****** ****** ******
  20  ****** ****** ****** ****** ****** ****** ****** ****** ****** ******
      ****** ****** ****** ****** ****** ****** ****** ****** ****** ******
      ****** ****** ****** ****** ****** ****** ****** ****** ****** ******
  21  ****** ****** ****** ****** ****** ****** ****** ****** ****** ******
      ****** ****** ****** ****** ****** ****** ****** ****** ****** ******
      ****** ****** ****** ****** ****** ****** ****** ****** ****** ******
  22  ****** ****** ****** ****** ****** ****** ****** ****** ****** ******
      ****** ****** ****** ****** ****** ****** ****** ****** ****** ******
      ****** ****** ****** ****** ****** ****** ****** ****** ****** ******
  23  ****** ****** ****** ****** ****** ****** ****** ****** ****** ******
      ****** ****** ****** ****** ****** ****** ****** ****** ****** ******
      ****** ****** ****** ****** ****** ****** ****** ****** ****** ******
  24  ****** ****** ****** ****** ****** ****** ****** ****** ****** ******
      ****** ****** ****** ****** ****** ****** ****** ****** ****** ******
      ****** ****** ****** ****** ****** ****** ****** ****** ****** ******
  25  ****** ****** ****** ****** ****** ****** ****** ****** ****** ******
      ****** ****** ****** ****** ****** ****** ****** ****** ****** ******
      ****** ****** ****** ****** ****** ****** ****** ****** ****** ******

 HEAD WILL BE SAVED ON UNIT   51 AT END OF TIME STEP    1, STRESS PERIOD    1
1
  VOLUMETRIC BUDGET FOR ENTIRE MODEL AT END OF TIME STEP    1, STRESS PERIOD   1
  ------------------------------------------------------------------------------

     CUMULATIVE VOLUMES      L**3       RATES FOR THIS TIME STEP      L**3/T
     ------------------                 ------------------------

           IN:                                      IN:
           ---                                      ---
             STORAGE =    18096161.9556               STORAGE =      196697.4126
       CONSTANT HEAD =     1189275.4059         CONSTANT HEAD =       12926.9066
               WELLS =           0.0000                 WELLS =           0.0000
            RECHARGE =     1269600.0000              RECHARGE =       13800.0000
      STREAM LEAKAGE =      394139.5155        STREAM LEAKAGE =        4284.1252

            TOTAL IN =    20949176.8771              TOTAL IN =      227708.4443

          OUT:                                     OUT:
          ----                                     ----
             STORAGE =           0.0000               STORAGE =           0.0000
       CONSTANT HEAD =           0.0000         CONSTANT HEAD =           0.0000
               WELLS =     3234886.1432                 WELLS =       35161.8059
            RECHARGE =           0.0000              RECHARGE =           0.0000
      STREAM LEAKAGE =    17714291.0201        STREAM LEAKAGE =      192546.6415

           TOTAL OUT =    20949177.1632             TOTAL OUT =      227708.4474

            IN - OUT =          -0.2862              IN - OUT =      -3.1105E-03

 PERCENT DISCREPANCY =          -0.00     PERCENT DISCREPANCY =          -0.00






         TIME SUMMARY AT END OF TIME STEP    1 IN STRESS PERIOD    1
                    SECONDS     MINUTES      HOURS       DAYS        YEARS
                    -----------------------------------------------------------
   TIME STEP LENGTH 7.94880E+06 1.32480E+05  2208.0      92.000     0.25188    
 STRESS PERIOD TIME 7.94880E+06 1.32480E+05  2208.0      92.000     0.25188    
         TOTAL TIME 7.94880E+06 1.32480E+05  2208.0      92.000     0.25188    
1
1
                            STRESS PERIOD NO.    2, LENGTH =   91.00000    
                            -----------------------------------------------

                              NUMBER OF TIME STEPS =     1

                               MULTIPLIER FOR DELT =     1.500

                            INITIAL TIME STEP SIZE =   91.00000    

 WELL NO.  LAYER   ROW   COL   STRESS RATE         
 --------------------------------------------------
      1      1     14      6       0.000    
      2      1      3      9       0.000    
      3      1     20     10       0.000    
      4      1     14     20       0.000    
      5      1     10     24     -0.1045E+05
      6      1      7      8      -7751.    
      7      1      5     20      -7335.    
      8      1     11     21      -9620.    

      8 WELLS

                 RECHARGE =  2.000000E-03

 REUSING STREAM SEGMENT DATA FROM LAST STRESS PERIOD
 
 SOLVING FOR HEAD 


     7 CALLS TO PCG ROUTINE FOR TIME STEP   1 IN STRESS PERIOD    2
    27 TOTAL ITERATIONS

 OUTPUT CONTROL FOR STRESS PERIOD    2   TIME STEP    1
    SAVE BUDGET
    SAVE HEAD FOR ALL LAYERS
    PRINT HEAD FOR ALL LAYERS
 UBDSV2 SAVING "STREAMFLOW OUT  " ON UNIT  50 AT TIME STEP  1, STRESS PERIOD   2



 STREAM LISTING     PERIOD      2   STEP        1

 LAYER ROW COL. STREAM  RCH.  FLOW INTO     FLOW TO   FLOW OUT OF   OVRLND.     DIRECT     STREAM       STREAM     STREAM     STREAM   STREAMBED  STREAMBED
                SEG.NO.  NO.  STRM. RCH.    AQUIFER    STRM. RCH.    RUNOFF     PRECIP       ET          HEAD       DEPTH      WIDTH   CONDCTNC.   GRADIENT

   1   13    1     1     1    1.0000E+05 -3.7555E+03   1.0376E+05  0.000E+00  0.000E+00  0.000E+00  4.84076E+01  1.463E-01  2.000E+01  2.000E+04 -1.878E-01
   1   13    2     1     2    1.0376E+05 -5.0020E+03   1.0876E+05  0.000E+00  0.000E+00  0.000E+00  4.79341E+01  1.500E-01  2.000E+01  2.000E+04 -2.501E-01
   1   14    3     1     3    1.0876E+05 -1.1005E+03   1.0986E+05  0.000E+00  0.000E+00  0.000E+00  4.74594E+01  1.526E-01  2.000E+01  2.000E+04 -5.502E-02
   1   15    4     1     4    1.0986E+05 -1.1356E+03   1.1099E+05  0.000E+00  0.000E+00  0.000E+00  4.69831E+01  1.535E-01  2.000E+01  2.000E+04 -5.678E-02
   1   16    5     1     5    1.1099E+05 -4.2548E+03   1.1525E+05  0.000E+00  0.000E+00  0.000E+00  4.65080E+01  1.558E-01  2.000E+01  2.000E+04 -2.127E-01
   1   16    6     1     6    1.1525E+05 -2.5057E+03   1.1775E+05  0.000E+00  0.000E+00  0.000E+00  4.60335E+01  1.585E-01  2.000E+01  2.000E+04 -1.253E-01
   1   16    7     1     7    1.1775E+05 -2.4117E+03   1.2017E+05  0.000E+00  0.000E+00  0.000E+00  4.55583E+01  1.605E-01  2.000E+01  2.000E+04 -1.206E-01
   1   16    8     1     8    1.2017E+05 -2.3838E+03   1.2255E+05  0.000E+00  0.000E+00  0.000E+00  4.50829E+01  1.625E-01  2.000E+01  2.000E+04 -1.192E-01
   1   16    9     1     9    1.2255E+05 -2.3654E+03   1.2491E+05  0.000E+00  0.000E+00  0.000E+00  4.46075E+01  1.644E-01  2.000E+01  2.000E+04 -1.183E-01
   1   16   10     1    10    1.2491E+05 -2.3443E+03   1.2726E+05  0.000E+00  0.000E+00  0.000E+00  4.41321E+01  1.662E-01  2.000E+01  2.000E+04 -1.172E-01
   1   16   11     1    11    1.2726E+05 -2.3545E+03   1.2961E+05  0.000E+00  0.000E+00  0.000E+00  4.36567E+01  1.681E-01  2.000E+01  2.000E+04 -1.177E-01
   1   16   12     1    12    1.2961E+05 -4.1227E+03   1.3374E+05  0.000E+00  0.000E+00  0.000E+00  4.31820E+01  1.706E-01  2.000E+01  2.000E+04 -2.061E-01
   1   15   13     1    13    1.3374E+05 -4.0086E+03   1.3775E+05  0.000E+00  0.000E+00  0.000E+00  4.27079E+01  1.738E-01  2.000E+01  2.000E+04 -2.004E-01
   1   14   14     1    14    1.3775E+05 -4.2917E+03   1.4204E+05  0.000E+00  0.000E+00  0.000E+00  4.22337E+01  1.769E-01  2.000E+01  2.000E+04 -2.146E-01
   1   13   15     1    15    1.4204E+05 -4.5041E+03   1.4654E+05  0.000E+00  0.000E+00  0.000E+00  4.17598E+01  1.802E-01  2.000E+01  2.000E+04 -2.252E-01
   1   12   16     1    16    1.4654E+05 -4.9807E+03   1.5152E+05  0.000E+00  0.000E+00  0.000E+00  4.12860E+01  1.838E-01  2.000E+01  2.000E+04 -2.490E-01
   1   12   17     1    17    1.5152E+05 -3.1973E+03   1.5472E+05  0.000E+00  0.000E+00  0.000E+00  4.08118E+01  1.868E-01  2.000E+01  2.000E+04 -1.599E-01
   1   12   18     1    18    1.5472E+05 -2.7884E+03   1.5751E+05  0.000E+00  0.000E+00  0.000E+00  4.03367E+01  1.890E-01  2.000E+01  2.000E+04 -1.394E-01
   1   12   19     1    19    1.5751E+05 -2.1270E+03   1.5963E+05  0.000E+00  0.000E+00  0.000E+00  3.98612E+01  1.907E-01  2.000E+01  2.000E+04 -1.063E-01
   1   13   20     1    20    1.5963E+05 -1.7713E+03   1.6141E+05  0.000E+00  0.000E+00  0.000E+00  3.93853E+01  1.922E-01  2.000E+01  2.000E+04 -8.856E-02
   1   14   21     1    21    1.6141E+05 -2.9601E+03   1.6437E+05  0.000E+00  0.000E+00  0.000E+00  3.89098E+01  1.938E-01  2.000E+01  2.000E+04 -1.480E-01
   1   14   22     1    22    1.6437E+05  4.7761E+03   1.5959E+05  0.000E+00  0.000E+00  0.000E+00  3.84318E+01  1.932E-01  2.000E+01  2.000E+04  2.388E-01
   1    9   30     2     1    5.0000E+04 -1.9121E+03   5.1912E+04  0.000E+00  0.000E+00  0.000E+00  4.02422E+01  1.172E-01  2.000E+01  2.000E+04 -9.561E-02
   1    9   29     2     2    5.1912E+04 -2.1789E+03   5.4091E+04  0.000E+00  0.000E+00  0.000E+00  3.99950E+01  1.200E-01  2.000E+01  2.000E+04 -1.089E-01
   1    9   28     2     3    5.4091E+04 -2.3614E+03   5.6452E+04  0.000E+00  0.000E+00  0.000E+00  3.97480E+01  1.230E-01  2.000E+01  2.000E+04 -1.181E-01
   1    9   27     2     4    5.6452E+04 -3.5513E+03   6.0004E+04  0.000E+00  0.000E+00  0.000E+00  3.95020E+01  1.270E-01  2.000E+01  2.000E+04 -1.776E-01
   1   10   26     2     5    6.0004E+04 -1.2709E+03   6.1275E+04  0.000E+00  0.000E+00  0.000E+00  3.92551E+01  1.301E-01  2.000E+01  2.000E+04 -6.355E-02
   1   11   25     2     6    6.1275E+04  2.7893E+02   6.0996E+04  0.000E+00  0.000E+00  0.000E+00  3.90057E+01  1.307E-01  2.000E+01  2.000E+04  1.395E-02
   1   12   24     2     7    6.0996E+04  1.0623E+02   6.0889E+04  0.000E+00  0.000E+00  0.000E+00  3.87555E+01  1.305E-01  2.000E+01  2.000E+04  5.311E-03
   1   13   23     2     8    6.0889E+04 -1.7827E+02   6.1068E+04  0.000E+00  0.000E+00  0.000E+00  3.85055E+01  1.305E-01  2.000E+01  2.000E+04 -8.914E-03
   1   14   22     2     9    6.1068E+04  1.2363E+03   5.9831E+04  0.000E+00  0.000E+00  0.000E+00  3.82548E+01  1.298E-01  2.000E+01  2.000E+04  6.181E-02
   1   14   22     3     1    2.1942E+05 -8.8563E+03   2.2828E+05  0.000E+00  0.000E+00  0.000E+00  3.77502E+01  1.947E-01  2.000E+01  2.000E+04 -4.428E-01
   1   15   23     3     2    2.2828E+05 -1.0534E+03   2.2933E+05  0.000E+00  0.000E+00  0.000E+00  3.68639E+01  1.972E-01  2.000E+01  2.000E+04 -5.267E-02
   1   15   24     3     3    2.2933E+05 -6.6395E+02   2.2999E+05  0.000E+00  0.000E+00  0.000E+00  3.59755E+01  1.977E-01  2.000E+01  2.000E+04 -3.320E-02
   1   15   25     3     4    2.2999E+05 -6.6977E+02   2.3066E+05  0.000E+00  0.000E+00  0.000E+00  3.50869E+01  1.980E-01  2.000E+01  2.000E+04 -3.349E-02
   1   15   26     3     5    2.3066E+05 -7.7104E+02   2.3144E+05  0.000E+00  0.000E+00  0.000E+00  3.41984E+01  1.984E-01  2.000E+01  2.000E+04 -3.855E-02
   1   16   27     3     6    2.3144E+05 -8.9783E+02   2.3233E+05  0.000E+00  0.000E+00  0.000E+00  3.33099E+01  1.988E-01  2.000E+01  2.000E+04 -4.489E-02
   1   17   28     3     7    2.3233E+05 -3.2550E+03   2.3559E+05  0.000E+00  0.000E+00  0.000E+00  3.24221E+01  1.999E-01  2.000E+01  2.000E+04 -1.628E-01
   1   18   29     3     8    2.3559E+05 -5.0574E+03   2.4065E+05  0.000E+00  0.000E+00  0.000E+00  3.15353E+01  2.020E-01  2.000E+01  2.000E+04 -2.529E-01
   1   18   30     3     9    2.4065E+05 -4.6846E+03   2.4533E+05  0.000E+00  0.000E+00  0.000E+00  3.06489E+01  2.045E-01  2.000E+01  2.000E+04 -2.342E-01



1
              HEAD IN LAYER   1 AT END OF TIME STEP   1 IN STRESS PERIOD    2
  ---------------------------------------------------------------------------

          1      2      3      4      5      6      7      8      9     10
         11     12     13     14     15     16     17     18     19     20
         21     22     23     24     25     26     27     28     29     30
 .........................................................................
   1  ****** ****** ****** ****** ****** ****** ****** ****** ****** ******
      ****** ****** ****** ****** ****** ****** ****** ****** ****** ******
      ****** ****** ****** ****** ****** ****** ****** ****** ****** ******
   2  ****** ****** ****** ****** ****** ****** ****** ****** ****** ******
      ****** ****** ****** ****** ****** ****** ****** ****** ****** ******
      ****** ****** ****** ****** ****** ****** ****** ****** ****** ******
   3  ****** ****** ****** ****** ****** ****** ****** ****** ****** ******
      ****** ****** ****** ****** ****** ****** ****** ****** ****** ******
      ****** ****** ****** ****** ****** ****** ****** ****** ****** ******
   4  ****** ****** ****** ****** ****** ****** ****** ****** ****** ******
      ****** ****** ****** ****** ****** ****** ****** ****** ****** ******
      ****** ****** ****** ****** ****** ****** ****** ****** ****** ******
   5  ****** ****** ****** ****** ****** ****** ****** ****** ****** ******
      ****** ****** ****** ****** ****** ****** ****** ****** ****** ******
      ****** ****** ****** ****** ****** ****** ****** ****** ****** ******
   6  ****** ****** ****** ****** ****** ****** ****** ****** ****** ******
      ****** ****** ****** ****** ****** ****** ****** ****** ****** ******
      ****** ****** ****** ****** ****** ****** ****** ****** ****** ******
   7  ****** ****** ****** ****** ****** ****** ****** ****** ****** ******
      ****** ****** ****** ****** ****** ****** ****** ****** ****** ******
      ****** ****** ****** ****** ****** ****** ****** ****** ****** ******
   8  ****** ****** ****** ****** ****** ****** ****** ****** ****** ******
      ****** ****** ****** ****** ****** ****** ****** ****** ****** ******
      ****** ****** ****** ****** ****** ****** ****** ****** ****** ******
   9  ****** ****** ****** ****** ****** ****** ****** ****** ****** ******
      ****** ****** ****** ****** ****** ****** ****** ****** ****** ******
      ****** ****** ****** ****** ****** ****** ****** ****** ****** ******
  10  ****** ****** ****** ****** ****** ****** ****** ****** ****** ******
      ****** ****** ****** ****** ****** ****** ****** ****** ****** ******
      ****** ****** ****** ****** ****** ****** ****** ****** ****** ******
  11  ****** ****** ****** ****** ****** ****** ****** ****** ****** ******
      ****** ****** ****** ****** ****** ****** ****** ****** ****** ******
      ****** ****** ****** ****** ****** ****** ****** ****** ****** ******
  12  ****** ****** ****** ****** ****** ****** ****** ****** ****** ******
      ****** ****** ****** ****** ****** ****** ****** ****** ****** ******
      ****** ****** ****** ****** ****** ****** ****** ****** ****** ******
  13  ****** ****** ****** ****** ****** ****** ****** ****** ****** ******
      ****** ****** ****** ****** ****** ****** ****** ****** ****** ******
      ****** ****** ****** ****** ****** ****** ****** ****** ****** ******
  14  ****** ****** ****** ****** ****** ****** ****** ****** ****** ******
      ****** ****** ****** ****** ****** ****** ****** ****** ****** ******
      ****** ****** ****** ****** ****** ****** ****** ****** ****** ******
  15  ****** ****** ****** ****** ****** ****** ****** ****** ****** ******
      ****** ****** ****** ****** ****** ****** ****** ****** ****** ******
      ****** ****** ****** ****** ****** ****** ****** ****** ****** ******
  16  ****** ****** ****** ****** ****** ****** ****** ****** ****** ******
      ****** ****** ****** ****** ****** ****** ****** ****** ****** ******
      ****** ****** ****** ****** ****** ****** ****** ****** ****** ******
  17  ****** ****** ****** ****** ****** ****** ****** ****** ****** ******
      ****** ****** ****** ****** ****** ****** ****** ****** ****** ******
      ****** ****** ****** ****** ****** ****** ****** ****** ****** ******
  18  ****** ****** ****** ****** ****** ****** ****** ****** ****** ******
      ****** ****** ****** ****** ****** ****** ****** ****** ****** ******
      ****** ****** ****** ****** ****** ****** ****** ****** ****** ******
  19  ****** ****** ****** ****** ****** ****** ****** ****** ****** ******
      ****** ****** ****** ****** ****** ****** ****** ****** ****** ******
      ****** ****** ****** ****** ****** ****** ****** ****** ****** ******
  20  ****** ****** ****** ****** ****** ****** ****** ****** ****** ******
      ****** ****** ****** ****** ****** ****** ****** ****** ****** ******
      ****** ****** ****** ****** ****** ****** ****** ****** ****** ******
  21  ****** ****** ****** ****** ****** ****** ****** ****** ****** ******
      ****** ****** ****** ****** ****** ****** ****** ****** ****** ******
      ****** ****** ****** ****** ****** ****** ****** ****** ****** ******
  22  ****** ****** ****** ****** ****** ****** ****** ****** ****** ******
      ****** ****** ****** ****** ****** ****** ****** ****** ****** ******
      ****** ****** ****** ****** ****** ****** ****** ****** ****** ******
  23  ****** ****** ****** ****** ****** ****** ****** ****** ****** ******
      ****** ****** ****** ****** ****** ****** ****** ****** ****** ******
      ****** ****** ****** ****** ****** ****** ****** ****** ****** ******
  24  ****** ****** ****** ****** ****** ****** ****** ****** ****** ******
      ****** ****** ****** ****** ****** ****** ****** ****** ****** ******
      ****** ****** ****** ****** ****** ****** ****** ****** ****** ******
  25  ****** ****** ****** ****** ****** ****** ****** ****** ****** ******
      ****** ****** ****** ****** ****** ****** ****** ****** ****** ******
      ****** ****** ****** ****** ****** ****** ****** ****** ****** ******

 HEAD WILL BE SAVED ON UNIT   51 AT END OF TIME STEP    1, STRESS PERIOD    2
1
  VOLUMETRIC BUDGET FOR ENTIRE MODEL AT END OF TIME STEP    1, STRESS PERIOD   2
  ------------------------------------------------------------------------------

     CUMULATIVE VOLUMES      L**3       RATES FOR THIS TIME STEP      L**3/T
     ------------------                 ------------------------

           IN:                                      IN:
           ---                                      ---
             STORAGE =    23322633.9323               STORAGE =       57433.7580
       CONSTANT HEAD =     2814379.0589         CONSTANT HEAD =       17858.2819
               WELLS =           0.0000                 WELLS =           0.0000
            RECHARGE =     6292800.0000              RECHARGE =       55200.0000
      STREAM LEAKAGE =      976314.2678        STREAM LEAKAGE =        6397.5247

            TOTAL IN =    33406127.2589              TOTAL IN =      136889.5646

          OUT:                                     OUT:
          ----                                     ----
             STORAGE =           0.0000               STORAGE =           0.0000
       CONSTANT HEAD =           0.0000         CONSTANT HEAD =           0.0000
               WELLS =     6434610.4804                 WELLS =       35161.8059
            RECHARGE =           0.0000              RECHARGE =           0.0000
      STREAM LEAKAGE =    26971518.0095        STREAM LEAKAGE =      101727.7691

           TOTAL OUT =    33406128.4899             TOTAL OUT =      136889.5750

            IN - OUT =          -1.2309              IN - OUT =      -1.0382E-02

 PERCENT DISCREPANCY =          -0.00     PERCENT DISCREPANCY =          -0.00






         TIME SUMMARY AT END OF TIME STEP    1 IN STRESS PERIOD    2
                    SECONDS     MINUTES      HOURS       DAYS        YEARS
                    -----------------------------------------------------------
   TIME STEP LENGTH 7.86240E+06 1.31040E+05  2184.0      91.000     0.24914    
 STRESS PERIOD TIME 7.86240E+06 1.31040E+05  2184.0      91.000     0.24914    
         TOTAL TIME 1.58112E+07 2.63520E+05  4392.0      183.00     0.50103    
1
1
                            STRESS PERIOD NO.    3, LENGTH =   91.00000    
                            -----------------------------------------------

                              NUMBER OF TIME STEPS =     1

                               MULTIPLIER FOR DELT =     1.500

                            INITIAL TIME STEP SIZE =   91.00000    

 WELL NO.  LAYER   ROW   COL   STRESS RATE         
 --------------------------------------------------
      1      1     14      6       0.000    
      2      1      3      9       0.000    
      3      1     20     10       0.000    
      4      1     14     20       0.000    
      5      1     10     24     -0.1045E+05
      6      1      7      8      -7751.    
      7      1      5     20      -7335.    
      8      1     11     21      -9620.    

      8 WELLS

                 RECHARGE =   0.00000    

 REUSING STREAM SEGMENT DATA FROM LAST STRESS PERIOD
 
 SOLVING FOR HEAD 


     7 CALLS TO PCG ROUTINE FOR TIME STEP   1 IN STRESS PERIOD    3
    27 TOTAL ITERATIONS

 OUTPUT CONTROL FOR STRESS PERIOD    3   TIME STEP    1
    SAVE BUDGET
    SAVE HEAD FOR ALL LAYERS
    PRINT HEAD FOR ALL LAYERS
 UBDSV2 SAVING "STREAMFLOW OUT  " ON UNIT  50 AT TIME STEP  1, STRESS PERIOD   3



 STREAM LISTING     PERIOD      3   STEP        1

 LAYER ROW COL. STREAM  RCH.  FLOW INTO     FLOW TO   FLOW OUT OF   OVRLND.     DIRECT     STREAM       STREAM     STREAM     STREAM   STREAMBED  STREAMBED
                SEG.NO.  NO.  STRM. RCH.    AQUIFER    STRM. RCH.    RUNOFF     PRECIP       ET          HEAD       DEPTH      WIDTH   CONDCTNC.   GRADIENT

   1   13    1     1     1    1.0000E+05 -2.3887E+03   1.0239E+05  0.000E+00  0.000E+00  0.000E+00  4.84070E+01  1.457E-01  2.000E+01  2.000E+04 -1.194E-01
   1   13    2     1     2    1.0239E+05 -3.4696E+03   1.0586E+05  0.000E+00  0.000E+00  0.000E+00  4.79323E+01  1.482E-01  2.000E+01  2.000E+04 -1.735E-01
   1   14    3     1     3    1.0586E+05 -6.2859E+02   1.0649E+05  0.000E+00  0.000E+00  0.000E+00  4.74568E+01  1.499E-01  2.000E+01  2.000E+04 -3.143E-02
   1   15    4     1     4    1.0649E+05 -6.2377E+02   1.0711E+05  0.000E+00  0.000E+00  0.000E+00  4.69800E+01  1.505E-01  2.000E+01  2.000E+04 -3.119E-02
   1   16    5     1     5    1.0711E+05 -2.4617E+03   1.0957E+05  0.000E+00  0.000E+00  0.000E+00  4.65040E+01  1.518E-01  2.000E+01  2.000E+04 -1.231E-01
   1   16    6     1     6    1.0957E+05 -1.5008E+03   1.1107E+05  0.000E+00  0.000E+00  0.000E+00  4.60284E+01  1.534E-01  2.000E+01  2.000E+04 -7.504E-02
   1   16    7     1     7    1.1107E+05 -1.4645E+03   1.1254E+05  0.000E+00  0.000E+00  0.000E+00  4.55524E+01  1.547E-01  2.000E+01  2.000E+04 -7.323E-02
   1   16    8     1     8    1.1254E+05 -1.4552E+03   1.1399E+05  0.000E+00  0.000E+00  0.000E+00  4.50763E+01  1.559E-01  2.000E+01  2.000E+04 -7.276E-02
   1   16    9     1     9    1.1399E+05 -1.4424E+03   1.1544E+05  0.000E+00  0.000E+00  0.000E+00  4.46003E+01  1.571E-01  2.000E+01  2.000E+04 -7.212E-02
   1   16   10     1    10    1.1544E+05 -1.4237E+03   1.1686E+05  0.000E+00  0.000E+00  0.000E+00  4.41242E+01  1.582E-01  2.000E+01  2.000E+04 -7.118E-02
   1   16   11     1    11    1.1686E+05 -1.4307E+03   1.1829E+05  0.000E+00  0.000E+00  0.000E+00  4.36480E+01  1.594E-01  2.000E+01  2.000E+04 -7.154E-02
   1   16   12     1    12    1.1829E+05 -2.5115E+03   1.2080E+05  0.000E+00  0.000E+00  0.000E+00  4.31724E+01  1.610E-01  2.000E+01  2.000E+04 -1.256E-01
   1   15   13     1    13    1.2080E+05 -2.3214E+03   1.2312E+05  0.000E+00  0.000E+00  0.000E+00  4.26970E+01  1.630E-01  2.000E+01  2.000E+04 -1.161E-01
   1   14   14     1    14    1.2312E+05 -2.5243E+03   1.2565E+05  0.000E+00  0.000E+00  0.000E+00  4.22217E+01  1.649E-01  2.000E+01  2.000E+04 -1.262E-01
   1   13   15     1    15    1.2565E+05 -2.6948E+03   1.2834E+05  0.000E+00  0.000E+00  0.000E+00  4.17465E+01  1.670E-01  2.000E+01  2.000E+04 -1.347E-01
   1   12   16     1    16    1.2834E+05 -3.0339E+03   1.3138E+05  0.000E+00  0.000E+00  0.000E+00  4.12715E+01  1.692E-01  2.000E+01  2.000E+04 -1.517E-01
   1   12   17     1    17    1.3138E+05 -1.8152E+03   1.3319E+05  0.000E+00  0.000E+00  0.000E+00  4.07961E+01  1.711E-01  2.000E+01  2.000E+04 -9.076E-02
   1   12   18     1    18    1.3319E+05 -1.4287E+03   1.3462E+05  0.000E+00  0.000E+00  0.000E+00  4.03201E+01  1.723E-01  2.000E+01  2.000E+04 -7.143E-02
   1   12   19     1    19    1.3462E+05 -3.9068E+02   1.3501E+05  0.000E+00  0.000E+00  0.000E+00  3.98435E+01  1.730E-01  2.000E+01  2.000E+04 -1.953E-02
   1   13   20     1    20    1.3501E+05 -2.5635E+02   1.3527E+05  0.000E+00  0.000E+00  0.000E+00  3.93665E+01  1.733E-01  2.000E+01  2.000E+04 -1.282E-02
   1   14   21     1    21    1.3527E+05 -1.4876E+03   1.3675E+05  0.000E+00  0.000E+00  0.000E+00  3.88899E+01  1.740E-01  2.000E+01  2.000E+04 -7.438E-02
   1   14   22     1    22    1.3675E+05  5.1446E+03   1.3161E+05  0.000E+00  0.000E+00  0.000E+00  3.84112E+01  1.726E-01  2.000E+01  2.000E+04  2.572E-01
   1    9   30     2     1    5.0000E+04 -6.6042E+02   5.0660E+04  0.000E+00  0.000E+00  0.000E+00  4.02413E+01  1.163E-01  2.000E+01  2.000E+04 -3.302E-02
   1    9   29     2     2    5.0660E+04 -9.2424E+02   5.1585E+04  0.000E+00  0.000E+00  0.000E+00  3.99924E+01  1.174E-01  2.000E+01  2.000E+04 -4.621E-02
   1    9   28     2     3    5.1585E+04 -1.0814E+03   5.2666E+04  0.000E+00  0.000E+00  0.000E+00  3.97438E+01  1.188E-01  2.000E+01  2.000E+04 -5.407E-02
   1    9   27     2     4    5.2666E+04 -1.6606E+03   5.4327E+04  0.000E+00  0.000E+00  0.000E+00  3.94957E+01  1.207E-01  2.000E+01  2.000E+04 -8.303E-02
   1   10   26     2     5    5.4327E+04  4.8122E+02   5.3845E+04  0.000E+00  0.000E+00  0.000E+00  3.92465E+01  1.215E-01  2.000E+01  2.000E+04  2.406E-02
   1   11   25     2     6    5.3845E+04  1.9128E+03   5.1933E+04  0.000E+00  0.000E+00  0.000E+00  3.89948E+01  1.198E-01  2.000E+01  2.000E+04  9.564E-02
   1   12   24     2     7    5.1933E+04  1.5777E+03   5.0355E+04  0.000E+00  0.000E+00  0.000E+00  3.87424E+01  1.174E-01  2.000E+01  2.000E+04  7.888E-02
   1   13   23     2     8    5.0355E+04  1.7542E+02   5.0180E+04  0.000E+00  0.000E+00  0.000E+00  3.84912E+01  1.162E-01  2.000E+01  2.000E+04  8.771E-03
   1   14   22     2     9    5.0180E+04  1.7191E+03   4.8460E+04  0.000E+00  0.000E+00  0.000E+00  3.82399E+01  1.149E-01  2.000E+01  2.000E+04  8.595E-02
   1   14   22     3     1    1.8007E+05 -8.5034E+03   1.8857E+05  0.000E+00  0.000E+00  0.000E+00  3.77288E+01  1.732E-01  2.000E+01  2.000E+04 -4.252E-01
   1   15   23     3     2    1.8857E+05 -6.6779E+02   1.8924E+05  0.000E+00  0.000E+00  0.000E+00  3.68425E+01  1.758E-01  2.000E+01  2.000E+04 -3.339E-02
   1   15   24     3     3    1.8924E+05 -3.4389E+02   1.8958E+05  0.000E+00  0.000E+00  0.000E+00  3.59539E+01  1.761E-01  2.000E+01  2.000E+04 -1.719E-02
   1   15   25     3     4    1.8958E+05 -3.3250E+02   1.8992E+05  0.000E+00  0.000E+00  0.000E+00  3.50652E+01  1.763E-01  2.000E+01  2.000E+04 -1.662E-02
   1   15   26     3     5    1.8992E+05 -3.6816E+02   1.9029E+05  0.000E+00  0.000E+00  0.000E+00  3.41765E+01  1.765E-01  2.000E+01  2.000E+04 -1.841E-02
   1   16   27     3     6    1.9029E+05 -4.3417E+02   1.9072E+05  0.000E+00  0.000E+00  0.000E+00  3.32878E+01  1.767E-01  2.000E+01  2.000E+04 -2.171E-02
   1   17   28     3     7    1.9072E+05 -1.8496E+03   1.9257E+05  0.000E+00  0.000E+00  0.000E+00  3.23996E+01  1.773E-01  2.000E+01  2.000E+04 -9.248E-02
   1   18   29     3     8    1.9257E+05 -3.5548E+03   1.9612E+05  0.000E+00  0.000E+00  0.000E+00  3.15122E+01  1.788E-01  2.000E+01  2.000E+04 -1.777E-01
   1   18   30     3     9    1.9612E+05 -3.5567E+03   1.9968E+05  0.000E+00  0.000E+00  0.000E+00  3.06252E+01  1.808E-01  2.000E+01  2.000E+04 -1.778E-01



1
              HEAD IN LAYER   1 AT END OF TIME STEP   1 IN STRESS PERIOD    3
  ---------------------------------------------------------------------------

          1      2      3      4      5      6      7      8      9     10
         11     12     13     14     15     16     17     18     19     20
         21     22     23     24     25     26     27     28     29     30
 .........................................................................
   1  ****** ****** ****** ****** ****** ****** ****** ****** ****** ******
      ****** ****** ****** ****** ****** ****** ****** ****** ****** ******
      ****** ****** ****** ****** ****** ****** ****** ****** ****** ******
   2  ****** ****** ****** ****** ****** ****** ****** ****** ****** ******
      ****** ****** ****** ****** ****** ****** ****** ****** ****** ******
      ****** ****** ****** ****** ****** ****** ****** ****** ****** ******
   3  ****** ****** ****** ****** ****** ****** ****** ****** ****** ******
      ****** ****** ****** ****** ****** ****** ****** ****** ****** ******
      ****** ****** ****** ****** ****** ****** ****** ****** ****** ******
   4  ****** ****** ****** ****** ****** ****** ****** ****** ****** ******
      ****** ****** ****** ****** ****** ****** ****** ****** ****** ******
      ****** ****** ****** ****** ****** ****** ****** ****** ****** ******
   5  ****** ****** ****** ****** ****** ****** ****** ****** ****** ******
      ****** ****** ****** ****** ****** ****** ****** ****** ****** ******
      ****** ****** ****** ****** ****** ****** ****** ****** ****** ******
   6  ****** ****** ****** ****** ****** ****** ****** ****** ****** ******
      ****** ****** ****** ****** ****** ****** ****** ****** ****** ******
      ****** ****** ****** ****** ****** ****** ****** ****** ****** ******
   7  ****** ****** ****** ****** ****** ****** ****** ****** ****** ******
      ****** ****** ****** ****** ****** ****** ****** ****** ****** ******
      ****** ****** ****** ****** ****** ****** ****** ****** ****** ******
   8  ****** ****** ****** ****** ****** ****** ****** ****** ****** ******
      ****** ****** ****** ****** ****** ****** ****** ****** ****** ******
      ****** ****** ****** ****** ****** ****** ****** ****** ****** ******
   9  ****** ****** ****** ****** ****** ****** ****** ****** ****** ******
      ****** ****** ****** ****** ****** ****** ****** ****** ****** ******
      ****** ****** ****** ****** ****** ****** ****** ****** ****** ******
  10  ****** ****** ****** ****** ****** ****** ****** ****** ****** ******
      ****** ****** ****** ****** ****** ****** ****** ****** ****** ******
      ****** ****** ****** ****** ****** ****** ****** ****** ****** ******
  11  ****** ****** ****** ****** ****** ****** ****** ****** ****** ******
      ****** ****** ****** ****** ****** ****** ****** ****** ****** ******
      ****** ****** ****** ****** ****** ****** ****** ****** ****** ******
  12  ****** ****** ****** ****** ****** ****** ****** ****** ****** ******
      ****** ****** ****** ****** ****** ****** ****** ****** ****** ******
      ****** ****** ****** ****** ****** ****** ****** ****** ****** ******
  13  ****** ****** ****** ****** ****** ****** ****** ****** ****** ******
      ****** ****** ****** ****** ****** ****** ****** ****** ****** ******
      ****** ****** ****** ****** ****** ****** ****** ****** ****** ******
  14  ****** ****** ****** ****** ****** ****** ****** ****** ****** ******
      ****** ****** ****** ****** ****** ****** ****** ****** ****** ******
      ****** ****** ****** ****** ****** ****** ****** ****** ****** ******
  15  ****** ****** ****** ****** ****** ****** ****** ****** ****** ******
      ****** ****** ****** ****** ****** ****** ****** ****** ****** ******
      ****** ****** ****** ****** ****** ****** ****** ****** ****** ******
  16  ****** ****** ****** ****** ****** ****** ****** ****** ****** ******
      ****** ****** ****** ****** ****** ****** ****** ****** ****** ******
      ****** ****** ****** ****** ****** ****** ****** ****** ****** ******
  17  ****** ****** ****** ****** ****** ****** ****** ****** ****** ******
      ****** ****** ****** ****** ****** ****** ****** ****** ****** ******
      ****** ****** ****** ****** ****** ****** ****** ****** ****** ******
  18  ****** ****** ****** ****** ****** ****** ****** ****** ****** ******
      ****** ****** ****** ****** ****** ****** ****** ****** ****** ******
      ****** ****** ****** ****** ****** ****** ****** ****** ****** ******
  19  ****** ****** ****** ****** ****** ****** ****** ****** ****** ******
      ****** ****** ****** ****** ****** ****** ****** ****** ****** ******
      ****** ****** ****** ****** ****** ****** ****** ****** ****** ******
  20  ****** ****** ****** ****** ****** ****** ****** ****** ****** ******
      ****** ****** ****** ****** ****** ****** ****** ****** ****** ******
      ****** ****** ****** ****** ****** ****** ****** ****** ****** ******
  21  ****** ****** ****** ****** ****** ****** ****** ****** ****** ******
      ****** ****** ****** ****** ****** ****** ****** ****** ****** ******
      ****** ****** ****** ****** ****** ****** ****** ****** ****** ******
  22  ****** ****** ****** ****** ****** ****** ****** ****** ****** ******
      ****** ****** ****** ****** ****** ****** ****** ****** ****** ******
      ****** ****** ****** ****** ****** ****** ****** ****** ****** ******
  23  ****** ****** ****** ****** ****** ****** ****** ****** ****** ******
      ****** ****** ****** ****** ****** ****** ****** ****** ****** ******
      ****** ****** ****** ****** ****** ****** ****** ****** ****** ******
  24  ****** ****** ****** ****** ****** ****** ****** ****** ****** ******
      ****** ****** ****** ****** ****** ****** ****** ****** ****** ******
      ****** ****** ****** ****** ****** ****** ****** ****** ****** ******
  25  ****** ****** ****** ****** ****** ****** ****** ****** ****** ******
      ****** ****** ****** ****** ****** ****** ****** ****** ****** ******
      ****** ****** ****** ****** ****** ****** ****** ****** ****** ******

 HEAD WILL BE SAVED ON UNIT   51 AT END OF TIME STEP    1, STRESS PERIOD    3
1
  VOLUMETRIC BUDGET FOR ENTIRE MODEL AT END OF TIME STEP    1, STRESS PERIOD   3
  ------------------------------------------------------------------------------

     CUMULATIVE VOLUMES      L**3       RATES FOR THIS TIME STEP      L**3/T
     ------------------                 ------------------------

           IN:                                      IN:
           ---                                      ---
             STORAGE =    28607960.2693               STORAGE =       58080.5092
       CONSTANT HEAD =     5249746.1136         CONSTANT HEAD =       26762.2753
               WELLS =           0.0000                 WELLS =           0.0000
            RECHARGE =     6292800.0000              RECHARGE =           0.0000
      STREAM LEAKAGE =     1978303.2613        STREAM LEAKAGE =       11010.8681

            TOTAL IN =    42128809.6441              TOTAL IN =       95853.6526

          OUT:                                     OUT:
          ----                                     ----
             STORAGE =           0.0000               STORAGE =           0.0000
       CONSTANT HEAD =           0.0000         CONSTANT HEAD =           0.0000
               WELLS =     9634334.8177                 WELLS =       35161.8059
            RECHARGE =           0.0000              RECHARGE =           0.0000
      STREAM LEAKAGE =    32494476.7531        STREAM LEAKAGE =       60691.8543

           TOTAL OUT =    42128811.5707             TOTAL OUT =       95853.6602

            IN - OUT =          -1.9266              IN - OUT =      -7.6448E-03

 PERCENT DISCREPANCY =          -0.00     PERCENT DISCREPANCY =          -0.00






         TIME SUMMARY AT END OF TIME STEP    1 IN STRESS PERIOD    3
                    SECONDS     MINUTES      HOURS       DAYS        YEARS
                    -----------------------------------------------------------
   TIME STEP LENGTH 7.86240E+06 1.31040E+05  2184.0      91.000     0.24914    
 STRESS PERIOD TIME 7.86240E+06 1.31040E+05  2184.0      91.000     0.24914    
         TOTAL TIME 2.36736E+07 3.94560E+05  6576.0      274.00     0.75017    
1
1
                            STRESS PERIOD NO.    4, LENGTH =   91.00000    
                            -----------------------------------------------

                              NUMBER OF TIME STEPS =     1

                               MULTIPLIER FOR DELT =     1.500

                            INITIAL TIME STEP SIZE =   91.00000    

 WELL NO.  LAYER   ROW   COL   STRESS RATE         
 --------------------------------------------------
      1      1     14      6       0.000    
      2      1      3      9       0.000    
      3      1     20     10       0.000    
      4      1     14     20       0.000    
      5      1     10     24     -0.1045E+05
      6      1      7      8      -7751.    
      7      1      5     20      -7335.    
      8      1     11     21      -9620.    

      8 WELLS

                 RECHARGE =  1.000000E-03

 REUSING STREAM SEGMENT DATA FROM LAST STRESS PERIOD
 
 SOLVING FOR HEAD 


     6 CALLS TO PCG ROUTINE FOR TIME STEP   1 IN STRESS PERIOD    4
    23 TOTAL ITERATIONS

 OUTPUT CONTROL FOR STRESS PERIOD    4   TIME STEP    1
    SAVE BUDGET
    SAVE HEAD FOR ALL LAYERS
    PRINT HEAD FOR ALL LAYERS
 UBDSV2 SAVING "STREAMFLOW OUT  " ON UNIT  50 AT TIME STEP  1, STRESS PERIOD   4



 STREAM LISTING     PERIOD      4   STEP        1

 LAYER ROW COL. STREAM  RCH.  FLOW INTO     FLOW TO   FLOW OUT OF   OVRLND.     DIRECT     STREAM       STREAM     STREAM     STREAM   STREAMBED  STREAMBED
                SEG.NO.  NO.  STRM. RCH.    AQUIFER    STRM. RCH.    RUNOFF     PRECIP       ET          HEAD       DEPTH      WIDTH   CONDCTNC.   GRADIENT

   1   13    1     1     1    1.0000E+05 -2.0639E+03   1.0206E+05  0.000E+00  0.000E+00  0.000E+00  4.84069E+01  1.455E-01  2.000E+01  2.000E+04 -1.032E-01
   1   13    2     1     2    1.0206E+05 -3.0952E+03   1.0516E+05  0.000E+00  0.000E+00  0.000E+00  4.79319E+01  1.478E-01  2.000E+01  2.000E+04 -1.548E-01
   1   14    3     1     3    1.0516E+05 -5.8988E+02   1.0575E+05  0.000E+00  0.000E+00  0.000E+00  4.74562E+01  1.493E-01  2.000E+01  2.000E+04 -2.949E-02
   1   15    4     1     4    1.0575E+05 -5.7879E+02   1.0633E+05  0.000E+00  0.000E+00  0.000E+00  4.69794E+01  1.498E-01  2.000E+01  2.000E+04 -2.894E-02
   1   16    5     1     5    1.0633E+05 -2.1619E+03   1.0849E+05  0.000E+00  0.000E+00  0.000E+00  4.65033E+01  1.510E-01  2.000E+01  2.000E+04 -1.081E-01
   1   16    6     1     6    1.0849E+05 -1.3505E+03   1.0984E+05  0.000E+00  0.000E+00  0.000E+00  4.60275E+01  1.525E-01  2.000E+01  2.000E+04 -6.752E-02
   1   16    7     1     7    1.0984E+05 -1.3251E+03   1.1117E+05  0.000E+00  0.000E+00  0.000E+00  4.55513E+01  1.536E-01  2.000E+01  2.000E+04 -6.626E-02
   1   16    8     1     8    1.1117E+05 -1.3206E+03   1.1249E+05  0.000E+00  0.000E+00  0.000E+00  4.50751E+01  1.547E-01  2.000E+01  2.000E+04 -6.603E-02
   1   16    9     1     9    1.1249E+05 -1.3120E+03   1.1380E+05  0.000E+00  0.000E+00  0.000E+00  4.45990E+01  1.558E-01  2.000E+01  2.000E+04 -6.560E-02
   1   16   10     1    10    1.1380E+05 -1.2989E+03   1.1510E+05  0.000E+00  0.000E+00  0.000E+00  4.41228E+01  1.569E-01  2.000E+01  2.000E+04 -6.495E-02
   1   16   11     1    11    1.1510E+05 -1.3091E+03   1.1641E+05  0.000E+00  0.000E+00  0.000E+00  4.36466E+01  1.579E-01  2.000E+01  2.000E+04 -6.546E-02
   1   16   12     1    12    1.1641E+05 -2.2510E+03   1.1866E+05  0.000E+00  0.000E+00  0.000E+00  4.31707E+01  1.594E-01  2.000E+01  2.000E+04 -1.126E-01
   1   15   13     1    13    1.1866E+05 -2.0530E+03   1.2071E+05  0.000E+00  0.000E+00  0.000E+00  4.26952E+01  1.611E-01  2.000E+01  2.000E+04 -1.027E-01
   1   14   14     1    14    1.2071E+05 -2.2119E+03   1.2292E+05  0.000E+00  0.000E+00  0.000E+00  4.22197E+01  1.628E-01  2.000E+01  2.000E+04 -1.106E-01
   1   13   15     1    15    1.2292E+05 -2.3349E+03   1.2526E+05  0.000E+00  0.000E+00  0.000E+00  4.17442E+01  1.647E-01  2.000E+01  2.000E+04 -1.167E-01
   1   12   16     1    16    1.2526E+05 -2.5350E+03   1.2779E+05  0.000E+00  0.000E+00  0.000E+00  4.12689E+01  1.666E-01  2.000E+01  2.000E+04 -1.267E-01
   1   12   17     1    17    1.2779E+05 -1.5250E+03   1.2932E+05  0.000E+00  0.000E+00  0.000E+00  4.07932E+01  1.682E-01  2.000E+01  2.000E+04 -7.625E-02
   1   12   18     1    18    1.2932E+05 -1.1615E+03   1.3048E+05  0.000E+00  0.000E+00  0.000E+00  4.03170E+01  1.692E-01  2.000E+01  2.000E+04 -5.807E-02
   1   12   19     1    19    1.3048E+05 -5.0545E+01   1.3053E+05  0.000E+00  0.000E+00  0.000E+00  3.98402E+01  1.697E-01  2.000E+01  2.000E+04 -2.527E-03
   1   13   20     1    20    1.3053E+05 -6.2594E+01   1.3059E+05  0.000E+00  0.000E+00  0.000E+00  3.93629E+01  1.698E-01  2.000E+01  2.000E+04 -3.130E-03
   1   14   21     1    21    1.3059E+05 -1.2682E+03   1.3186E+05  0.000E+00  0.000E+00  0.000E+00  3.88862E+01  1.703E-01  2.000E+01  2.000E+04 -6.341E-02
   1   14   22     1    22    1.3186E+05  5.1800E+03   1.2668E+05  0.000E+00  0.000E+00  0.000E+00  3.84074E+01  1.687E-01  2.000E+01  2.000E+04  2.590E-01
   1    9   30     2     1    5.0000E+04 -5.4481E+02   5.0545E+04  0.000E+00  0.000E+00  0.000E+00  4.02412E+01  1.162E-01  2.000E+01  2.000E+04 -2.724E-02
   1    9   29     2     2    5.0545E+04 -7.9955E+02   5.1344E+04  0.000E+00  0.000E+00  0.000E+00  3.99922E+01  1.172E-01  2.000E+01  2.000E+04 -3.998E-02
   1    9   28     2     3    5.1344E+04 -9.3097E+02   5.2275E+04  0.000E+00  0.000E+00  0.000E+00  3.97434E+01  1.184E-01  2.000E+01  2.000E+04 -4.655E-02
   1    9   27     2     4    5.2275E+04 -1.3230E+03   5.3598E+04  0.000E+00  0.000E+00  0.000E+00  3.94949E+01  1.199E-01  2.000E+01  2.000E+04 -6.615E-02
   1   10   26     2     5    5.3598E+04  6.9370E+02   5.2905E+04  0.000E+00  0.000E+00  0.000E+00  3.92453E+01  1.203E-01  2.000E+01  2.000E+04  3.469E-02
   1   11   25     2     6    5.2905E+04  2.0799E+03   5.0825E+04  0.000E+00  0.000E+00  0.000E+00  3.89934E+01  1.184E-01  2.000E+01  2.000E+04  1.040E-01
   1   12   24     2     7    5.0825E+04  1.7257E+03   4.9099E+04  0.000E+00  0.000E+00  0.000E+00  3.87408E+01  1.158E-01  2.000E+01  2.000E+04  8.629E-02
   1   13   23     2     8    4.9099E+04  1.5742E+02   4.8942E+04  0.000E+00  0.000E+00  0.000E+00  3.84895E+01  1.145E-01  2.000E+01  2.000E+04  7.871E-03
   1   14   22     2     9    4.8942E+04  1.7949E+03   4.7147E+04  0.000E+00  0.000E+00  0.000E+00  3.82381E+01  1.131E-01  2.000E+01  2.000E+04  8.975E-02
   1   14   22     3     1    1.7383E+05 -8.4628E+03   1.8229E+05  0.000E+00  0.000E+00  0.000E+00  3.77252E+01  1.697E-01  2.000E+01  2.000E+04 -4.231E-01
   1   15   23     3     2    1.8229E+05 -6.4934E+02   1.8294E+05  0.000E+00  0.000E+00  0.000E+00  3.68389E+01  1.723E-01  2.000E+01  2.000E+04 -3.247E-02
   1   15   24     3     3    1.8294E+05 -3.4554E+02   1.8328E+05  0.000E+00  0.000E+00  0.000E+00  3.59503E+01  1.726E-01  2.000E+01  2.000E+04 -1.728E-02
   1   15   25     3     4    1.8328E+05 -3.3354E+02   1.8362E+05  0.000E+00  0.000E+00  0.000E+00  3.50616E+01  1.727E-01  2.000E+01  2.000E+04 -1.668E-02
   1   15   26     3     5    1.8362E+05 -3.7833E+02   1.8400E+05  0.000E+00  0.000E+00  0.000E+00  3.41729E+01  1.729E-01  2.000E+01  2.000E+04 -1.892E-02
   1   16   27     3     6    1.8400E+05 -4.3655E+02   1.8443E+05  0.000E+00  0.000E+00  0.000E+00  3.32843E+01  1.732E-01  2.000E+01  2.000E+04 -2.183E-02
   1   17   28     3     7    1.8443E+05 -1.7936E+03   1.8623E+05  0.000E+00  0.000E+00  0.000E+00  3.23960E+01  1.738E-01  2.000E+01  2.000E+04 -8.968E-02
   1   18   29     3     8    1.8623E+05 -3.3538E+03   1.8958E+05  0.000E+00  0.000E+00  0.000E+00  3.15086E+01  1.753E-01  2.000E+01  2.000E+04 -1.677E-01
   1   18   30     3     9    1.8958E+05 -3.4587E+03   1.9304E+05  0.000E+00  0.000E+00  0.000E+00  3.06216E+01  1.772E-01  2.000E+01  2.000E+04 -1.729E-01



1
              HEAD IN LAYER   1 AT END OF TIME STEP   1 IN STRESS PERIOD    4
  ---------------------------------------------------------------------------

          1      2      3      4      5      6      7      8      9     10
         11     12     13     14     15     16     17     18     19     20
         21     22     23     24     25     26     27     28     29     30
 .........................................................................
   1  ****** ****** ****** ****** ****** ****** ****** ****** ****** ******
      ****** ****** ****** ****** ****** ****** ****** ****** ****** ******
      ****** ****** ****** ****** ****** ****** ****** ****** ****** ******
   2  ****** ****** ****** ****** ****** ****** ****** ****** ****** ******
      ****** ****** ****** ****** ****** ****** ****** ****** ****** ******
      ****** ****** ****** ****** ****** ****** ****** ****** ****** ******
   3  ****** ****** ****** ****** ****** ****** ****** ****** ****** ******
      ****** ****** ****** ****** ****** ****** ****** ****** ****** ******
      ****** ****** ****** ****** ****** ****** ****** ****** ****** ******
   4  ****** ****** ****** ****** ****** ****** ****** ****** ****** ******
      ****** ****** ****** ****** ****** ****** ****** ****** ****** ******
      ****** ****** ****** ****** ****** ****** ****** ****** ****** ******
   5  ****** ****** ****** ****** ****** ****** ****** ****** ****** ******
      ****** ****** ****** ****** ****** ****** ****** ****** ****** ******
      ****** ****** ****** ****** ****** ****** ****** ****** ****** ******
   6  ****** ****** ****** ****** ****** ****** ****** ****** ****** ******
      ****** ****** ****** ****** ****** ****** ****** ****** ****** ******
      ****** ****** ****** ****** ****** ****** ****** ****** ****** ******
   7  ****** ****** ****** ****** ****** ****** ****** ****** ****** ******
      ****** ****** ****** ****** ****** ****** ****** ****** ****** ******
      ****** ****** ****** ****** ****** ****** ****** ****** ****** ******
   8  ****** ****** ****** ****** ****** ****** ****** ****** ****** ******
      ****** ****** ****** ****** ****** ****** ****** ****** ****** ******
      ****** ****** ****** ****** ****** ****** ****** ****** ****** ******
   9  ****** ****** ****** ****** ****** ****** ****** ****** ****** ******
      ****** ****** ****** ****** ****** ****** ****** ****** ****** ******
      ****** ****** ****** ****** ****** ****** ****** ****** ****** ******
  10  ****** ****** ****** ****** ****** ****** ****** ****** ****** ******
      ****** ****** ****** ****** ****** ****** ****** ****** ****** ******
      ****** ****** ****** ****** ****** ****** ****** ****** ****** ******
  11  ****** ****** ****** ****** ****** ****** ****** ****** ****** ******
      ****** ****** ****** ****** ****** ****** ****** ****** ****** ******
      ****** ****** ****** ****** ****** ****** ****** ****** ****** ******
  12  ****** ****** ****** ****** ****** ****** ****** ****** ****** ******
      ****** ****** ****** ****** ****** ****** ****** ****** ****** ******
      ****** ****** ****** ****** ****** ****** ****** ****** ****** ******
  13  ****** ****** ****** ****** ****** ****** ****** ****** ****** ******
      ****** ****** ****** ****** ****** ****** ****** ****** ****** ******
      ****** ****** ****** ****** ****** ****** ****** ****** ****** ******
  14  ****** ****** ****** ****** ****** ****** ****** ****** ****** ******
      ****** ****** ****** ****** ****** ****** ****** ****** ****** ******
      ****** ****** ****** ****** ****** ****** ****** ****** ****** ******
  15  ****** ****** ****** ****** ****** ****** ****** ****** ****** ******
      ****** ****** ****** ****** ****** ****** ****** ****** ****** ******
      ****** ****** ****** ****** ****** ****** ****** ****** ****** ******
  16  ****** ****** ****** ****** ****** ****** ****** ****** ****** ******
      ****** ****** ****** ****** ****** ****** ****** ****** ****** ******
      ****** ****** ****** ****** ****** ****** ****** ****** ****** ******
  17  ****** ****** ****** ****** ****** ****** ****** ****** ****** ******
      ****** ****** ****** ****** ****** ****** ****** ****** ****** ******
      ****** ****** ****** ****** ****** ****** ****** ****** ****** ******
  18  ****** ****** ****** ****** ****** ****** ****** ****** ****** ******
      ****** ****** ****** ****** ****** ****** ****** ****** ****** ******
      ****** ****** ****** ****** ****** ****** ****** ****** ****** ******
  19  ****** ****** ****** ****** ****** ****** ****** ****** ****** ******
      ****** ****** ****** ****** ****** ****** ****** ****** ****** ******
      ****** ****** ****** ****** ****** ****** ****** ****** ****** ******
  20  ****** ****** ****** ****** ****** ****** ****** ****** ****** ******
      ****** ****** ****** ****** ****** ****** ****** ****** ****** ******
      ****** ****** ****** ****** ****** ****** ****** ****** ****** ******
  21  ****** ****** ****** ****** ****** ****** ****** ****** ****** ******
      ****** ****** ****** ****** ****** ****** ****** ****** ****** ******
      ****** ****** ****** ****** ****** ****** ****** ****** ****** ******
  22  ****** ****** ****** ****** ****** ****** ****** ****** ****** ******
      ****** ****** ****** ****** ****** ****** ****** ****** ****** ******
      ****** ****** ****** ****** ****** ****** ****** ****** ****** ******
  23  ****** ****** ****** ****** ****** ****** ****** ****** ****** ******
      ****** ****** ****** ****** ****** ****** ****** ****** ****** ******
      ****** ****** ****** ****** ****** ****** ****** ****** ****** ******
  24  ****** ****** ****** ****** ****** ****** ****** ****** ****** ******
      ****** ****** ****** ****** ****** ****** ****** ****** ****** ******
      ****** ****** ****** ****** ****** ****** ****** ****** ****** ******
  25  ****** ****** ****** ****** ****** ****** ****** ****** ****** ******
      ****** ****** ****** ****** ****** ****** ****** ****** ****** ******
      ****** ****** ****** ****** ****** ****** ****** ****** ****** ******

 HEAD WILL BE SAVED ON UNIT   51 AT END OF TIME STEP    1, STRESS PERIOD    4
1
  VOLUMETRIC BUDGET FOR ENTIRE MODEL AT END OF TIME STEP    1, STRESS PERIOD   4
  ------------------------------------------------------------------------------

     CUMULATIVE VOLUMES      L**3       RATES FOR THIS TIME STEP      L**3/T
     ------------------                 ------------------------

           IN:                                      IN:
           ---                                      ---
             STORAGE =    30516198.9611               STORAGE =       20969.6560
       CONSTANT HEAD =     7947245.4281         CONSTANT HEAD =       29642.8496
               WELLS =           0.0000                 WELLS =           0.0000
            RECHARGE =     8804400.0000              RECHARGE =       27600.0000
      STREAM LEAKAGE =     3036791.5226        STREAM LEAKAGE =       11631.7391

            TOTAL IN =    50304635.9119              TOTAL IN =       89844.2447

          OUT:                                     OUT:
          ----                                     ----
             STORAGE =        1135.3294               STORAGE =          12.4761
       CONSTANT HEAD =           0.0000         CONSTANT HEAD =           0.0000
               WELLS =    12834059.1549                 WELLS =       35161.8059
            RECHARGE =           0.0000              RECHARGE =           0.0000
      STREAM LEAKAGE =    37469443.4436        STREAM LEAKAGE =       54669.9636

           TOTAL OUT =    50304637.9279             TOTAL OUT =       89844.2457

            IN - OUT =          -2.0160              IN - OUT =      -9.8246E-04

 PERCENT DISCREPANCY =          -0.00     PERCENT DISCREPANCY =          -0.00






         TIME SUMMARY AT END OF TIME STEP    1 IN STRESS PERIOD    4
                    SECONDS     MINUTES      HOURS       DAYS        YEARS
                    -----------------------------------------------------------
   TIME STEP LENGTH 7.86240E+06 1.31040E+05  2184.0      91.000     0.24914    
 STRESS PERIOD TIME 7.86240E+06 1.31040E+05  2184.0      91.000     0.24914    
         TOTAL TIME 3.15360E+07 5.25600E+05  8760.0      365.00     0.99932    
1
1
                            STRESS PERIOD NO.    5, LENGTH =   92.00000    
                            -----------------------------------------------

                              NUMBER OF TIME STEPS =     1

                               MULTIPLIER FOR DELT =     1.500

                            INITIAL TIME STEP SIZE =   92.00000    

 WELL NO.  LAYER   ROW   COL   STRESS RATE         
 --------------------------------------------------
      1      1     14      6       0.000    
      2      1      3      9       0.000    
      3      1     20     10       0.000    
      4      1     14     20       0.000    
      5      1     10     24     -0.1045E+05
      6      1      7      8      -7751.    
      7      1      5     20      -7335.    
      8      1     11     21      -9620.    

      8 WELLS

                 RECHARGE =  5.000000E-04

 REUSING STREAM SEGMENT DATA FROM LAST STRESS PERIOD
 
 SOLVING FOR HEAD 


     7 CALLS TO PCG ROUTINE FOR TIME STEP   1 IN STRESS PERIOD    5
    26 TOTAL ITERATIONS

 OUTPUT CONTROL FOR STRESS PERIOD    5   TIME STEP    1
    SAVE BUDGET
    SAVE HEAD FOR ALL LAYERS
    PRINT HEAD FOR ALL LAYERS
 UBDSV2 SAVING "STREAMFLOW OUT  " ON UNIT  50 AT TIME STEP  1, STRESS PERIOD   5



 STREAM LISTING     PERIOD      5   STEP        1

 LAYER ROW COL. STREAM  RCH.  FLOW INTO     FLOW TO   FLOW OUT OF   OVRLND.     DIRECT     STREAM       STREAM     STREAM     STREAM   STREAMBED  STREAMBED
                SEG.NO.  NO.  STRM. RCH.    AQUIFER    STRM. RCH.    RUNOFF     PRECIP       ET          HEAD       DEPTH      WIDTH   CONDCTNC.   GRADIENT

   1   13    1     1     1    1.0000E+05 -1.5814E+03   1.0158E+05  0.000E+00  0.000E+00  0.000E+00  4.84067E+01  1.453E-01  2.000E+01  2.000E+04 -7.907E-02
   1   13    2     1     2    1.0158E+05 -2.5489E+03   1.0413E+05  0.000E+00  0.000E+00  0.000E+00  4.79312E+01  1.471E-01  2.000E+01  2.000E+04 -1.274E-01
   1   14    3     1     3    1.0413E+05 -4.5880E+02   1.0459E+05  0.000E+00  0.000E+00  0.000E+00  4.74552E+01  1.484E-01  2.000E+01  2.000E+04 -2.294E-02
   1   15    4     1     4    1.0459E+05 -4.4390E+02   1.0503E+05  0.000E+00  0.000E+00  0.000E+00  4.69783E+01  1.488E-01  2.000E+01  2.000E+04 -2.219E-02
   1   16    5     1     5    1.0503E+05 -1.7320E+03   1.0677E+05  0.000E+00  0.000E+00  0.000E+00  4.65020E+01  1.497E-01  2.000E+01  2.000E+04 -8.660E-02
   1   16    6     1     6    1.0677E+05 -1.0957E+03   1.0786E+05  0.000E+00  0.000E+00  0.000E+00  4.60259E+01  1.509E-01  2.000E+01  2.000E+04 -5.478E-02
   1   16    7     1     7    1.0786E+05 -1.0803E+03   1.0894E+05  0.000E+00  0.000E+00  0.000E+00  4.55496E+01  1.518E-01  2.000E+01  2.000E+04 -5.401E-02
   1   16    8     1     8    1.0894E+05 -1.0798E+03   1.1002E+05  0.000E+00  0.000E+00  0.000E+00  4.50732E+01  1.527E-01  2.000E+01  2.000E+04 -5.399E-02
   1   16    9     1     9    1.1002E+05 -1.0753E+03   1.1110E+05  0.000E+00  0.000E+00  0.000E+00  4.45968E+01  1.536E-01  2.000E+01  2.000E+04 -5.376E-02
   1   16   10     1    10    1.1110E+05 -1.0674E+03   1.1216E+05  0.000E+00  0.000E+00  0.000E+00  4.41204E+01  1.545E-01  2.000E+01  2.000E+04 -5.337E-02
   1   16   11     1    11    1.1216E+05 -1.0797E+03   1.1324E+05  0.000E+00  0.000E+00  0.000E+00  4.36440E+01  1.554E-01  2.000E+01  2.000E+04 -5.398E-02
   1   16   12     1    12    1.1324E+05 -1.8376E+03   1.1508E+05  0.000E+00  0.000E+00  0.000E+00  4.31680E+01  1.566E-01  2.000E+01  2.000E+04 -9.188E-02
   1   15   13     1    13    1.1508E+05 -1.5985E+03   1.1668E+05  0.000E+00  0.000E+00  0.000E+00  4.26921E+01  1.580E-01  2.000E+01  2.000E+04 -7.992E-02
   1   14   14     1    14    1.1668E+05 -1.7150E+03   1.1839E+05  0.000E+00  0.000E+00  0.000E+00  4.22162E+01  1.594E-01  2.000E+01  2.000E+04 -8.575E-02
   1   13   15     1    15    1.1839E+05 -1.8064E+03   1.2020E+05  0.000E+00  0.000E+00  0.000E+00  4.17404E+01  1.608E-01  2.000E+01  2.000E+04 -9.032E-02
   1   12   16     1    16    1.2020E+05 -1.9345E+03   1.2214E+05  0.000E+00  0.000E+00  0.000E+00  4.12646E+01  1.623E-01  2.000E+01  2.000E+04 -9.672E-02
   1   12   17     1    17    1.2214E+05 -1.1340E+03   1.2327E+05  0.000E+00  0.000E+00  0.000E+00  4.07885E+01  1.635E-01  2.000E+01  2.000E+04 -5.670E-02
   1   12   18     1    18    1.2327E+05 -7.9280E+02   1.2406E+05  0.000E+00  0.000E+00  0.000E+00  4.03120E+01  1.643E-01  2.000E+01  2.000E+04 -3.964E-02
   1   12   19     1    19    1.2406E+05  3.9970E+02   1.2366E+05  0.000E+00  0.000E+00  0.000E+00  3.98349E+01  1.645E-01  2.000E+01  2.000E+04  1.999E-02
   1   13   20     1    20    1.2366E+05  3.0538E+02   1.2336E+05  0.000E+00  0.000E+00  0.000E+00  3.93574E+01  1.642E-01  2.000E+01  2.000E+04  1.527E-02
   1   14   21     1    21    1.2336E+05 -8.9566E+02   1.2425E+05  0.000E+00  0.000E+00  0.000E+00  3.88803E+01  1.644E-01  2.000E+01  2.000E+04 -4.478E-02
   1   14   22     1    22    1.2425E+05  5.2599E+03   1.1899E+05  0.000E+00  0.000E+00  0.000E+00  3.84013E+01  1.627E-01  2.000E+01  2.000E+04  2.630E-01
   1    9   30     2     1    5.0000E+04 -2.9889E+02   5.0299E+04  0.000E+00  0.000E+00  0.000E+00  4.02411E+01  1.161E-01  2.000E+01  2.000E+04 -1.494E-02
   1    9   29     2     2    5.0299E+04 -5.4906E+02   5.0848E+04  0.000E+00  0.000E+00  0.000E+00  3.99917E+01  1.167E-01  2.000E+01  2.000E+04 -2.745E-02
   1    9   28     2     3    5.0848E+04 -6.6589E+02   5.1514E+04  0.000E+00  0.000E+00  0.000E+00  3.97425E+01  1.175E-01  2.000E+01  2.000E+04 -3.329E-02
   1    9   27     2     4    5.1514E+04 -8.9696E+02   5.2411E+04  0.000E+00  0.000E+00  0.000E+00  3.94936E+01  1.186E-01  2.000E+01  2.000E+04 -4.485E-02
   1   10   26     2     5    5.2411E+04  1.0628E+03   5.1348E+04  0.000E+00  0.000E+00  0.000E+00  3.92435E+01  1.185E-01  2.000E+01  2.000E+04  5.314E-02
   1   11   25     2     6    5.1348E+04  2.4184E+03   4.8930E+04  0.000E+00  0.000E+00  0.000E+00  3.89911E+01  1.161E-01  2.000E+01  2.000E+04  1.209E-01
   1   12   24     2     7    4.8930E+04  2.0362E+03   4.6893E+04  0.000E+00  0.000E+00  0.000E+00  3.87379E+01  1.129E-01  2.000E+01  2.000E+04  1.018E-01
   1   13   23     2     8    4.6893E+04  2.2986E+02   4.6664E+04  0.000E+00  0.000E+00  0.000E+00  3.84863E+01  1.113E-01  2.000E+01  2.000E+04  1.149E-02
   1   14   22     2     9    4.6664E+04  1.9291E+03   4.4734E+04  0.000E+00  0.000E+00  0.000E+00  3.82348E+01  1.098E-01  2.000E+01  2.000E+04  9.646E-02
   1   14   22     3     1    1.6373E+05 -8.3790E+03   1.7211E+05  0.000E+00  0.000E+00  0.000E+00  3.77194E+01  1.638E-01  2.000E+01  2.000E+04 -4.189E-01
   1   15   23     3     2    1.7211E+05 -5.5344E+02   1.7266E+05  0.000E+00  0.000E+00  0.000E+00  3.68331E+01  1.664E-01  2.000E+01  2.000E+04 -2.767E-02
   1   15   24     3     3    1.7266E+05 -2.7466E+02   1.7293E+05  0.000E+00  0.000E+00  0.000E+00  3.59444E+01  1.667E-01  2.000E+01  2.000E+04 -1.373E-02
   1   15   25     3     4    1.7293E+05 -2.6307E+02   1.7320E+05  0.000E+00  0.000E+00  0.000E+00  3.50557E+01  1.668E-01  2.000E+01  2.000E+04 -1.315E-02
   1   15   26     3     5    1.7320E+05 -3.0671E+02   1.7350E+05  0.000E+00  0.000E+00  0.000E+00  3.41670E+01  1.670E-01  2.000E+01  2.000E+04 -1.534E-02
   1   16   27     3     6    1.7350E+05 -3.4695E+02   1.7385E+05  0.000E+00  0.000E+00  0.000E+00  3.32783E+01  1.672E-01  2.000E+01  2.000E+04 -1.735E-02
   1   17   28     3     7    1.7385E+05 -1.5290E+03   1.7538E+05  0.000E+00  0.000E+00  0.000E+00  3.23899E+01  1.677E-01  2.000E+01  2.000E+04 -7.645E-02
   1   18   29     3     8    1.7538E+05 -2.9872E+03   1.7837E+05  0.000E+00  0.000E+00  0.000E+00  3.15023E+01  1.690E-01  2.000E+01  2.000E+04 -1.494E-01
   1   18   30     3     9    1.7837E+05 -3.2056E+03   1.8157E+05  0.000E+00  0.000E+00  0.000E+00  3.06152E+01  1.708E-01  2.000E+01  2.000E+04 -1.603E-01



1
              HEAD IN LAYER   1 AT END OF TIME STEP   1 IN STRESS PERIOD    5
  ---------------------------------------------------------------------------

          1      2      3      4      5      6      7      8      9     10
         11     12     13     14     15     16     17     18     19     20
         21     22     23     24     25     26     27     28     29     30
 .........................................................................
   1  ****** ****** ****** ****** ****** ****** ****** ****** ****** ******
      ****** ****** ****** ****** ****** ****** ****** ****** ****** ******
      ****** ****** ****** ****** ****** ****** ****** ****** ****** ******
   2  ****** ****** ****** ****** ****** ****** ****** ****** ****** ******
      ****** ****** ****** ****** ****** ****** ****** ****** ****** ******
      ****** ****** ****** ****** ****** ****** ****** ****** ****** ******
   3  ****** ****** ****** ****** ****** ****** ****** ****** ****** ******
      ****** ****** ****** ****** ****** ****** ****** ****** ****** ******
      ****** ****** ****** ****** ****** ****** ****** ****** ****** ******
   4  ****** ****** ****** ****** ****** ****** ****** ****** ****** ******
      ****** ****** ****** ****** ****** ****** ****** ****** ****** ******
      ****** ****** ****** ****** ****** ****** ****** ****** ****** ******
   5  ****** ****** ****** ****** ****** ****** ****** ****** ****** ******
      ****** ****** ****** ****** ****** ****** ****** ****** ****** ******
      ****** ****** ****** ****** ****** ****** ****** ****** ****** ******
   6  ****** ****** ****** ****** ****** ****** ****** ****** ****** ******
      ****** ****** ****** ****** ****** ****** ****** ****** ****** ******
      ****** ****** ****** ****** ****** ****** ****** ****** ****** ******
   7  ****** ****** ****** ****** ****** ****** ****** ****** ****** ******
      ****** ****** ****** ****** ****** ****** ****** ****** ****** ******
      ****** ****** ****** ****** ****** ****** ****** ****** ****** ******
   8  ****** ****** ****** ****** ****** ****** ****** ****** ****** ******
      ****** ****** ****** ****** ****** ****** ****** ****** ****** ******
      ****** ****** ****** ****** ****** ****** ****** ****** ****** ******
   9  ****** ****** ****** ****** ****** ****** ****** ****** ****** ******
      ****** ****** ****** ****** ****** ****** ****** ****** ****** ******
      ****** ****** ****** ****** ****** ****** ****** ****** ****** ******
  10  ****** ****** ****** ****** ****** ****** ****** ****** ****** ******
      ****** ****** ****** ****** ****** ****** ****** ****** ****** ******
      ****** ****** ****** ****** ****** ****** ****** ****** ****** ******
  11  ****** ****** ****** ****** ****** ****** ****** ****** ****** ******
      ****** ****** ****** ****** ****** ****** ****** ****** ****** ******
      ****** ****** ****** ****** ****** ****** ****** ****** ****** ******
  12  ****** ****** ****** ****** ****** ****** ****** ****** ****** ******
      ****** ****** ****** ****** ****** ****** ****** ****** ****** ******
      ****** ****** ****** ****** ****** ****** ****** ****** ****** ******
  13  ****** ****** ****** ****** ****** ****** ****** ****** ****** ******
      ****** ****** ****** ****** ****** ****** ****** ****** ****** ******
      ****** ****** ****** ****** ****** ****** ****** ****** ****** ******
  14  ****** ****** ****** ****** ****** ****** ****** ****** ****** ******
      ****** ****** ****** ****** ****** ****** ****** ****** ****** ******
      ****** ****** ****** ****** ****** ****** ****** ****** ****** ******
  15  ****** ****** ****** ****** ****** ****** ****** ****** ****** ******
      ****** ****** ****** ****** ****** ****** ****** ****** ****** ******
      ****** ****** ****** ****** ****** ****** ****** ****** ****** ******
  16  ****** ****** ****** ****** ****** ****** ****** ****** ****** ******
      ****** ****** ****** ****** ****** ****** ****** ****** ****** ******
      ****** ****** ****** ****** ****** ****** ****** ****** ****** ******
  17  ****** ****** ****** ****** ****** ****** ****** ****** ****** ******
      ****** ****** ****** ****** ****** ****** ****** ****** ****** ******
      ****** ****** ****** ****** ****** ****** ****** ****** ****** ******
  18  ****** ****** ****** ****** ****** ****** ****** ****** ****** ******
      ****** ****** ****** ****** ****** ****** ****** ****** ****** ******
      ****** ****** ****** ****** ****** ****** ****** ****** ****** ******
  19  ****** ****** ****** ****** ****** ****** ****** ****** ****** ******
      ****** ****** ****** ****** ****** ****** ****** ****** ****** ******
      ****** ****** ****** ****** ****** ****** ****** ****** ****** ******
  20  ****** ****** ****** ****** ****** ****** ****** ****** ****** ******
      ****** ****** ****** ****** ****** ****** ****** ****** ****** ******
      ****** ****** ****** ****** ****** ****** ****** ****** ****** ******
  21  ****** ****** ****** ****** ****** ****** ****** ****** ****** ******
      ****** ****** ****** ****** ****** ****** ****** ****** ****** ******
      ****** ****** ****** ****** ****** ****** ****** ****** ****** ******
  22  ****** ****** ****** ****** ****** ****** ****** ****** ****** ******
      ****** ****** ****** ****** ****** ****** ****** ****** ****** ******
      ****** ****** ****** ****** ****** ****** ****** ****** ****** ******
  23  ****** ****** ****** ****** ****** ****** ****** ****** ****** ******
      ****** ****** ****** ****** ****** ****** ****** ****** ****** ******
      ****** ****** ****** ****** ****** ****** ****** ****** ****** ******
  24  ****** ****** ****** ****** ****** ****** ****** ****** ****** ******
      ****** ****** ****** ****** ****** ****** ****** ****** ****** ******
      ****** ****** ****** ****** ****** ****** ****** ****** ****** ******
  25  ****** ****** ****** ****** ****** ****** ****** ****** ****** ******
      ****** ****** ****** ****** ****** ****** ****** ****** ****** ******
      ****** ****** ****** ****** ****** ****** ****** ****** ****** ******

 HEAD WILL BE SAVED ON UNIT   51 AT END OF TIME STEP    1, STRESS PERIOD    5
1
  VOLUMETRIC BUDGET FOR ENTIRE MODEL AT END OF TIME STEP    1, STRESS PERIOD   5
  ------------------------------------------------------------------------------

     CUMULATIVE VOLUMES      L**3       RATES FOR THIS TIME STEP      L**3/T
     ------------------                 ------------------------

           IN:                                      IN:
           ---                                      ---
             STORAGE =    32370719.9655               STORAGE =       20157.8370
       CONSTANT HEAD =    10962694.1251         CONSTANT HEAD =       32776.6163
               WELLS =           0.0000                 WELLS =           0.0000
            RECHARGE =    10074000.0000              RECHARGE =       13800.0000
      STREAM LEAKAGE =     4291794.1154        STREAM LEAKAGE =       13641.3325

            TOTAL IN =    57699208.2061              TOTAL IN =       80375.7858

          OUT:                                     OUT:
          ----                                     ----
             STORAGE =        1135.3294               STORAGE =           0.0000
       CONSTANT HEAD =           0.0000         CONSTANT HEAD =           0.0000
               WELLS =    16068945.2981                 WELLS =       35161.8059
            RECHARGE =           0.0000              RECHARGE =           0.0000
      STREAM LEAKAGE =    41629129.9046        STREAM LEAKAGE =       45213.9833

           TOTAL OUT =    57699210.5321             TOTAL OUT =       80375.7892

            IN - OUT =          -2.3261              IN - OUT =      -3.3700E-03

 PERCENT DISCREPANCY =          -0.00     PERCENT DISCREPANCY =          -0.00






         TIME SUMMARY AT END OF TIME STEP    1 IN STRESS PERIOD    5
                    SECONDS     MINUTES      HOURS       DAYS        YEARS
                    -----------------------------------------------------------
   TIME STEP LENGTH 7.94880E+06 1.32480E+05  2208.0      92.000     0.25188    
 STRESS PERIOD TIME 7.94880E+06 1.32480E+05  2208.0      92.000     0.25188    
         TOTAL TIME 3.94848E+07 6.58080E+05  10968.      457.00      1.2512    
1
1
                            STRESS PERIOD NO.    6, LENGTH =   91.00000    
                            -----------------------------------------------

                              NUMBER OF TIME STEPS =     1

                               MULTIPLIER FOR DELT =     1.500

                            INITIAL TIME STEP SIZE =   91.00000    

 WELL NO.  LAYER   ROW   COL   STRESS RATE         
 --------------------------------------------------
      1      1     14      6       0.000    
      2      1      3      9       0.000    
      3      1     20     10       0.000    
      4      1     14     20       0.000    
      5      1     10     24     -0.1045E+05
      6      1      7      8      -7751.    
      7      1      5     20      -7335.    
      8      1     11     21      -9620.    

      8 WELLS

                 RECHARGE =  2.000000E-03

 REUSING STREAM SEGMENT DATA FROM LAST STRESS PERIOD
 
 SOLVING FOR HEAD 


     7 CALLS TO PCG ROUTINE FOR TIME STEP   1 IN STRESS PERIOD    6
    26 TOTAL ITERATIONS

 OUTPUT CONTROL FOR STRESS PERIOD    6   TIME STEP    1
    SAVE BUDGET
    SAVE HEAD FOR ALL LAYERS
    PRINT HEAD FOR ALL LAYERS
 UBDSV2 SAVING "STREAMFLOW OUT  " ON UNIT  50 AT TIME STEP  1, STRESS PERIOD   6



 STREAM LISTING     PERIOD      6   STEP        1

 LAYER ROW COL. STREAM  RCH.  FLOW INTO     FLOW TO   FLOW OUT OF   OVRLND.     DIRECT     STREAM       STREAM     STREAM     STREAM   STREAMBED  STREAMBED
                SEG.NO.  NO.  STRM. RCH.    AQUIFER    STRM. RCH.    RUNOFF     PRECIP       ET          HEAD       DEPTH      WIDTH   CONDCTNC.   GRADIENT

   1   13    1     1     1    1.0000E+05 -1.8473E+03   1.0185E+05  0.000E+00  0.000E+00  0.000E+00  4.84068E+01  1.455E-01  2.000E+01  2.000E+04 -9.237E-02
   1   13    2     1     2    1.0185E+05 -2.8371E+03   1.0468E+05  0.000E+00  0.000E+00  0.000E+00  4.79316E+01  1.475E-01  2.000E+01  2.000E+04 -1.419E-01
   1   14    3     1     3    1.0468E+05 -6.0660E+02   1.0529E+05  0.000E+00  0.000E+00  0.000E+00  4.74558E+01  1.489E-01  2.000E+01  2.000E+04 -3.033E-02
   1   15    4     1     4    1.0529E+05 -6.0511E+02   1.0590E+05  0.000E+00  0.000E+00  0.000E+00  4.69790E+01  1.495E-01  2.000E+01  2.000E+04 -3.026E-02
   1   16    5     1     5    1.0590E+05 -2.2282E+03   1.0812E+05  0.000E+00  0.000E+00  0.000E+00  4.65029E+01  1.507E-01  2.000E+01  2.000E+04 -1.114E-01
   1   16    6     1     6    1.0812E+05 -1.3841E+03   1.0951E+05  0.000E+00  0.000E+00  0.000E+00  4.60272E+01  1.522E-01  2.000E+01  2.000E+04 -6.920E-02
   1   16    7     1     7    1.0951E+05 -1.3530E+03   1.1086E+05  0.000E+00  0.000E+00  0.000E+00  4.55510E+01  1.533E-01  2.000E+01  2.000E+04 -6.765E-02
   1   16    8     1     8    1.1086E+05 -1.3482E+03   1.1221E+05  0.000E+00  0.000E+00  0.000E+00  4.50749E+01  1.544E-01  2.000E+01  2.000E+04 -6.741E-02
   1   16    9     1     9    1.1221E+05 -1.3440E+03   1.1355E+05  0.000E+00  0.000E+00  0.000E+00  4.45987E+01  1.556E-01  2.000E+01  2.000E+04 -6.720E-02
   1   16   10     1    10    1.1355E+05 -1.3391E+03   1.1489E+05  0.000E+00  0.000E+00  0.000E+00  4.41226E+01  1.567E-01  2.000E+01  2.000E+04 -6.696E-02
   1   16   11     1    11    1.1489E+05 -1.3566E+03   1.1625E+05  0.000E+00  0.000E+00  0.000E+00  4.36464E+01  1.578E-01  2.000E+01  2.000E+04 -6.783E-02
   1   16   12     1    12    1.1625E+05 -2.2831E+03   1.1853E+05  0.000E+00  0.000E+00  0.000E+00  4.31706E+01  1.593E-01  2.000E+01  2.000E+04 -1.142E-01
   1   15   13     1    13    1.1853E+05 -2.0407E+03   1.2057E+05  0.000E+00  0.000E+00  0.000E+00  4.26951E+01  1.610E-01  2.000E+01  2.000E+04 -1.020E-01
   1   14   14     1    14    1.2057E+05 -2.1426E+03   1.2272E+05  0.000E+00  0.000E+00  0.000E+00  4.22195E+01  1.627E-01  2.000E+01  2.000E+04 -1.071E-01
   1   13   15     1    15    1.2272E+05 -2.2056E+03   1.2492E+05  0.000E+00  0.000E+00  0.000E+00  4.17440E+01  1.644E-01  2.000E+01  2.000E+04 -1.103E-01
   1   12   16     1    16    1.2492E+05 -2.2714E+03   1.2719E+05  0.000E+00  0.000E+00  0.000E+00  4.12685E+01  1.662E-01  2.000E+01  2.000E+04 -1.136E-01
   1   12   17     1    17    1.2719E+05 -1.4242E+03   1.2862E+05  0.000E+00  0.000E+00  0.000E+00  4.07927E+01  1.677E-01  2.000E+01  2.000E+04 -7.121E-02
   1   12   18     1    18    1.2862E+05 -1.0906E+03   1.2971E+05  0.000E+00  0.000E+00  0.000E+00  4.03164E+01  1.687E-01  2.000E+01  2.000E+04 -5.453E-02
   1   12   19     1    19    1.2971E+05  3.0380E+01   1.2968E+05  0.000E+00  0.000E+00  0.000E+00  3.98395E+01  1.691E-01  2.000E+01  2.000E+04  1.519E-03
   1   13   20     1    20    1.2968E+05 -1.0933E+02   1.2979E+05  0.000E+00  0.000E+00  0.000E+00  3.93623E+01  1.691E-01  2.000E+01  2.000E+04 -5.467E-03
   1   14   21     1    21    1.2979E+05 -1.3115E+03   1.3110E+05  0.000E+00  0.000E+00  0.000E+00  3.88856E+01  1.697E-01  2.000E+01  2.000E+04 -6.558E-02
   1   14   22     1    22    1.3110E+05  5.1491E+03   1.2595E+05  0.000E+00  0.000E+00  0.000E+00  3.84068E+01  1.682E-01  2.000E+01  2.000E+04  2.575E-01
   1    9   30     2     1    5.0000E+04 -6.5481E+02   5.0655E+04  0.000E+00  0.000E+00  0.000E+00  4.02413E+01  1.163E-01  2.000E+01  2.000E+04 -3.274E-02
   1    9   29     2     2    5.0655E+04 -9.0006E+02   5.1555E+04  0.000E+00  0.000E+00  0.000E+00  3.99924E+01  1.174E-01  2.000E+01  2.000E+04 -4.500E-02
   1    9   28     2     3    5.1555E+04 -1.0086E+03   5.2564E+04  0.000E+00  0.000E+00  0.000E+00  3.97437E+01  1.187E-01  2.000E+01  2.000E+04 -5.043E-02
   1    9   27     2     4    5.2564E+04 -1.3227E+03   5.3886E+04  0.000E+00  0.000E+00  0.000E+00  3.94953E+01  1.203E-01  2.000E+01  2.000E+04 -6.613E-02
   1   10   26     2     5    5.3886E+04  6.0904E+02   5.3277E+04  0.000E+00  0.000E+00  0.000E+00  3.92458E+01  1.208E-01  2.000E+01  2.000E+04  3.045E-02
   1   11   25     2     6    5.3277E+04  1.9779E+03   5.1299E+04  0.000E+00  0.000E+00  0.000E+00  3.89940E+01  1.190E-01  2.000E+01  2.000E+04  9.890E-02
   1   12   24     2     7    5.1299E+04  1.6404E+03   4.9659E+04  0.000E+00  0.000E+00  0.000E+00  3.87415E+01  1.165E-01  2.000E+01  2.000E+04  8.202E-02
   1   13   23     2     8    4.9659E+04  9.4192E+01   4.9565E+04  0.000E+00  0.000E+00  0.000E+00  3.84903E+01  1.153E-01  2.000E+01  2.000E+04  4.710E-03
   1   14   22     2     9    4.9565E+04  1.7933E+03   4.7771E+04  0.000E+00  0.000E+00  0.000E+00  3.82390E+01  1.140E-01  2.000E+01  2.000E+04  8.967E-02
   1   14   22     3     1    1.7372E+05 -8.4831E+03   1.8220E+05  0.000E+00  0.000E+00  0.000E+00  3.77252E+01  1.696E-01  2.000E+01  2.000E+04 -4.242E-01
   1   15   23     3     2    1.8220E+05 -6.9265E+02   1.8290E+05  0.000E+00  0.000E+00  0.000E+00  3.68389E+01  1.722E-01  2.000E+01  2.000E+04 -3.463E-02
   1   15   24     3     3    1.8290E+05 -3.9764E+02   1.8329E+05  0.000E+00  0.000E+00  0.000E+00  3.59503E+01  1.725E-01  2.000E+01  2.000E+04 -1.988E-02
   1   15   25     3     4    1.8329E+05 -3.9039E+02   1.8368E+05  0.000E+00  0.000E+00  0.000E+00  3.50617E+01  1.728E-01  2.000E+01  2.000E+04 -1.952E-02
   1   15   26     3     5    1.8368E+05 -4.5868E+02   1.8414E+05  0.000E+00  0.000E+00  0.000E+00  3.41730E+01  1.730E-01  2.000E+01  2.000E+04 -2.293E-02
   1   16   27     3     6    1.8414E+05 -5.1675E+02   1.8466E+05  0.000E+00  0.000E+00  0.000E+00  3.32844E+01  1.733E-01  2.000E+01  2.000E+04 -2.584E-02
   1   17   28     3     7    1.8466E+05 -1.9958E+03   1.8666E+05  0.000E+00  0.000E+00  0.000E+00  3.23962E+01  1.740E-01  2.000E+01  2.000E+04 -9.979E-02
   1   18   29     3     8    1.8666E+05 -3.4356E+03   1.9009E+05  0.000E+00  0.000E+00  0.000E+00  3.15088E+01  1.755E-01  2.000E+01  2.000E+04 -1.718E-01
   1   18   30     3     9    1.9009E+05 -3.5672E+03   1.9366E+05  0.000E+00  0.000E+00  0.000E+00  3.06219E+01  1.775E-01  2.000E+01  2.000E+04 -1.784E-01



1
              HEAD IN LAYER   1 AT END OF TIME STEP   1 IN STRESS PERIOD    6
  ---------------------------------------------------------------------------

          1      2      3      4      5      6      7      8      9     10
         11     12     13     14     15     16     17     18     19     20
         21     22     23     24     25     26     27     28     29     30
 .........................................................................
   1  ****** ****** ****** ****** ****** ****** ****** ****** ****** ******
      ****** ****** ****** ****** ****** ****** ****** ****** ****** ******
      ****** ****** ****** ****** ****** ****** ****** ****** ****** ******
   2  ****** ****** ****** ****** ****** ****** ****** ****** ****** ******
      ****** ****** ****** ****** ****** ****** ****** ****** ****** ******
      ****** ****** ****** ****** ****** ****** ****** ****** ****** ******
   3  ****** ****** ****** ****** ****** ****** ****** ****** ****** ******
      ****** ****** ****** ****** ****** ****** ****** ****** ****** ******
      ****** ****** ****** ****** ****** ****** ****** ****** ****** ******
   4  ****** ****** ****** ****** ****** ****** ****** ****** ****** ******
      ****** ****** ****** ****** ****** ****** ****** ****** ****** ******
      ****** ****** ****** ****** ****** ****** ****** ****** ****** ******
   5  ****** ****** ****** ****** ****** ****** ****** ****** ****** ******
      ****** ****** ****** ****** ****** ****** ****** ****** ****** ******
      ****** ****** ****** ****** ****** ****** ****** ****** ****** ******
   6  ****** ****** ****** ****** ****** ****** ****** ****** ****** ******
      ****** ****** ****** ****** ****** ****** ****** ****** ****** ******
      ****** ****** ****** ****** ****** ****** ****** ****** ****** ******
   7  ****** ****** ****** ****** ****** ****** ****** ****** ****** ******
      ****** ****** ****** ****** ****** ****** ****** ****** ****** ******
      ****** ****** ****** ****** ****** ****** ****** ****** ****** ******
   8  ****** ****** ****** ****** ****** ****** ****** ****** ****** ******
      ****** ****** ****** ****** ****** ****** ****** ****** ****** ******
      ****** ****** ****** ****** ****** ****** ****** ****** ****** ******
   9  ****** ****** ****** ****** ****** ****** ****** ****** ****** ******
      ****** ****** ****** ****** ****** ****** ****** ****** ****** ******
      ****** ****** ****** ****** ****** ****** ****** ****** ****** ******
  10  ****** ****** ****** ****** ****** ****** ****** ****** ****** ******
      ****** ****** ****** ****** ****** ****** ****** ****** ****** ******
      ****** ****** ****** ****** ****** ****** ****** ****** ****** ******
  11  ****** ****** ****** ****** ****** ****** ****** ****** ****** ******
      ****** ****** ****** ****** ****** ****** ****** ****** ****** ******
      ****** ****** ****** ****** ****** ****** ****** ****** ****** ******
  12  ****** ****** ****** ****** ****** ****** ****** ****** ****** ******
      ****** ****** ****** ****** ****** ****** ****** ****** ****** ******
      ****** ****** ****** ****** ****** ****** ****** ****** ****** ******
  13  ****** ****** ****** ****** ****** ****** ****** ****** ****** ******
      ****** ****** ****** ****** ****** ****** ****** ****** ****** ******
      ****** ****** ****** ****** ****** ****** ****** ****** ****** ******
  14  ****** ****** ****** ****** ****** ****** ****** ****** ****** ******
      ****** ****** ****** ****** ****** ****** ****** ****** ****** ******
      ****** ****** ****** ****** ****** ****** ****** ****** ****** ******
  15  ****** ****** ****** ****** ****** ****** ****** ****** ****** ******
      ****** ****** ****** ****** ****** ****** ****** ****** ****** ******
      ****** ****** ****** ****** ****** ****** ****** ****** ****** ******
  16  ****** ****** ****** ****** ****** ****** ****** ****** ****** ******
      ****** ****** ****** ****** ****** ****** ****** ****** ****** ******
      ****** ****** ****** ****** ****** ****** ****** ****** ****** ******
  17  ****** ****** ****** ****** ****** ****** ****** ****** ****** ******
      ****** ****** ****** ****** ****** ****** ****** ****** ****** ******
      ****** ****** ****** ****** ****** ****** ****** ****** ****** ******
  18  ****** ****** ****** ****** ****** ****** ****** ****** ****** ******
      ****** ****** ****** ****** ****** ****** ****** ****** ****** ******
      ****** ****** ****** ****** ****** ****** ****** ****** ****** ******
  19  ****** ****** ****** ****** ****** ****** ****** ****** ****** ******
      ****** ****** ****** ****** ****** ****** ****** ****** ****** ******
      ****** ****** ****** ****** ****** ****** ****** ****** ****** ******
  20  ****** ****** ****** ****** ****** ****** ****** ****** ****** ******
      ****** ****** ****** ****** ****** ****** ****** ****** ****** ******
      ****** ****** ****** ****** ****** ****** ****** ****** ****** ******
  21  ****** ****** ****** ****** ****** ****** ****** ****** ****** ******
      ****** ****** ****** ****** ****** ****** ****** ****** ****** ******
      ****** ****** ****** ****** ****** ****** ****** ****** ****** ******
  22  ****** ****** ****** ****** ****** ****** ****** ****** ****** ******
      ****** ****** ****** ****** ****** ****** ****** ****** ****** ******
      ****** ****** ****** ****** ****** ****** ****** ****** ****** ******
  23  ****** ****** ****** ****** ****** ****** ****** ****** ****** ******
      ****** ****** ****** ****** ****** ****** ****** ****** ****** ******
      ****** ****** ****** ****** ****** ****** ****** ****** ****** ******
  24  ****** ****** ****** ****** ****** ****** ****** ****** ****** ******
      ****** ****** ****** ****** ****** ****** ****** ****** ****** ******
      ****** ****** ****** ****** ****** ****** ****** ****** ****** ******
  25  ****** ****** ****** ****** ****** ****** ****** ****** ****** ******
      ****** ****** ****** ****** ****** ****** ****** ****** ****** ******
      ****** ****** ****** ****** ****** ****** ****** ****** ****** ******

 HEAD WILL BE SAVED ON UNIT   51 AT END OF TIME STEP    1, STRESS PERIOD    6
1
  VOLUMETRIC BUDGET FOR ENTIRE MODEL AT END OF TIME STEP    1, STRESS PERIOD   6
  ------------------------------------------------------------------------------

     CUMULATIVE VOLUMES      L**3       RATES FOR THIS TIME STEP      L**3/T
     ------------------                 ------------------------

           IN:                                      IN:
           ---                                      ---
             STORAGE =    32397082.4908               STORAGE =         289.6981
       CONSTANT HEAD =    13785805.7766         CONSTANT HEAD =       31023.2050
               WELLS =           0.0000                 WELLS =           0.0000
            RECHARGE =    15097200.0000              RECHARGE =       55200.0000
      STREAM LEAKAGE =     5319575.5652        STREAM LEAKAGE =       11294.3016

            TOTAL IN =    66599663.8325              TOTAL IN =       97807.2047

          OUT:                                     OUT:
          ----                                     ----
             STORAGE =      701217.1062               STORAGE =        7693.2063
       CONSTANT HEAD =           0.0000         CONSTANT HEAD =           0.0000
               WELLS =    19268669.6353                 WELLS =       35161.8059
            RECHARGE =           0.0000              RECHARGE =           0.0000
      STREAM LEAKAGE =    46629779.1618        STREAM LEAKAGE =       54952.1896

           TOTAL OUT =    66599665.9033             TOTAL OUT =       97807.2019

            IN - OUT =          -2.0708              IN - OUT =       2.8055E-03

 PERCENT DISCREPANCY =          -0.00     PERCENT DISCREPANCY =           0.00






         TIME SUMMARY AT END OF TIME STEP    1 IN STRESS PERIOD    6
                    SECONDS     MINUTES      HOURS       DAYS        YEARS
                    -----------------------------------------------------------
   TIME STEP LENGTH 7.86240E+06 1.31040E+05  2184.0      91.000     0.24914    
 STRESS PERIOD TIME 7.86240E+06 1.31040E+05  2184.0      91.000     0.24914    
         TOTAL TIME 4.73472E+07 7.89120E+05  13152.      548.00      1.5003    
1
1
                            STRESS PERIOD NO.    7, LENGTH =   91.00000    
                            -----------------------------------------------

                              NUMBER OF TIME STEPS =     1

                               MULTIPLIER FOR DELT =     1.500

                            INITIAL TIME STEP SIZE =   91.00000    

 WELL NO.  LAYER   ROW   COL   STRESS RATE         
 --------------------------------------------------
      1      1     14      6       0.000    
      2      1      3      9       0.000    
      3      1     20     10       0.000    
      4      1     14     20       0.000    
      5      1     10     24     -0.1045E+05
      6      1      7      8      -7751.    
      7      1      5     20      -7335.    
      8      1     11     21      -9620.    

      8 WELLS

                 RECHARGE =   0.00000    

 REUSING STREAM SEGMENT DATA FROM LAST STRESS PERIOD
 
 SOLVING FOR HEAD 


     7 CALLS TO PCG ROUTINE FOR TIME STEP   1 IN STRESS PERIOD    7
    26 TOTAL ITERATIONS

 OUTPUT CONTROL FOR STRESS PERIOD    7   TIME STEP    1
    SAVE BUDGET
    SAVE HEAD FOR ALL LAYERS
    PRINT HEAD FOR ALL LAYERS
 UBDSV2 SAVING "STREAMFLOW OUT  " ON UNIT  50 AT TIME STEP  1, STRESS PERIOD   7



 STREAM LISTING     PERIOD      7   STEP        1

 LAYER ROW COL. STREAM  RCH.  FLOW INTO     FLOW TO   FLOW OUT OF   OVRLND.     DIRECT     STREAM       STREAM     STREAM     STREAM   STREAMBED  STREAMBED
                SEG.NO.  NO.  STRM. RCH.    AQUIFER    STRM. RCH.    RUNOFF     PRECIP       ET          HEAD       DEPTH      WIDTH   CONDCTNC.   GRADIENT

   1   13    1     1     1    1.0000E+05 -1.1459E+03   1.0115E+05  0.000E+00  0.000E+00  0.000E+00  4.84065E+01  1.451E-01  2.000E+01  2.000E+04 -5.730E-02
   1   13    2     1     2    1.0115E+05 -2.0507E+03   1.0320E+05  0.000E+00  0.000E+00  0.000E+00  4.79306E+01  1.465E-01  2.000E+01  2.000E+04 -1.025E-01
   1   14    3     1     3    1.0320E+05 -3.4911E+02   1.0355E+05  0.000E+00  0.000E+00  0.000E+00  4.74544E+01  1.476E-01  2.000E+01  2.000E+04 -1.746E-02
   1   15    4     1     4    1.0355E+05 -3.3826E+02   1.0388E+05  0.000E+00  0.000E+00  0.000E+00  4.69774E+01  1.479E-01  2.000E+01  2.000E+04 -1.691E-02
   1   16    5     1     5    1.0388E+05 -1.4741E+03   1.0536E+05  0.000E+00  0.000E+00  0.000E+00  4.65009E+01  1.486E-01  2.000E+01  2.000E+04 -7.370E-02
   1   16    6     1     6    1.0536E+05 -9.2700E+02   1.0629E+05  0.000E+00  0.000E+00  0.000E+00  4.60246E+01  1.496E-01  2.000E+01  2.000E+04 -4.635E-02
   1   16    7     1     7    1.0629E+05 -9.1389E+02   1.0720E+05  0.000E+00  0.000E+00  0.000E+00  4.55482E+01  1.504E-01  2.000E+01  2.000E+04 -4.569E-02
   1   16    8     1     8    1.0720E+05 -9.1519E+02   1.0811E+05  0.000E+00  0.000E+00  0.000E+00  4.50717E+01  1.512E-01  2.000E+01  2.000E+04 -4.576E-02
   1   16    9     1     9    1.0811E+05 -9.1474E+02   1.0903E+05  0.000E+00  0.000E+00  0.000E+00  4.45952E+01  1.520E-01  2.000E+01  2.000E+04 -4.574E-02
   1   16   10     1    10    1.0903E+05 -9.1332E+02   1.0994E+05  0.000E+00  0.000E+00  0.000E+00  4.41186E+01  1.527E-01  2.000E+01  2.000E+04 -4.567E-02
   1   16   11     1    11    1.0994E+05 -9.3087E+02   1.1087E+05  0.000E+00  0.000E+00  0.000E+00  4.36421E+01  1.535E-01  2.000E+01  2.000E+04 -4.654E-02
   1   16   12     1    12    1.1087E+05 -1.5663E+03   1.1244E+05  0.000E+00  0.000E+00  0.000E+00  4.31659E+01  1.545E-01  2.000E+01  2.000E+04 -7.831E-02
   1   15   13     1    13    1.1244E+05 -1.2629E+03   1.1370E+05  0.000E+00  0.000E+00  0.000E+00  4.26898E+01  1.557E-01  2.000E+01  2.000E+04 -6.315E-02
   1   14   14     1    14    1.1370E+05 -1.3306E+03   1.1503E+05  0.000E+00  0.000E+00  0.000E+00  4.22136E+01  1.568E-01  2.000E+01  2.000E+04 -6.653E-02
   1   13   15     1    15    1.1503E+05 -1.3859E+03   1.1642E+05  0.000E+00  0.000E+00  0.000E+00  4.17374E+01  1.579E-01  2.000E+01  2.000E+04 -6.929E-02
   1   12   16     1    16    1.1642E+05 -1.4478E+03   1.1787E+05  0.000E+00  0.000E+00  0.000E+00  4.12613E+01  1.591E-01  2.000E+01  2.000E+04 -7.239E-02
   1   12   17     1    17    1.1787E+05 -8.3277E+02   1.1870E+05  0.000E+00  0.000E+00  0.000E+00  4.07850E+01  1.600E-01  2.000E+01  2.000E+04 -4.164E-02
   1   12   18     1    18    1.1870E+05 -5.1584E+02   1.1922E+05  0.000E+00  0.000E+00  0.000E+00  4.03083E+01  1.605E-01  2.000E+01  2.000E+04 -2.579E-02
   1   12   19     1    19    1.1922E+05  7.3282E+02   1.1848E+05  0.000E+00  0.000E+00  0.000E+00  3.98309E+01  1.604E-01  2.000E+01  2.000E+04  3.664E-02
   1   13   20     1    20    1.1848E+05  5.6437E+02   1.1792E+05  0.000E+00  0.000E+00  0.000E+00  3.93531E+01  1.599E-01  2.000E+01  2.000E+04  2.822E-02
   1   14   21     1    21    1.1792E+05 -6.5330E+02   1.1857E+05  0.000E+00  0.000E+00  0.000E+00  3.88759E+01  1.600E-01  2.000E+01  2.000E+04 -3.267E-02
   1   14   22     1    22    1.1857E+05  5.3097E+03   1.1326E+05  0.000E+00  0.000E+00  0.000E+00  3.83967E+01  1.581E-01  2.000E+01  2.000E+04  2.655E-01
   1    9   30     2     1    5.0000E+04 -1.3673E+02   5.0137E+04  0.000E+00  0.000E+00  0.000E+00  4.02410E+01  1.160E-01  2.000E+01  2.000E+04 -6.837E-03
   1    9   29     2     2    5.0137E+04 -3.8343E+02   5.0520E+04  0.000E+00  0.000E+00  0.000E+00  3.99913E+01  1.163E-01  2.000E+01  2.000E+04 -1.917E-02
   1    9   28     2     3    5.0520E+04 -4.8976E+02   5.1010E+04  0.000E+00  0.000E+00  0.000E+00  3.97419E+01  1.169E-01  2.000E+01  2.000E+04 -2.449E-02
   1    9   27     2     4    5.1010E+04 -6.1366E+02   5.1624E+04  0.000E+00  0.000E+00  0.000E+00  3.94927E+01  1.177E-01  2.000E+01  2.000E+04 -3.068E-02
   1   10   26     2     5    5.1624E+04  1.3178E+03   5.0306E+04  0.000E+00  0.000E+00  0.000E+00  3.92422E+01  1.172E-01  2.000E+01  2.000E+04  6.589E-02
   1   11   25     2     6    5.0306E+04  2.6573E+03   4.7648E+04  0.000E+00  0.000E+00  0.000E+00  3.89894E+01  1.144E-01  2.000E+01  2.000E+04  1.329E-01
   1   12   24     2     7    4.7648E+04  2.2602E+03   4.5388E+04  0.000E+00  0.000E+00  0.000E+00  3.87360E+01  1.110E-01  2.000E+01  2.000E+04  1.130E-01
   1   13   23     2     8    4.5388E+04  2.8731E+02   4.5101E+04  0.000E+00  0.000E+00  0.000E+00  3.84841E+01  1.091E-01  2.000E+01  2.000E+04  1.437E-02
   1   14   22     2     9    4.5101E+04  2.0247E+03   4.3076E+04  0.000E+00  0.000E+00  0.000E+00  3.82324E+01  1.074E-01  2.000E+01  2.000E+04  1.012E-01
   1   14   22     3     1    1.5634E+05 -8.3243E+03   1.6466E+05  0.000E+00  0.000E+00  0.000E+00  3.77150E+01  1.594E-01  2.000E+01  2.000E+04 -4.162E-01
   1   15   23     3     2    1.6466E+05 -4.8775E+02   1.6515E+05  0.000E+00  0.000E+00  0.000E+00  3.68287E+01  1.620E-01  2.000E+01  2.000E+04 -2.439E-02
   1   15   24     3     3    1.6515E+05 -2.2490E+02   1.6537E+05  0.000E+00  0.000E+00  0.000E+00  3.59400E+01  1.623E-01  2.000E+01  2.000E+04 -1.124E-02
   1   15   25     3     4    1.6537E+05 -2.1448E+02   1.6559E+05  0.000E+00  0.000E+00  0.000E+00  3.50513E+01  1.624E-01  2.000E+01  2.000E+04 -1.072E-02
   1   15   26     3     5    1.6559E+05 -2.5801E+02   1.6585E+05  0.000E+00  0.000E+00  0.000E+00  3.41625E+01  1.625E-01  2.000E+01  2.000E+04 -1.290E-02
   1   16   27     3     6    1.6585E+05 -2.8538E+02   1.6613E+05  0.000E+00  0.000E+00  0.000E+00  3.32738E+01  1.627E-01  2.000E+01  2.000E+04 -1.427E-02
   1   17   28     3     7    1.6613E+05 -1.3577E+03   1.6749E+05  0.000E+00  0.000E+00  0.000E+00  3.23854E+01  1.632E-01  2.000E+01  2.000E+04 -6.789E-02
   1   18   29     3     8    1.6749E+05 -2.7565E+03   1.7025E+05  0.000E+00  0.000E+00  0.000E+00  3.14977E+01  1.644E-01  2.000E+01  2.000E+04 -1.378E-01
   1   18   30     3     9    1.7025E+05 -3.0430E+03   1.7329E+05  0.000E+00  0.000E+00  0.000E+00  3.06105E+01  1.661E-01  2.000E+01  2.000E+04 -1.521E-01



1
              HEAD IN LAYER   1 AT END OF TIME STEP   1 IN STRESS PERIOD    7
  ---------------------------------------------------------------------------

          1      2      3      4      5      6      7      8      9     10
         11     12     13     14     15     16     17     18     19     20
         21     22     23     24     25     26     27     28     29     30
 .........................................................................
   1  ****** ****** ****** ****** ****** ****** ****** ****** ****** ******
      ****** ****** ****** ****** ****** ****** ****** ****** ****** ******
      ****** ****** ****** ****** ****** ****** ****** ****** ****** ******
   2  ****** ****** ****** ****** ****** ****** ****** ****** ****** ******
      ****** ****** ****** ****** ****** ****** ****** ****** ****** ******
      ****** ****** ****** ****** ****** ****** ****** ****** ****** ******
   3  ****** ****** ****** ****** ****** ****** ****** ****** ****** ******
      ****** ****** ****** ****** ****** ****** ****** ****** ****** ******
      ****** ****** ****** ****** ****** ****** ****** ****** ****** ******
   4  ****** ****** ****** ****** ****** ****** ****** ****** ****** ******
      ****** ****** ****** ****** ****** ****** ****** ****** ****** ******
      ****** ****** ****** ****** ****** ****** ****** ****** ****** ******
   5  ****** ****** ****** ****** ****** ****** ****** ****** ****** ******
      ****** ****** ****** ****** ****** ****** ****** ****** ****** ******
      ****** ****** ****** ****** ****** ****** ****** ****** ****** ******
   6  ****** ****** ****** ****** ****** ****** ****** ****** ****** ******
      ****** ****** ****** ****** ****** ****** ****** ****** ****** ******
      ****** ****** ****** ****** ****** ****** ****** ****** ****** ******
   7  ****** ****** ****** ****** ****** ****** ****** ****** ****** ******
      ****** ****** ****** ****** ****** ****** ****** ****** ****** ******
      ****** ****** ****** ****** ****** ****** ****** ****** ****** ******
   8  ****** ****** ****** ****** ****** ****** ****** ****** ****** ******
      ****** ****** ****** ****** ****** ****** ****** ****** ****** ******
      ****** ****** ****** ****** ****** ****** ****** ****** ****** ******
   9  ****** ****** ****** ****** ****** ****** ****** ****** ****** ******
      ****** ****** ****** ****** ****** ****** ****** ****** ****** ******
      ****** ****** ****** ****** ****** ****** ****** ****** ****** ******
  10  ****** ****** ****** ****** ****** ****** ****** ****** ****** ******
      ****** ****** ****** ****** ****** ****** ****** ****** ****** ******
      ****** ****** ****** ****** ****** ****** ****** ****** ****** ******
  11  ****** ****** ****** ****** ****** ****** ****** ****** ****** ******
      ****** ****** ****** ****** ****** ****** ****** ****** ****** ******
      ****** ****** ****** ****** ****** ****** ****** ****** ****** ******
  12  ****** ****** ****** ****** ****** ****** ****** ****** ****** ******
      ****** ****** ****** ****** ****** ****** ****** ****** ****** ******
      ****** ****** ****** ****** ****** ****** ****** ****** ****** ******
  13  ****** ****** ****** ****** ****** ****** ****** ****** ****** ******
      ****** ****** ****** ****** ****** ****** ****** ****** ****** ******
      ****** ****** ****** ****** ****** ****** ****** ****** ****** ******
  14  ****** ****** ****** ****** ****** ****** ****** ****** ****** ******
      ****** ****** ****** ****** ****** ****** ****** ****** ****** ******
      ****** ****** ****** ****** ****** ****** ****** ****** ****** ******
  15  ****** ****** ****** ****** ****** ****** ****** ****** ****** ******
      ****** ****** ****** ****** ****** ****** ****** ****** ****** ******
      ****** ****** ****** ****** ****** ****** ****** ****** ****** ******
  16  ****** ****** ****** ****** ****** ****** ****** ****** ****** ******
      ****** ****** ****** ****** ****** ****** ****** ****** ****** ******
      ****** ****** ****** ****** ****** ****** ****** ****** ****** ******
  17  ****** ****** ****** ****** ****** ****** ****** ****** ****** ******
      ****** ****** ****** ****** ****** ****** ****** ****** ****** ******
      ****** ****** ****** ****** ****** ****** ****** ****** ****** ******
  18  ****** ****** ****** ****** ****** ****** ****** ****** ****** ******
      ****** ****** ****** ****** ****** ****** ****** ****** ****** ******
      ****** ****** ****** ****** ****** ****** ****** ****** ****** ******
  19  ****** ****** ****** ****** ****** ****** ****** ****** ****** ******
      ****** ****** ****** ****** ****** ****** ****** ****** ****** ******
      ****** ****** ****** ****** ****** ****** ****** ****** ****** ******
  20  ****** ****** ****** ****** ****** ****** ****** ****** ****** ******
      ****** ****** ****** ****** ****** ****** ****** ****** ****** ******
      ****** ****** ****** ****** ****** ****** ****** ****** ****** ******
  21  ****** ****** ****** ****** ****** ****** ****** ****** ****** ******
      ****** ****** ****** ****** ****** ****** ****** ****** ****** ******
      ****** ****** ****** ****** ****** ****** ****** ****** ****** ******
  22  ****** ****** ****** ****** ****** ****** ****** ****** ****** ******
      ****** ****** ****** ****** ****** ****** ****** ****** ****** ******
      ****** ****** ****** ****** ****** ****** ****** ****** ****** ******
  23  ****** ****** ****** ****** ****** ****** ****** ****** ****** ******
      ****** ****** ****** ****** ****** ****** ****** ****** ****** ******
      ****** ****** ****** ****** ****** ****** ****** ****** ****** ******
  24  ****** ****** ****** ****** ****** ****** ****** ****** ****** ******
      ****** ****** ****** ****** ****** ****** ****** ****** ****** ******
      ****** ****** ****** ****** ****** ****** ****** ****** ****** ******
  25  ****** ****** ****** ****** ****** ****** ****** ****** ****** ******
      ****** ****** ****** ****** ****** ****** ****** ****** ****** ******
      ****** ****** ****** ****** ****** ****** ****** ****** ****** ******

 HEAD WILL BE SAVED ON UNIT   51 AT END OF TIME STEP    1, STRESS PERIOD    7
1
  VOLUMETRIC BUDGET FOR ENTIRE MODEL AT END OF TIME STEP    1, STRESS PERIOD   7
  ------------------------------------------------------------------------------

     CUMULATIVE VOLUMES      L**3       RATES FOR THIS TIME STEP      L**3/T
     ------------------                 ------------------------

           IN:                                      IN:
           ---                                      ---
             STORAGE =    34525571.0875               STORAGE =       23389.9846
       CONSTANT HEAD =    16976417.6372         CONSTANT HEAD =       35061.6688
               WELLS =           0.0000                 WELLS =           0.0000
            RECHARGE =    15097200.0000              RECHARGE =           0.0000
      STREAM LEAKAGE =     6698603.6937        STREAM LEAKAGE =       15154.1553

            TOTAL IN =    73297792.4183              TOTAL IN =       73605.8086

          OUT:                                     OUT:
          ----                                     ----
             STORAGE =      701217.1062               STORAGE =           0.0000
       CONSTANT HEAD =           0.0000         CONSTANT HEAD =           0.0000
               WELLS =    22468393.9726                 WELLS =       35161.8059
            RECHARGE =           0.0000              RECHARGE =           0.0000
      STREAM LEAKAGE =    50128183.9147        STREAM LEAKAGE =       38444.0083

           TOTAL OUT =    73297794.9935             TOTAL OUT =       73605.8142

            IN - OUT =          -2.5752              IN - OUT =      -5.5431E-03

 PERCENT DISCREPANCY =          -0.00     PERCENT DISCREPANCY =          -0.00






         TIME SUMMARY AT END OF TIME STEP    1 IN STRESS PERIOD    7
                    SECONDS     MINUTES      HOURS       DAYS        YEARS
                    -----------------------------------------------------------
   TIME STEP LENGTH 7.86240E+06 1.31040E+05  2184.0      91.000     0.24914    
 STRESS PERIOD TIME 7.86240E+06 1.31040E+05  2184.0      91.000     0.24914    
         TOTAL TIME 5.52096E+07 9.20160E+05  15336.      639.00      1.7495    
1
1
                            STRESS PERIOD NO.    8, LENGTH =   91.00000    
                            -----------------------------------------------

                              NUMBER OF TIME STEPS =     1

                               MULTIPLIER FOR DELT =     1.500

                            INITIAL TIME STEP SIZE =   91.00000    

 WELL NO.  LAYER   ROW   COL   STRESS RATE         
 --------------------------------------------------
      1      1     14      6       0.000    
      2      1      3      9       0.000    
      3      1     20     10       0.000    
      4      1     14     20       0.000    
      5      1     10     24     -0.1045E+05
      6      1      7      8      -7751.    
      7      1      5     20      -7335.    
      8      1     11     21      -9620.    

      8 WELLS

                 RECHARGE =  1.000000E-03

 REUSING STREAM SEGMENT DATA FROM LAST STRESS PERIOD
 
 SOLVING FOR HEAD 


     6 CALLS TO PCG ROUTINE FOR TIME STEP   1 IN STRESS PERIOD    8
    22 TOTAL ITERATIONS

 OUTPUT CONTROL FOR STRESS PERIOD    8   TIME STEP    1
    SAVE BUDGET
    SAVE HEAD FOR ALL LAYERS
    PRINT HEAD FOR ALL LAYERS
 UBDSV2 SAVING "STREAMFLOW OUT  " ON UNIT  50 AT TIME STEP  1, STRESS PERIOD   8



 STREAM LISTING     PERIOD      8   STEP        1

 LAYER ROW COL. STREAM  RCH.  FLOW INTO     FLOW TO   FLOW OUT OF   OVRLND.     DIRECT     STREAM       STREAM     STREAM     STREAM   STREAMBED  STREAMBED
                SEG.NO.  NO.  STRM. RCH.    AQUIFER    STRM. RCH.    RUNOFF     PRECIP       ET          HEAD       DEPTH      WIDTH   CONDCTNC.   GRADIENT

   1   13    1     1     1    1.0000E+05 -1.1937E+03   1.0119E+05  0.000E+00  0.000E+00  0.000E+00  4.84065E+01  1.452E-01  2.000E+01  2.000E+04 -5.968E-02
   1   13    2     1     2    1.0119E+05 -2.0935E+03   1.0329E+05  0.000E+00  0.000E+00  0.000E+00  4.79307E+01  1.466E-01  2.000E+01  2.000E+04 -1.047E-01
   1   14    3     1     3    1.0329E+05 -4.0886E+02   1.0370E+05  0.000E+00  0.000E+00  0.000E+00  4.74545E+01  1.477E-01  2.000E+01  2.000E+04 -2.044E-02
   1   15    4     1     4    1.0370E+05 -4.0365E+02   1.0410E+05  0.000E+00  0.000E+00  0.000E+00  4.69776E+01  1.480E-01  2.000E+01  2.000E+04 -2.018E-02
   1   16    5     1     5    1.0410E+05 -1.6469E+03   1.0575E+05  0.000E+00  0.000E+00  0.000E+00  4.65012E+01  1.489E-01  2.000E+01  2.000E+04 -8.235E-02
   1   16    6     1     6    1.0575E+05 -1.0316E+03   1.0678E+05  0.000E+00  0.000E+00  0.000E+00  4.60250E+01  1.500E-01  2.000E+01  2.000E+04 -5.158E-02
   1   16    7     1     7    1.0678E+05 -1.0132E+03   1.0779E+05  0.000E+00  0.000E+00  0.000E+00  4.55486E+01  1.509E-01  2.000E+01  2.000E+04 -5.066E-02
   1   16    8     1     8    1.0779E+05 -1.0137E+03   1.0881E+05  0.000E+00  0.000E+00  0.000E+00  4.50722E+01  1.517E-01  2.000E+01  2.000E+04 -5.069E-02
   1   16    9     1     9    1.0881E+05 -1.0149E+03   1.0982E+05  0.000E+00  0.000E+00  0.000E+00  4.45958E+01  1.526E-01  2.000E+01  2.000E+04 -5.075E-02
   1   16   10     1    10    1.0982E+05 -1.0168E+03   1.1084E+05  0.000E+00  0.000E+00  0.000E+00  4.41193E+01  1.534E-01  2.000E+01  2.000E+04 -5.084E-02
   1   16   11     1    11    1.1084E+05 -1.0385E+03   1.1188E+05  0.000E+00  0.000E+00  0.000E+00  4.36429E+01  1.543E-01  2.000E+01  2.000E+04 -5.192E-02
   1   16   12     1    12    1.1188E+05 -1.7262E+03   1.1360E+05  0.000E+00  0.000E+00  0.000E+00  4.31668E+01  1.554E-01  2.000E+01  2.000E+04 -8.631E-02
   1   15   13     1    13    1.1360E+05 -1.4231E+03   1.1502E+05  0.000E+00  0.000E+00  0.000E+00  4.26908E+01  1.567E-01  2.000E+01  2.000E+04 -7.116E-02
   1   14   14     1    14    1.1502E+05 -1.4791E+03   1.1650E+05  0.000E+00  0.000E+00  0.000E+00  4.22147E+01  1.579E-01  2.000E+01  2.000E+04 -7.396E-02
   1   13   15     1    15    1.1650E+05 -1.5175E+03   1.1802E+05  0.000E+00  0.000E+00  0.000E+00  4.17387E+01  1.592E-01  2.000E+01  2.000E+04 -7.587E-02
   1   12   16     1    16    1.1802E+05 -1.5341E+03   1.1956E+05  0.000E+00  0.000E+00  0.000E+00  4.12627E+01  1.604E-01  2.000E+01  2.000E+04 -7.671E-02
   1   12   17     1    17    1.1956E+05 -9.3187E+02   1.2049E+05  0.000E+00  0.000E+00  0.000E+00  4.07864E+01  1.614E-01  2.000E+01  2.000E+04 -4.659E-02
   1   12   18     1    18    1.2049E+05 -6.2381E+02   1.2111E+05  0.000E+00  0.000E+00  0.000E+00  4.03097E+01  1.620E-01  2.000E+01  2.000E+04 -3.119E-02
   1   12   19     1    19    1.2111E+05  5.9623E+02   1.2051E+05  0.000E+00  0.000E+00  0.000E+00  3.98325E+01  1.620E-01  2.000E+01  2.000E+04  2.981E-02
   1   13   20     1    20    1.2051E+05  3.9027E+02   1.2012E+05  0.000E+00  0.000E+00  0.000E+00  3.93548E+01  1.616E-01  2.000E+01  2.000E+04  1.951E-02
   1   14   21     1    21    1.2012E+05 -8.1275E+02   1.2094E+05  0.000E+00  0.000E+00  0.000E+00  3.88777E+01  1.618E-01  2.000E+01  2.000E+04 -4.064E-02
   1   14   22     1    22    1.2094E+05  5.2601E+03   1.1568E+05  0.000E+00  0.000E+00  0.000E+00  3.83986E+01  1.600E-01  2.000E+01  2.000E+04  2.630E-01
   1    9   30     2     1    5.0000E+04 -2.9676E+02   5.0297E+04  0.000E+00  0.000E+00  0.000E+00  4.02411E+01  1.161E-01  2.000E+01  2.000E+04 -1.484E-02
   1    9   29     2     2    5.0297E+04 -5.4041E+02   5.0837E+04  0.000E+00  0.000E+00  0.000E+00  3.99917E+01  1.167E-01  2.000E+01  2.000E+04 -2.702E-02
   1    9   28     2     3    5.0837E+04 -6.4052E+02   5.1478E+04  0.000E+00  0.000E+00  0.000E+00  3.97425E+01  1.175E-01  2.000E+01  2.000E+04 -3.203E-02
   1    9   27     2     4    5.1478E+04 -7.8315E+02   5.2261E+04  0.000E+00  0.000E+00  0.000E+00  3.94934E+01  1.184E-01  2.000E+01  2.000E+04 -3.916E-02
   1   10   26     2     5    5.2261E+04  1.1198E+03   5.1141E+04  0.000E+00  0.000E+00  0.000E+00  3.92432E+01  1.182E-01  2.000E+01  2.000E+04  5.599E-02
   1   11   25     2     6    5.1141E+04  2.4604E+03   4.8681E+04  0.000E+00  0.000E+00  0.000E+00  3.89907E+01  1.157E-01  2.000E+01  2.000E+04  1.230E-01
   1   12   24     2     7    4.8681E+04  2.0820E+03   4.6599E+04  0.000E+00  0.000E+00  0.000E+00  3.87376E+01  1.126E-01  2.000E+01  2.000E+04  1.041E-01
   1   13   23     2     8    4.6599E+04  2.1411E+02   4.6385E+04  0.000E+00  0.000E+00  0.000E+00  3.84859E+01  1.109E-01  2.000E+01  2.000E+04  1.071E-02
   1   14   22     2     9    4.6385E+04  1.9742E+03   4.4410E+04  0.000E+00  0.000E+00  0.000E+00  3.82343E+01  1.093E-01  2.000E+01  2.000E+04  9.871E-02
   1   14   22     3     1    1.6009E+05 -8.3681E+03   1.6846E+05  0.000E+00  0.000E+00  0.000E+00  3.77172E+01  1.617E-01  2.000E+01  2.000E+04 -4.184E-01
   1   15   23     3     2    1.6846E+05 -5.5263E+02   1.6901E+05  0.000E+00  0.000E+00  0.000E+00  3.68310E+01  1.643E-01  2.000E+01  2.000E+04 -2.763E-02
   1   15   24     3     3    1.6901E+05 -2.8579E+02   1.6929E+05  0.000E+00  0.000E+00  0.000E+00  3.59423E+01  1.645E-01  2.000E+01  2.000E+04 -1.429E-02
   1   15   25     3     4    1.6929E+05 -2.7705E+02   1.6957E+05  0.000E+00  0.000E+00  0.000E+00  3.50536E+01  1.647E-01  2.000E+01  2.000E+04 -1.385E-02
   1   15   26     3     5    1.6957E+05 -3.3288E+02   1.6990E+05  0.000E+00  0.000E+00  0.000E+00  3.41649E+01  1.649E-01  2.000E+01  2.000E+04 -1.664E-02
   1   16   27     3     6    1.6990E+05 -3.6761E+02   1.7027E+05  0.000E+00  0.000E+00  0.000E+00  3.32762E+01  1.651E-01  2.000E+01  2.000E+04 -1.838E-02
   1   17   28     3     7    1.7027E+05 -1.5629E+03   1.7183E+05  0.000E+00  0.000E+00  0.000E+00  3.23879E+01  1.656E-01  2.000E+01  2.000E+04 -7.814E-02
   1   18   29     3     8    1.7183E+05 -2.9251E+03   1.7476E+05  0.000E+00  0.000E+00  0.000E+00  3.15003E+01  1.669E-01  2.000E+01  2.000E+04 -1.463E-01
   1   18   30     3     9    1.7476E+05 -3.1916E+03   1.7795E+05  0.000E+00  0.000E+00  0.000E+00  3.06132E+01  1.687E-01  2.000E+01  2.000E+04 -1.596E-01



1
              HEAD IN LAYER   1 AT END OF TIME STEP   1 IN STRESS PERIOD    8
  ---------------------------------------------------------------------------

          1      2      3      4      5      6      7      8      9     10
         11     12     13     14     15     16     17     18     19     20
         21     22     23     24     25     26     27     28     29     30
 .........................................................................
   1  ****** ****** ****** ****** ****** ****** ****** ****** ****** ******
      ****** ****** ****** ****** ****** ****** ****** ****** ****** ******
      ****** ****** ****** ****** ****** ****** ****** ****** ****** ******
   2  ****** ****** ****** ****** ****** ****** ****** ****** ****** ******
      ****** ****** ****** ****** ****** ****** ****** ****** ****** ******
      ****** ****** ****** ****** ****** ****** ****** ****** ****** ******
   3  ****** ****** ****** ****** ****** ****** ****** ****** ****** ******
      ****** ****** ****** ****** ****** ****** ****** ****** ****** ******
      ****** ****** ****** ****** ****** ****** ****** ****** ****** ******
   4  ****** ****** ****** ****** ****** ****** ****** ****** ****** ******
      ****** ****** ****** ****** ****** ****** ****** ****** ****** ******
      ****** ****** ****** ****** ****** ****** ****** ****** ****** ******
   5  ****** ****** ****** ****** ****** ****** ****** ****** ****** ******
      ****** ****** ****** ****** ****** ****** ****** ****** ****** ******
      ****** ****** ****** ****** ****** ****** ****** ****** ****** ******
   6  ****** ****** ****** ****** ****** ****** ****** ****** ****** ******
      ****** ****** ****** ****** ****** ****** ****** ****** ****** ******
      ****** ****** ****** ****** ****** ****** ****** ****** ****** ******
   7  ****** ****** ****** ****** ****** ****** ****** ****** ****** ******
      ****** ****** ****** ****** ****** ****** ****** ****** ****** ******
      ****** ****** ****** ****** ****** ****** ****** ****** ****** ******
   8  ****** ****** ****** ****** ****** ****** ****** ****** ****** ******
      ****** ****** ****** ****** ****** ****** ****** ****** ****** ******
      ****** ****** ****** ****** ****** ****** ****** ****** ****** ******
   9  ****** ****** ****** ****** ****** ****** ****** ****** ****** ******
      ****** ****** ****** ****** ****** ****** ****** ****** ****** ******
      ****** ****** ****** ****** ****** ****** ****** ****** ****** ******
  10  ****** ****** ****** ****** ****** ****** ****** ****** ****** ******
      ****** ****** ****** ****** ****** ****** ****** ****** ****** ******
      ****** ****** ****** ****** ****** ****** ****** ****** ****** ******
  11  ****** ****** ****** ****** ****** ****** ****** ****** ****** ******
      ****** ****** ****** ****** ****** ****** ****** ****** ****** ******
      ****** ****** ****** ****** ****** ****** ****** ****** ****** ******
  12  ****** ****** ****** ****** ****** ****** ****** ****** ****** ******
      ****** ****** ****** ****** ****** ****** ****** ****** ****** ******
      ****** ****** ****** ****** ****** ****** ****** ****** ****** ******
  13  ****** ****** ****** ****** ****** ****** ****** ****** ****** ******
      ****** ****** ****** ****** ****** ****** ****** ****** ****** ******
      ****** ****** ****** ****** ****** ****** ****** ****** ****** ******
  14  ****** ****** ****** ****** ****** ****** ****** ****** ****** ******
      ****** ****** ****** ****** ****** ****** ****** ****** ****** ******
      ****** ****** ****** ****** ****** ****** ****** ****** ****** ******
  15  ****** ****** ****** ****** ****** ****** ****** ****** ****** ******
      ****** ****** ****** ****** ****** ****** ****** ****** ****** ******
      ****** ****** ****** ****** ****** ****** ****** ****** ****** ******
  16  ****** ****** ****** ****** ****** ****** ****** ****** ****** ******
      ****** ****** ****** ****** ****** ****** ****** ****** ****** ******
      ****** ****** ****** ****** ****** ****** ****** ****** ****** ******
  17  ****** ****** ****** ****** ****** ****** ****** ****** ****** ******
      ****** ****** ****** ****** ****** ****** ****** ****** ****** ******
      ****** ****** ****** ****** ****** ****** ****** ****** ****** ******
  18  ****** ****** ****** ****** ****** ****** ****** ****** ****** ******
      ****** ****** ****** ****** ****** ****** ****** ****** ****** ******
      ****** ****** ****** ****** ****** ****** ****** ****** ****** ******
  19  ****** ****** ****** ****** ****** ****** ****** ****** ****** ******
      ****** ****** ****** ****** ****** ****** ****** ****** ****** ******
      ****** ****** ****** ****** ****** ****** ****** ****** ****** ******
  20  ****** ****** ****** ****** ****** ****** ****** ****** ****** ******
      ****** ****** ****** ****** ****** ****** ****** ****** ****** ******
      ****** ****** ****** ****** ****** ****** ****** ****** ****** ******
  21  ****** ****** ****** ****** ****** ****** ****** ****** ****** ******
      ****** ****** ****** ****** ****** ****** ****** ****** ****** ******
      ****** ****** ****** ****** ****** ****** ****** ****** ****** ******
  22  ****** ****** ****** ****** ****** ****** ****** ****** ****** ******
      ****** ****** ****** ****** ****** ****** ****** ****** ****** ******
      ****** ****** ****** ****** ****** ****** ****** ****** ****** ******
  23  ****** ****** ****** ****** ****** ****** ****** ****** ****** ******
      ****** ****** ****** ****** ****** ****** ****** ****** ****** ******
      ****** ****** ****** ****** ****** ****** ****** ****** ****** ******
  24  ****** ****** ****** ****** ****** ****** ****** ****** ****** ******
      ****** ****** ****** ****** ****** ****** ****** ****** ****** ******
      ****** ****** ****** ****** ****** ****** ****** ****** ****** ******
  25  ****** ****** ****** ****** ****** ****** ****** ****** ****** ******
      ****** ****** ****** ****** ****** ****** ****** ****** ****** ******
      ****** ****** ****** ****** ****** ****** ****** ****** ****** ******

 HEAD WILL BE SAVED ON UNIT   51 AT END OF TIME STEP    1, STRESS PERIOD    8
1
  VOLUMETRIC BUDGET FOR ENTIRE MODEL AT END OF TIME STEP    1, STRESS PERIOD   8
  ------------------------------------------------------------------------------

     CUMULATIVE VOLUMES      L**3       RATES FOR THIS TIME STEP      L**3/T
     ------------------                 ------------------------

           IN:                                      IN:
           ---                                      ---
             STORAGE =    34725610.7868               STORAGE =        2198.2385
       CONSTANT HEAD =    20147633.7248         CONSTANT HEAD =       34848.5284
               WELLS =           0.0000                 WELLS =           0.0000
            RECHARGE =    17608800.0000              RECHARGE =       27600.0000
      STREAM LEAKAGE =     7981444.0362        STREAM LEAKAGE =       14097.1466

            TOTAL IN =    80463488.5478              TOTAL IN =       78743.9135

          OUT:                                     OUT:
          ----                                     ----
             STORAGE =      840805.7220               STORAGE =        1533.9408
       CONSTANT HEAD =           0.0000         CONSTANT HEAD =           0.0000
               WELLS =    25668118.3098                 WELLS =       35161.8059
            RECHARGE =           0.0000              RECHARGE =           0.0000
      STREAM LEAKAGE =    53954566.4303        STREAM LEAKAGE =       42048.1595

           TOTAL OUT =    80463490.4622             TOTAL OUT =       78743.9062

            IN - OUT =          -1.9144              IN - OUT =       7.2616E-03

 PERCENT DISCREPANCY =          -0.00     PERCENT DISCREPANCY =           0.00






         TIME SUMMARY AT END OF TIME STEP    1 IN STRESS PERIOD    8
                    SECONDS     MINUTES      HOURS       DAYS        YEARS
                    -----------------------------------------------------------
   TIME STEP LENGTH 7.86240E+06 1.31040E+05  2184.0      91.000     0.24914    
 STRESS PERIOD TIME 7.86240E+06 1.31040E+05  2184.0      91.000     0.24914    
         TOTAL TIME 6.30720E+07 1.05120E+06  17520.      730.00      1.9986    
1
1
                            STRESS PERIOD NO.    9, LENGTH =   92.00000    
                            -----------------------------------------------

                              NUMBER OF TIME STEPS =     1

                               MULTIPLIER FOR DELT =     1.500

                            INITIAL TIME STEP SIZE =   92.00000    

 WELL NO.  LAYER   ROW   COL   STRESS RATE         
 --------------------------------------------------
      1      1     14      6       0.000    
      2      1      3      9       0.000    
      3      1     20     10       0.000    
      4      1     14     20       0.000    
      5      1     10     24     -0.1045E+05
      6      1      7      8      -7751.    
      7      1      5     20      -7335.    
      8      1     11     21      -9620.    

      8 WELLS

                 RECHARGE =  5.000000E-04

 REUSING STREAM SEGMENT DATA FROM LAST STRESS PERIOD
 
 SOLVING FOR HEAD 


     6 CALLS TO PCG ROUTINE FOR TIME STEP   1 IN STRESS PERIOD    9
    23 TOTAL ITERATIONS

 OUTPUT CONTROL FOR STRESS PERIOD    9   TIME STEP    1
    SAVE BUDGET
    SAVE HEAD FOR ALL LAYERS
    PRINT HEAD FOR ALL LAYERS
 UBDSV2 SAVING "STREAMFLOW OUT  " ON UNIT  50 AT TIME STEP  1, STRESS PERIOD   9



 STREAM LISTING     PERIOD      9   STEP        1

 LAYER ROW COL. STREAM  RCH.  FLOW INTO     FLOW TO   FLOW OUT OF   OVRLND.     DIRECT     STREAM       STREAM     STREAM     STREAM   STREAMBED  STREAMBED
                SEG.NO.  NO.  STRM. RCH.    AQUIFER    STRM. RCH.    RUNOFF     PRECIP       ET          HEAD       DEPTH      WIDTH   CONDCTNC.   GRADIENT

   1   13    1     1     1    1.0000E+05 -9.6036E+02   1.0096E+05  0.000E+00  0.000E+00  0.000E+00  4.84064E+01  1.451E-01  2.000E+01  2.000E+04 -4.802E-02
   1   13    2     1     2    1.0096E+05 -1.8284E+03   1.0279E+05  0.000E+00  0.000E+00  0.000E+00  4.79304E+01  1.463E-01  2.000E+01  2.000E+04 -9.142E-02
   1   14    3     1     3    1.0279E+05 -3.3477E+02   1.0312E+05  0.000E+00  0.000E+00  0.000E+00  4.74540E+01  1.472E-01  2.000E+01  2.000E+04 -1.674E-02
   1   15    4     1     4    1.0312E+05 -3.2926E+02   1.0345E+05  0.000E+00  0.000E+00  0.000E+00  4.69770E+01  1.475E-01  2.000E+01  2.000E+04 -1.646E-02
   1   16    5     1     5    1.0345E+05 -1.4535E+03   1.0491E+05  0.000E+00  0.000E+00  0.000E+00  4.65005E+01  1.482E-01  2.000E+01  2.000E+04 -7.268E-02
   1   16    6     1     6    1.0491E+05 -9.0970E+02   1.0582E+05  0.000E+00  0.000E+00  0.000E+00  4.60243E+01  1.493E-01  2.000E+01  2.000E+04 -4.549E-02
   1   16    7     1     7    1.0582E+05 -8.9476E+02   1.0671E+05  0.000E+00  0.000E+00  0.000E+00  4.55477E+01  1.500E-01  2.000E+01  2.000E+04 -4.474E-02
   1   16    8     1     8    1.0671E+05 -8.9696E+02   1.0761E+05  0.000E+00  0.000E+00  0.000E+00  4.50712E+01  1.508E-01  2.000E+01  2.000E+04 -4.485E-02
   1   16    9     1     9    1.0761E+05 -9.0011E+02   1.0851E+05  0.000E+00  0.000E+00  0.000E+00  4.45947E+01  1.515E-01  2.000E+01  2.000E+04 -4.501E-02
   1   16   10     1    10    1.0851E+05 -9.0460E+02   1.0941E+05  0.000E+00  0.000E+00  0.000E+00  4.41182E+01  1.523E-01  2.000E+01  2.000E+04 -4.523E-02
   1   16   11     1    11    1.0941E+05 -9.2803E+02   1.1034E+05  0.000E+00  0.000E+00  0.000E+00  4.36417E+01  1.531E-01  2.000E+01  2.000E+04 -4.640E-02
   1   16   12     1    12    1.1034E+05 -1.5365E+03   1.1188E+05  0.000E+00  0.000E+00  0.000E+00  4.31655E+01  1.541E-01  2.000E+01  2.000E+04 -7.682E-02
   1   15   13     1    13    1.1188E+05 -1.2076E+03   1.1308E+05  0.000E+00  0.000E+00  0.000E+00  4.26893E+01  1.552E-01  2.000E+01  2.000E+04 -6.038E-02
   1   14   14     1    14    1.1308E+05 -1.2471E+03   1.1433E+05  0.000E+00  0.000E+00  0.000E+00  4.22131E+01  1.562E-01  2.000E+01  2.000E+04 -6.235E-02
   1   13   15     1    15    1.1433E+05 -1.2769E+03   1.1561E+05  0.000E+00  0.000E+00  0.000E+00  4.17368E+01  1.573E-01  2.000E+01  2.000E+04 -6.385E-02
   1   12   16     1    16    1.1561E+05 -1.2807E+03   1.1689E+05  0.000E+00  0.000E+00  0.000E+00  4.12606E+01  1.583E-01  2.000E+01  2.000E+04 -6.403E-02
   1   12   17     1    17    1.1689E+05 -7.6117E+02   1.1765E+05  0.000E+00  0.000E+00  0.000E+00  4.07842E+01  1.592E-01  2.000E+01  2.000E+04 -3.806E-02
   1   12   18     1    18    1.1765E+05 -4.6205E+02   1.1811E+05  0.000E+00  0.000E+00  0.000E+00  4.03074E+01  1.597E-01  2.000E+01  2.000E+04 -2.310E-02
   1   12   19     1    19    1.1811E+05  7.9094E+02   1.1732E+05  0.000E+00  0.000E+00  0.000E+00  3.98300E+01  1.595E-01  2.000E+01  2.000E+04  3.955E-02
   1   13   20     1    20    1.1732E+05  5.6632E+02   1.1676E+05  0.000E+00  0.000E+00  0.000E+00  3.93522E+01  1.590E-01  2.000E+01  2.000E+04  2.832E-02
   1   14   21     1    21    1.1676E+05 -6.4171E+02   1.1740E+05  0.000E+00  0.000E+00  0.000E+00  3.88749E+01  1.590E-01  2.000E+01  2.000E+04 -3.209E-02
   1   14   22     1    22    1.1740E+05  5.2989E+03   1.1210E+05  0.000E+00  0.000E+00  0.000E+00  3.83957E+01  1.571E-01  2.000E+01  2.000E+04  2.649E-01
   1    9   30     2     1    5.0000E+04 -1.7157E+02   5.0172E+04  0.000E+00  0.000E+00  0.000E+00  4.02410E+01  1.160E-01  2.000E+01  2.000E+04 -8.579E-03
   1    9   29     2     2    5.0172E+04 -4.1485E+02   5.0586E+04  0.000E+00  0.000E+00  0.000E+00  3.99914E+01  1.164E-01  2.000E+01  2.000E+04 -2.074E-02
   1    9   28     2     3    5.0586E+04 -5.1266E+02   5.1099E+04  0.000E+00  0.000E+00  0.000E+00  3.97420E+01  1.170E-01  2.000E+01  2.000E+04 -2.563E-02
   1    9   27     2     4    5.1099E+04 -6.0150E+02   5.1701E+04  0.000E+00  0.000E+00  0.000E+00  3.94928E+01  1.178E-01  2.000E+01  2.000E+04 -3.007E-02
   1   10   26     2     5    5.1701E+04  1.2978E+03   5.0403E+04  0.000E+00  0.000E+00  0.000E+00  3.92423E+01  1.173E-01  2.000E+01  2.000E+04  6.489E-02
   1   11   25     2     6    5.0403E+04  2.6306E+03   4.7772E+04  0.000E+00  0.000E+00  0.000E+00  3.89896E+01  1.146E-01  2.000E+01  2.000E+04  1.315E-01
   1   12   24     2     7    4.7772E+04  2.2389E+03   4.5533E+04  0.000E+00  0.000E+00  0.000E+00  3.87361E+01  1.111E-01  2.000E+01  2.000E+04  1.119E-01
   1   13   23     2     8    4.5533E+04  2.6184E+02   4.5272E+04  0.000E+00  0.000E+00  0.000E+00  3.84844E+01  1.094E-01  2.000E+01  2.000E+04  1.309E-02
   1   14   22     2     9    4.5272E+04  2.0378E+03   4.3234E+04  0.000E+00  0.000E+00  0.000E+00  3.82327E+01  1.077E-01  2.000E+01  2.000E+04  1.019E-01
   1   14   22     3     1    1.5533E+05 -8.3279E+03   1.6366E+05  0.000E+00  0.000E+00  0.000E+00  3.77144E+01  1.588E-01  2.000E+01  2.000E+04 -4.164E-01
   1   15   23     3     2    1.6366E+05 -5.0051E+02   1.6416E+05  0.000E+00  0.000E+00  0.000E+00  3.68281E+01  1.615E-01  2.000E+01  2.000E+04 -2.503E-02
   1   15   24     3     3    1.6416E+05 -2.4306E+02   1.6440E+05  0.000E+00  0.000E+00  0.000E+00  3.59395E+01  1.617E-01  2.000E+01  2.000E+04 -1.215E-02
   1   15   25     3     4    1.6440E+05 -2.3403E+02   1.6464E+05  0.000E+00  0.000E+00  0.000E+00  3.50507E+01  1.618E-01  2.000E+01  2.000E+04 -1.170E-02
   1   15   26     3     5    1.6464E+05 -2.8546E+02   1.6492E+05  0.000E+00  0.000E+00  0.000E+00  3.41620E+01  1.620E-01  2.000E+01  2.000E+04 -1.427E-02
   1   16   27     3     6    1.6492E+05 -3.1191E+02   1.6523E+05  0.000E+00  0.000E+00  0.000E+00  3.32733E+01  1.621E-01  2.000E+01  2.000E+04 -1.560E-02
   1   17   28     3     7    1.6523E+05 -1.4104E+03   1.6665E+05  0.000E+00  0.000E+00  0.000E+00  3.23849E+01  1.627E-01  2.000E+01  2.000E+04 -7.052E-02
   1   18   29     3     8    1.6665E+05 -2.7513E+03   1.6940E+05  0.000E+00  0.000E+00  0.000E+00  3.14972E+01  1.639E-01  2.000E+01  2.000E+04 -1.376E-01
   1   18   30     3     9    1.6940E+05 -3.0607E+03   1.7246E+05  0.000E+00  0.000E+00  0.000E+00  3.06100E+01  1.656E-01  2.000E+01  2.000E+04 -1.530E-01



1
              HEAD IN LAYER   1 AT END OF TIME STEP   1 IN STRESS PERIOD    9
  ---------------------------------------------------------------------------

          1      2      3      4      5      6      7      8      9     10
         11     12     13     14     15     16     17     18     19     20
         21     22     23     24     25     26     27     28     29     30
 .........................................................................
   1  ****** ****** ****** ****** ****** ****** ****** ****** ****** ******
      ****** ****** ****** ****** ****** ****** ****** ****** ****** ******
      ****** ****** ****** ****** ****** ****** ****** ****** ****** ******
   2  ****** ****** ****** ****** ****** ****** ****** ****** ****** ******
      ****** ****** ****** ****** ****** ****** ****** ****** ****** ******
      ****** ****** ****** ****** ****** ****** ****** ****** ****** ******
   3  ****** ****** ****** ****** ****** ****** ****** ****** ****** ******
      ****** ****** ****** ****** ****** ****** ****** ****** ****** ******
      ****** ****** ****** ****** ****** ****** ****** ****** ****** ******
   4  ****** ****** ****** ****** ****** ****** ****** ****** ****** ******
      ****** ****** ****** ****** ****** ****** ****** ****** ****** ******
      ****** ****** ****** ****** ****** ****** ****** ****** ****** ******
   5  ****** ****** ****** ****** ****** ****** ****** ****** ****** ******
      ****** ****** ****** ****** ****** ****** ****** ****** ****** ******
      ****** ****** ****** ****** ****** ****** ****** ****** ****** ******
   6  ****** ****** ****** ****** ****** ****** ****** ****** ****** ******
      ****** ****** ****** ****** ****** ****** ****** ****** ****** ******
      ****** ****** ****** ****** ****** ****** ****** ****** ****** ******
   7  ****** ****** ****** ****** ****** ****** ****** ****** ****** ******
      ****** ****** ****** ****** ****** ****** ****** ****** ****** ******
      ****** ****** ****** ****** ****** ****** ****** ****** ****** ******
   8  ****** ****** ****** ****** ****** ****** ****** ****** ****** ******
      ****** ****** ****** ****** ****** ****** ****** ****** ****** ******
      ****** ****** ****** ****** ****** ****** ****** ****** ****** ******
   9  ****** ****** ****** ****** ****** ****** ****** ****** ****** ******
      ****** ****** ****** ****** ****** ****** ****** ****** ****** ******
      ****** ****** ****** ****** ****** ****** ****** ****** ****** ******
  10  ****** ****** ****** ****** ****** ****** ****** ****** ****** ******
      ****** ****** ****** ****** ****** ****** ****** ****** ****** ******
      ****** ****** ****** ****** ****** ****** ****** ****** ****** ******
  11  ****** ****** ****** ****** ****** ****** ****** ****** ****** ******
      ****** ****** ****** ****** ****** ****** ****** ****** ****** ******
      ****** ****** ****** ****** ****** ****** ****** ****** ****** ******
  12  ****** ****** ****** ****** ****** ****** ****** ****** ****** ******
      ****** ****** ****** ****** ****** ****** ****** ****** ****** ******
      ****** ****** ****** ****** ****** ****** ****** ****** ****** ******
  13  ****** ****** ****** ****** ****** ****** ****** ****** ****** ******
      ****** ****** ****** ****** ****** ****** ****** ****** ****** ******
      ****** ****** ****** ****** ****** ****** ****** ****** ****** ******
  14  ****** ****** ****** ****** ****** ****** ****** ****** ****** ******
      ****** ****** ****** ****** ****** ****** ****** ****** ****** ******
      ****** ****** ****** ****** ****** ****** ****** ****** ****** ******
  15  ****** ****** ****** ****** ****** ****** ****** ****** ****** ******
      ****** ****** ****** ****** ****** ****** ****** ****** ****** ******
      ****** ****** ****** ****** ****** ****** ****** ****** ****** ******
  16  ****** ****** ****** ****** ****** ****** ****** ****** ****** ******
      ****** ****** ****** ****** ****** ****** ****** ****** ****** ******
      ****** ****** ****** ****** ****** ****** ****** ****** ****** ******
  17  ****** ****** ****** ****** ****** ****** ****** ****** ****** ******
      ****** ****** ****** ****** ****** ****** ****** ****** ****** ******
      ****** ****** ****** ****** ****** ****** ****** ****** ****** ******
  18  ****** ****** ****** ****** ****** ****** ****** ****** ****** ******
      ****** ****** ****** ****** ****** ****** ****** ****** ****** ******
      ****** ****** ****** ****** ****** ****** ****** ****** ****** ******
  19  ****** ****** ****** ****** ****** ****** ****** ****** ****** ******
      ****** ****** ****** ****** ****** ****** ****** ****** ****** ******
      ****** ****** ****** ****** ****** ****** ****** ****** ****** ******
  20  ****** ****** ****** ****** ****** ****** ****** ****** ****** ******
      ****** ****** ****** ****** ****** ****** ****** ****** ****** ******
      ****** ****** ****** ****** ****** ****** ****** ****** ****** ******
  21  ****** ****** ****** ****** ****** ****** ****** ****** ****** ******
      ****** ****** ****** ****** ****** ****** ****** ****** ****** ******
      ****** ****** ****** ****** ****** ****** ****** ****** ****** ******
  22  ****** ****** ****** ****** ****** ****** ****** ****** ****** ******
      ****** ****** ****** ****** ****** ****** ****** ****** ****** ******
      ****** ****** ****** ****** ****** ****** ****** ****** ****** ******
  23  ****** ****** ****** ****** ****** ****** ****** ****** ****** ******
      ****** ****** ****** ****** ****** ****** ****** ****** ****** ******
      ****** ****** ****** ****** ****** ****** ****** ****** ****** ******
  24  ****** ****** ****** ****** ****** ****** ****** ****** ****** ******
      ****** ****** ****** ****** ****** ****** ****** ****** ****** ******
      ****** ****** ****** ****** ****** ****** ****** ****** ****** ******
  25  ****** ****** ****** ****** ****** ****** ****** ****** ****** ******
      ****** ****** ****** ****** ****** ****** ****** ****** ****** ******
      ****** ****** ****** ****** ****** ****** ****** ****** ****** ******

 HEAD WILL BE SAVED ON UNIT   51 AT END OF TIME STEP    1, STRESS PERIOD    9
1
  VOLUMETRIC BUDGET FOR ENTIRE MODEL AT END OF TIME STEP    1, STRESS PERIOD   9
  ------------------------------------------------------------------------------

     CUMULATIVE VOLUMES      L**3       RATES FOR THIS TIME STEP      L**3/T
     ------------------                 ------------------------

           IN:                                      IN:
           ---                                      ---
             STORAGE =    35438116.0310               STORAGE =        7744.6222
       CONSTANT HEAD =    23466466.9060         CONSTANT HEAD =       36074.2737
               WELLS =           0.0000                 WELLS =           0.0000
            RECHARGE =    18878400.0000              RECHARGE =       13800.0000
      STREAM LEAKAGE =     9372765.0283        STREAM LEAKAGE =       15123.0543

            TOTAL IN =    87155747.9653              TOTAL IN =       72741.9502

          OUT:                                     OUT:
          ----                                     ----
             STORAGE =      840805.7220               STORAGE =           0.0000
       CONSTANT HEAD =           0.0000         CONSTANT HEAD =           0.0000
               WELLS =    28903004.4530                 WELLS =       35161.8059
            RECHARGE =           0.0000              RECHARGE =           0.0000
      STREAM LEAKAGE =    57411939.7803        STREAM LEAKAGE =       37580.1451

           TOTAL OUT =    87155749.9553             TOTAL OUT =       72741.9510

            IN - OUT =          -1.9901              IN - OUT =      -8.2291E-04

 PERCENT DISCREPANCY =          -0.00     PERCENT DISCREPANCY =          -0.00






         TIME SUMMARY AT END OF TIME STEP    1 IN STRESS PERIOD    9
                    SECONDS     MINUTES      HOURS       DAYS        YEARS
                    -----------------------------------------------------------
   TIME STEP LENGTH 7.94880E+06 1.32480E+05  2208.0      92.000     0.25188    
 STRESS PERIOD TIME 7.94880E+06 1.32480E+05  2208.0      92.000     0.25188    
         TOTAL TIME 7.10208E+07 1.18368E+06  19728.      822.00      2.2505    
1
1
                            STRESS PERIOD NO.   10, LENGTH =   91.00000    
                            -----------------------------------------------

                              NUMBER OF TIME STEPS =     1

                               MULTIPLIER FOR DELT =     1.500

                            INITIAL TIME STEP SIZE =   91.00000    

 WELL NO.  LAYER   ROW   COL   STRESS RATE         
 --------------------------------------------------
      1      1     14      6       0.000    
      2      1      3      9       0.000    
      3      1     20     10       0.000    
      4      1     14     20       0.000    
      5      1     10     24     -0.1045E+05
      6      1      7      8      -7751.    
      7      1      5     20      -7335.    
      8      1     11     21      -9620.    

      8 WELLS

                 RECHARGE =  2.000000E-03

 REUSING STREAM SEGMENT DATA FROM LAST STRESS PERIOD
 
 SOLVING FOR HEAD 


     7 CALLS TO PCG ROUTINE FOR TIME STEP   1 IN STRESS PERIOD   10
    26 TOTAL ITERATIONS

 OUTPUT CONTROL FOR STRESS PERIOD   10   TIME STEP    1
    SAVE BUDGET
    SAVE HEAD FOR ALL LAYERS
    PRINT HEAD FOR ALL LAYERS
 UBDSV2 SAVING "STREAMFLOW OUT  " ON UNIT  50 AT TIME STEP  1, STRESS PERIOD  10



 STREAM LISTING     PERIOD     10   STEP        1

 LAYER ROW COL. STREAM  RCH.  FLOW INTO     FLOW TO   FLOW OUT OF   OVRLND.     DIRECT     STREAM       STREAM     STREAM     STREAM   STREAMBED  STREAMBED
                SEG.NO.  NO.  STRM. RCH.    AQUIFER    STRM. RCH.    RUNOFF     PRECIP       ET          HEAD       DEPTH      WIDTH   CONDCTNC.   GRADIENT

   1   13    1     1     1    1.0000E+05 -1.3992E+03   1.0140E+05  0.000E+00  0.000E+00  0.000E+00  4.84066E+01  1.453E-01  2.000E+01  2.000E+04 -6.996E-02
   1   13    2     1     2    1.0140E+05 -2.3138E+03   1.0371E+05  0.000E+00  0.000E+00  0.000E+00  4.79310E+01  1.469E-01  2.000E+01  2.000E+04 -1.157E-01
   1   14    3     1     3    1.0371E+05 -5.1886E+02   1.0423E+05  0.000E+00  0.000E+00  0.000E+00  4.74549E+01  1.481E-01  2.000E+01  2.000E+04 -2.594E-02
   1   15    4     1     4    1.0423E+05 -5.2677E+02   1.0476E+05  0.000E+00  0.000E+00  0.000E+00  4.69781E+01  1.485E-01  2.000E+01  2.000E+04 -2.634E-02
   1   16    5     1     5    1.0476E+05 -2.0717E+03   1.0683E+05  0.000E+00  0.000E+00  0.000E+00  4.65019E+01  1.496E-01  2.000E+01  2.000E+04 -1.036E-01
   1   16    6     1     6    1.0683E+05 -1.2704E+03   1.0810E+05  0.000E+00  0.000E+00  0.000E+00  4.60260E+01  1.510E-01  2.000E+01  2.000E+04 -6.352E-02
   1   16    7     1     7    1.0810E+05 -1.2375E+03   1.0934E+05  0.000E+00  0.000E+00  0.000E+00  4.55498E+01  1.521E-01  2.000E+01  2.000E+04 -6.188E-02
   1   16    8     1     8    1.0934E+05 -1.2343E+03   1.1057E+05  0.000E+00  0.000E+00  0.000E+00  4.50736E+01  1.531E-01  2.000E+01  2.000E+04 -6.172E-02
   1   16    9     1     9    1.1057E+05 -1.2362E+03   1.1181E+05  0.000E+00  0.000E+00  0.000E+00  4.45973E+01  1.542E-01  2.000E+01  2.000E+04 -6.181E-02
   1   16   10     1    10    1.1181E+05 -1.2413E+03   1.1305E+05  0.000E+00  0.000E+00  0.000E+00  4.41211E+01  1.552E-01  2.000E+01  2.000E+04 -6.206E-02
   1   16   11     1    11    1.1305E+05 -1.2687E+03   1.1432E+05  0.000E+00  0.000E+00  0.000E+00  4.36449E+01  1.562E-01  2.000E+01  2.000E+04 -6.344E-02
   1   16   12     1    12    1.1432E+05 -2.1047E+03   1.1642E+05  0.000E+00  0.000E+00  0.000E+00  4.31690E+01  1.576E-01  2.000E+01  2.000E+04 -1.052E-01
   1   15   13     1    13    1.1642E+05 -1.7897E+03   1.1821E+05  0.000E+00  0.000E+00  0.000E+00  4.26933E+01  1.592E-01  2.000E+01  2.000E+04 -8.949E-02
   1   14   14     1    14    1.1821E+05 -1.8342E+03   1.2005E+05  0.000E+00  0.000E+00  0.000E+00  4.22175E+01  1.607E-01  2.000E+01  2.000E+04 -9.171E-02
   1   13   15     1    15    1.2005E+05 -1.8523E+03   1.2190E+05  0.000E+00  0.000E+00  0.000E+00  4.17417E+01  1.622E-01  2.000E+01  2.000E+04 -9.262E-02
   1   12   16     1    16    1.2190E+05 -1.8315E+03   1.2373E+05  0.000E+00  0.000E+00  0.000E+00  4.12659E+01  1.636E-01  2.000E+01  2.000E+04 -9.158E-02
   1   12   17     1    17    1.2373E+05 -1.1813E+03   1.2491E+05  0.000E+00  0.000E+00  0.000E+00  4.07898E+01  1.648E-01  2.000E+01  2.000E+04 -5.907E-02
   1   12   18     1    18    1.2491E+05 -8.7909E+02   1.2579E+05  0.000E+00  0.000E+00  0.000E+00  4.03134E+01  1.657E-01  2.000E+01  2.000E+04 -4.395E-02
   1   12   19     1    19    1.2579E+05  2.7754E+02   1.2551E+05  0.000E+00  0.000E+00  0.000E+00  3.98363E+01  1.659E-01  2.000E+01  2.000E+04  1.388E-02
   1   13   20     1    20    1.2551E+05  4.6779E+01   1.2547E+05  0.000E+00  0.000E+00  0.000E+00  3.93589E+01  1.658E-01  2.000E+01  2.000E+04  2.339E-03
   1   14   21     1    21    1.2547E+05 -1.1670E+03   1.2663E+05  0.000E+00  0.000E+00  0.000E+00  3.88821E+01  1.662E-01  2.000E+01  2.000E+04 -5.835E-02
   1   14   22     1    22    1.2663E+05  5.1686E+03   1.2147E+05  0.000E+00  0.000E+00  0.000E+00  3.84033E+01  1.646E-01  2.000E+01  2.000E+04  2.584E-01
   1    9   30     2     1    5.0000E+04 -5.8464E+02   5.0585E+04  0.000E+00  0.000E+00  0.000E+00  4.02413E+01  1.163E-01  2.000E+01  2.000E+04 -2.923E-02
   1    9   29     2     2    5.0585E+04 -8.2554E+02   5.1410E+04  0.000E+00  0.000E+00  0.000E+00  3.99922E+01  1.172E-01  2.000E+01  2.000E+04 -4.128E-02
   1    9   28     2     3    5.1410E+04 -9.2227E+02   5.2332E+04  0.000E+00  0.000E+00  0.000E+00  3.97434E+01  1.184E-01  2.000E+01  2.000E+04 -4.611E-02
   1    9   27     2     4    5.2332E+04 -1.1512E+03   5.3484E+04  0.000E+00  0.000E+00  0.000E+00  3.94949E+01  1.199E-01  2.000E+01  2.000E+04 -5.756E-02
   1   10   26     2     5    5.3484E+04  7.4759E+02   5.2736E+04  0.000E+00  0.000E+00  0.000E+00  3.92451E+01  1.201E-01  2.000E+01  2.000E+04  3.738E-02
   1   11   25     2     6    5.2736E+04  2.1049E+03   5.0631E+04  0.000E+00  0.000E+00  0.000E+00  3.89932E+01  1.182E-01  2.000E+01  2.000E+04  1.052E-01
   1   12   24     2     7    5.0631E+04  1.7634E+03   4.8868E+04  0.000E+00  0.000E+00  0.000E+00  3.87405E+01  1.155E-01  2.000E+01  2.000E+04  8.817E-02
   1   13   23     2     8    4.8868E+04  1.1361E+02   4.8754E+04  0.000E+00  0.000E+00  0.000E+00  3.84892E+01  1.142E-01  2.000E+01  2.000E+04  5.681E-03
   1   14   22     2     9    4.8754E+04  1.8598E+03   4.6894E+04  0.000E+00  0.000E+00  0.000E+00  3.82378E+01  1.128E-01  2.000E+01  2.000E+04  9.299E-02
   1   14   22     3     1    1.6836E+05 -8.4547E+03   1.7681E+05  0.000E+00  0.000E+00  0.000E+00  3.77221E+01  1.665E-01  2.000E+01  2.000E+04 -4.227E-01
   1   15   23     3     2    1.7681E+05 -6.6328E+02   1.7748E+05  0.000E+00  0.000E+00  0.000E+00  3.68358E+01  1.692E-01  2.000E+01  2.000E+04 -3.316E-02
   1   15   24     3     3    1.7748E+05 -3.8037E+02   1.7786E+05  0.000E+00  0.000E+00  0.000E+00  3.59472E+01  1.695E-01  2.000E+01  2.000E+04 -1.902E-02
   1   15   25     3     4    1.7786E+05 -3.7473E+02   1.7823E+05  0.000E+00  0.000E+00  0.000E+00  3.50586E+01  1.697E-01  2.000E+01  2.000E+04 -1.874E-02
   1   15   26     3     5    1.7823E+05 -4.4777E+02   1.7868E+05  0.000E+00  0.000E+00  0.000E+00  3.41699E+01  1.699E-01  2.000E+01  2.000E+04 -2.239E-02
   1   16   27     3     6    1.7868E+05 -4.9792E+02   1.7918E+05  0.000E+00  0.000E+00  0.000E+00  3.32813E+01  1.702E-01  2.000E+01  2.000E+04 -2.490E-02
   1   17   28     3     7    1.7918E+05 -1.9316E+03   1.8111E+05  0.000E+00  0.000E+00  0.000E+00  3.23931E+01  1.709E-01  2.000E+01  2.000E+04 -9.658E-02
   1   18   29     3     8    1.8111E+05 -3.3039E+03   1.8441E+05  0.000E+00  0.000E+00  0.000E+00  3.15057E+01  1.724E-01  2.000E+01  2.000E+04 -1.652E-01
   1   18   30     3     9    1.8441E+05 -3.4868E+03   1.8790E+05  0.000E+00  0.000E+00  0.000E+00  3.06187E+01  1.743E-01  2.000E+01  2.000E+04 -1.743E-01



1
              HEAD IN LAYER   1 AT END OF TIME STEP   1 IN STRESS PERIOD   10
  ---------------------------------------------------------------------------

          1      2      3      4      5      6      7      8      9     10
         11     12     13     14     15     16     17     18     19     20
         21     22     23     24     25     26     27     28     29     30
 .........................................................................
   1  ****** ****** ****** ****** ****** ****** ****** ****** ****** ******
      ****** ****** ****** ****** ****** ****** ****** ****** ****** ******
      ****** ****** ****** ****** ****** ****** ****** ****** ****** ******
   2  ****** ****** ****** ****** ****** ****** ****** ****** ****** ******
      ****** ****** ****** ****** ****** ****** ****** ****** ****** ******
      ****** ****** ****** ****** ****** ****** ****** ****** ****** ******
   3  ****** ****** ****** ****** ****** ****** ****** ****** ****** ******
      ****** ****** ****** ****** ****** ****** ****** ****** ****** ******
      ****** ****** ****** ****** ****** ****** ****** ****** ****** ******
   4  ****** ****** ****** ****** ****** ****** ****** ****** ****** ******
      ****** ****** ****** ****** ****** ****** ****** ****** ****** ******
      ****** ****** ****** ****** ****** ****** ****** ****** ****** ******
   5  ****** ****** ****** ****** ****** ****** ****** ****** ****** ******
      ****** ****** ****** ****** ****** ****** ****** ****** ****** ******
      ****** ****** ****** ****** ****** ****** ****** ****** ****** ******
   6  ****** ****** ****** ****** ****** ****** ****** ****** ****** ******
      ****** ****** ****** ****** ****** ****** ****** ****** ****** ******
      ****** ****** ****** ****** ****** ****** ****** ****** ****** ******
   7  ****** ****** ****** ****** ****** ****** ****** ****** ****** ******
      ****** ****** ****** ****** ****** ****** ****** ****** ****** ******
      ****** ****** ****** ****** ****** ****** ****** ****** ****** ******
   8  ****** ****** ****** ****** ****** ****** ****** ****** ****** ******
      ****** ****** ****** ****** ****** ****** ****** ****** ****** ******
      ****** ****** ****** ****** ****** ****** ****** ****** ****** ******
   9  ****** ****** ****** ****** ****** ****** ****** ****** ****** ******
      ****** ****** ****** ****** ****** ****** ****** ****** ****** ******
      ****** ****** ****** ****** ****** ****** ****** ****** ****** ******
  10  ****** ****** ****** ****** ****** ****** ****** ****** ****** ******
      ****** ****** ****** ****** ****** ****** ****** ****** ****** ******
      ****** ****** ****** ****** ****** ****** ****** ****** ****** ******
  11  ****** ****** ****** ****** ****** ****** ****** ****** ****** ******
      ****** ****** ****** ****** ****** ****** ****** ****** ****** ******
      ****** ****** ****** ****** ****** ****** ****** ****** ****** ******
  12  ****** ****** ****** ****** ****** ****** ****** ****** ****** ******
      ****** ****** ****** ****** ****** ****** ****** ****** ****** ******
      ****** ****** ****** ****** ****** ****** ****** ****** ****** ******
  13  ****** ****** ****** ****** ****** ****** ****** ****** ****** ******
      ****** ****** ****** ****** ****** ****** ****** ****** ****** ******
      ****** ****** ****** ****** ****** ****** ****** ****** ****** ******
  14  ****** ****** ****** ****** ****** ****** ****** ****** ****** ******
      ****** ****** ****** ****** ****** ****** ****** ****** ****** ******
      ****** ****** ****** ****** ****** ****** ****** ****** ****** ******
  15  ****** ****** ****** ****** ****** ****** ****** ****** ****** ******
      ****** ****** ****** ****** ****** ****** ****** ****** ****** ******
      ****** ****** ****** ****** ****** ****** ****** ****** ****** ******
  16  ****** ****** ****** ****** ****** ****** ****** ****** ****** ******
      ****** ****** ****** ****** ****** ****** ****** ****** ****** ******
      ****** ****** ****** ****** ****** ****** ****** ****** ****** ******
  17  ****** ****** ****** ****** ****** ****** ****** ****** ****** ******
      ****** ****** ****** ****** ****** ****** ****** ****** ****** ******
      ****** ****** ****** ****** ****** ****** ****** ****** ****** ******
  18  ****** ****** ****** ****** ****** ****** ****** ****** ****** ******
      ****** ****** ****** ****** ****** ****** ****** ****** ****** ******
      ****** ****** ****** ****** ****** ****** ****** ****** ****** ******
  19  ****** ****** ****** ****** ****** ****** ****** ****** ****** ******
      ****** ****** ****** ****** ****** ****** ****** ****** ****** ******
      ****** ****** ****** ****** ****** ****** ****** ****** ****** ******
  20  ****** ****** ****** ****** ****** ****** ****** ****** ****** ******
      ****** ****** ****** ****** ****** ****** ****** ****** ****** ******
      ****** ****** ****** ****** ****** ****** ****** ****** ****** ******
  21  ****** ****** ****** ****** ****** ****** ****** ****** ****** ******
      ****** ****** ****** ****** ****** ****** ****** ****** ****** ******
      ****** ****** ****** ****** ****** ****** ****** ****** ****** ******
  22  ****** ****** ****** ****** ****** ****** ****** ****** ****** ******
      ****** ****** ****** ****** ****** ****** ****** ****** ****** ******
      ****** ****** ****** ****** ****** ****** ****** ****** ****** ******
  23  ****** ****** ****** ****** ****** ****** ****** ****** ****** ******
      ****** ****** ****** ****** ****** ****** ****** ****** ****** ******
      ****** ****** ****** ****** ****** ****** ****** ****** ****** ******
  24  ****** ****** ****** ****** ****** ****** ****** ****** ****** ******
      ****** ****** ****** ****** ****** ****** ****** ****** ****** ******
      ****** ****** ****** ****** ****** ****** ****** ****** ****** ******
  25  ****** ****** ****** ****** ****** ****** ****** ****** ****** ******
      ****** ****** ****** ****** ****** ****** ****** ****** ****** ******
      ****** ****** ****** ****** ****** ****** ****** ****** ****** ******

 HEAD WILL BE SAVED ON UNIT   51 AT END OF TIME STEP    1, STRESS PERIOD   10
1
  VOLUMETRIC BUDGET FOR ENTIRE MODEL AT END OF TIME STEP    1, STRESS PERIOD  10
  ------------------------------------------------------------------------------

     CUMULATIVE VOLUMES      L**3       RATES FOR THIS TIME STEP      L**3/T
     ------------------                 ------------------------

           IN:                                      IN:
           ---                                      ---
             STORAGE =    35438116.0310               STORAGE =           0.0000
       CONSTANT HEAD =    26484327.0537         CONSTANT HEAD =       33163.2983
               WELLS =           0.0000                 WELLS =           0.0000
            RECHARGE =    23901600.0000              RECHARGE =       55200.0000
      STREAM LEAKAGE =    10472248.9857        STREAM LEAKAGE =       12082.2413

            TOTAL IN =    96296292.0704              TOTAL IN =      100445.5396

          OUT:                                     OUT:
          ----                                     ----
             STORAGE =     2233137.0155               STORAGE =       15300.3439
       CONSTANT HEAD =           0.0000         CONSTANT HEAD =           0.0000
               WELLS =    32102728.7902                 WELLS =       35161.8059
            RECHARGE =           0.0000              RECHARGE =           0.0000
      STREAM LEAKAGE =    61960427.9186        STREAM LEAKAGE =       49983.3861

           TOTAL OUT =    96296293.7244             TOTAL OUT =      100445.5359

            IN - OUT =          -1.6540              IN - OUT =       3.6933E-03

 PERCENT DISCREPANCY =          -0.00     PERCENT DISCREPANCY =           0.00






         TIME SUMMARY AT END OF TIME STEP    1 IN STRESS PERIOD   10
                    SECONDS     MINUTES      HOURS       DAYS        YEARS
                    -----------------------------------------------------------
   TIME STEP LENGTH 7.86240E+06 1.31040E+05  2184.0      91.000     0.24914    
 STRESS PERIOD TIME 7.86240E+06 1.31040E+05  2184.0      91.000     0.24914    
         TOTAL TIME 7.88832E+07 1.31472E+06  21912.      913.00      2.4997    
1
1
                            STRESS PERIOD NO.   11, LENGTH =   91.00000    
                            -----------------------------------------------

                              NUMBER OF TIME STEPS =     1

                               MULTIPLIER FOR DELT =     1.500

                            INITIAL TIME STEP SIZE =   91.00000    

 WELL NO.  LAYER   ROW   COL   STRESS RATE         
 --------------------------------------------------
      1      1     14      6       0.000    
      2      1      3      9       0.000    
      3      1     20     10       0.000    
      4      1     14     20       0.000    
      5      1     10     24     -0.1045E+05
      6      1      7      8      -7751.    
      7      1      5     20      -7335.    
      8      1     11     21      -9620.    

      8 WELLS

                 RECHARGE =   0.00000    

 REUSING STREAM SEGMENT DATA FROM LAST STRESS PERIOD
 
 SOLVING FOR HEAD 


     7 CALLS TO PCG ROUTINE FOR TIME STEP   1 IN STRESS PERIOD   11
    26 TOTAL ITERATIONS

 OUTPUT CONTROL FOR STRESS PERIOD   11   TIME STEP    1
    SAVE BUDGET
    SAVE HEAD FOR ALL LAYERS
    PRINT HEAD FOR ALL LAYERS
 UBDSV2 SAVING "STREAMFLOW OUT  " ON UNIT  50 AT TIME STEP  1, STRESS PERIOD  11



 STREAM LISTING     PERIOD     11   STEP        1

 LAYER ROW COL. STREAM  RCH.  FLOW INTO     FLOW TO   FLOW OUT OF   OVRLND.     DIRECT     STREAM       STREAM     STREAM     STREAM   STREAMBED  STREAMBED
                SEG.NO.  NO.  STRM. RCH.    AQUIFER    STRM. RCH.    RUNOFF     PRECIP       ET          HEAD       DEPTH      WIDTH   CONDCTNC.   GRADIENT

   1   13    1     1     1    1.0000E+05 -8.2161E+02   1.0082E+05  0.000E+00  0.000E+00  0.000E+00  4.84064E+01  1.450E-01  2.000E+01  2.000E+04 -4.108E-02
   1   13    2     1     2    1.0082E+05 -1.6699E+03   1.0249E+05  0.000E+00  0.000E+00  0.000E+00  4.79302E+01  1.461E-01  2.000E+01  2.000E+04 -8.349E-02
   1   14    3     1     3    1.0249E+05 -2.8615E+02   1.0278E+05  0.000E+00  0.000E+00  0.000E+00  4.74537E+01  1.469E-01  2.000E+01  2.000E+04 -1.431E-02
   1   15    4     1     4    1.0278E+05 -2.8343E+02   1.0306E+05  0.000E+00  0.000E+00  0.000E+00  4.69767E+01  1.472E-01  2.000E+01  2.000E+04 -1.417E-02
   1   16    5     1     5    1.0306E+05 -1.3832E+03   1.0444E+05  0.000E+00  0.000E+00  0.000E+00  4.65002E+01  1.479E-01  2.000E+01  2.000E+04 -6.916E-02
   1   16    6     1     6    1.0444E+05 -8.5498E+02   1.0530E+05  0.000E+00  0.000E+00  0.000E+00  4.60238E+01  1.488E-01  2.000E+01  2.000E+04 -4.275E-02
   1   16    7     1     7    1.0530E+05 -8.3953E+02   1.0614E+05  0.000E+00  0.000E+00  0.000E+00  4.55473E+01  1.496E-01  2.000E+01  2.000E+04 -4.198E-02
   1   16    8     1     8    1.0614E+05 -8.4190E+02   1.0698E+05  0.000E+00  0.000E+00  0.000E+00  4.50707E+01  1.503E-01  2.000E+01  2.000E+04 -4.210E-02
   1   16    9     1     9    1.0698E+05 -8.4620E+02   1.0783E+05  0.000E+00  0.000E+00  0.000E+00  4.45942E+01  1.510E-01  2.000E+01  2.000E+04 -4.231E-02
   1   16   10     1    10    1.0783E+05 -8.5269E+02   1.0868E+05  0.000E+00  0.000E+00  0.000E+00  4.41176E+01  1.517E-01  2.000E+01  2.000E+04 -4.263E-02
   1   16   11     1    11    1.0868E+05 -8.7873E+02   1.0956E+05  0.000E+00  0.000E+00  0.000E+00  4.36411E+01  1.524E-01  2.000E+01  2.000E+04 -4.394E-02
   1   16   12     1    12    1.0956E+05 -1.4581E+03   1.1102E+05  0.000E+00  0.000E+00  0.000E+00  4.31648E+01  1.534E-01  2.000E+01  2.000E+04 -7.291E-02
   1   15   13     1    13    1.1102E+05 -1.0980E+03   1.1211E+05  0.000E+00  0.000E+00  0.000E+00  4.26886E+01  1.545E-01  2.000E+01  2.000E+04 -5.490E-02
   1   14   14     1    14    1.1211E+05 -1.1232E+03   1.1324E+05  0.000E+00  0.000E+00  0.000E+00  4.22122E+01  1.554E-01  2.000E+01  2.000E+04 -5.616E-02
   1   13   15     1    15    1.1324E+05 -1.1456E+03   1.1438E+05  0.000E+00  0.000E+00  0.000E+00  4.17359E+01  1.563E-01  2.000E+01  2.000E+04 -5.728E-02
   1   12   16     1    16    1.1438E+05 -1.1462E+03   1.1553E+05  0.000E+00  0.000E+00  0.000E+00  4.12595E+01  1.573E-01  2.000E+01  2.000E+04 -5.731E-02
   1   12   17     1    17    1.1553E+05 -6.7072E+02   1.1620E+05  0.000E+00  0.000E+00  0.000E+00  4.07830E+01  1.580E-01  2.000E+01  2.000E+04 -3.354E-02
   1   12   18     1    18    1.1620E+05 -3.7687E+02   1.1658E+05  0.000E+00  0.000E+00  0.000E+00  4.03062E+01  1.584E-01  2.000E+01  2.000E+04 -1.884E-02
   1   12   19     1    19    1.1658E+05  8.9388E+02   1.1568E+05  0.000E+00  0.000E+00  0.000E+00  3.98287E+01  1.582E-01  2.000E+01  2.000E+04  4.469E-02
   1   13   20     1    20    1.1568E+05  6.6037E+02   1.1502E+05  0.000E+00  0.000E+00  0.000E+00  3.93508E+01  1.576E-01  2.000E+01  2.000E+04  3.302E-02
   1   14   21     1    21    1.1502E+05 -5.7008E+02   1.1559E+05  0.000E+00  0.000E+00  0.000E+00  3.88735E+01  1.576E-01  2.000E+01  2.000E+04 -2.850E-02
   1   14   22     1    22    1.1559E+05  5.3185E+03   1.1027E+05  0.000E+00  0.000E+00  0.000E+00  3.83942E+01  1.556E-01  2.000E+01  2.000E+04  2.659E-01
   1    9   30     2     1    5.0000E+04 -9.5834E+01   5.0096E+04  0.000E+00  0.000E+00  0.000E+00  4.02409E+01  1.159E-01  2.000E+01  2.000E+04 -4.792E-03
   1    9   29     2     2    5.0096E+04 -3.3971E+02   5.0436E+04  0.000E+00  0.000E+00  0.000E+00  3.99912E+01  1.162E-01  2.000E+01  2.000E+04 -1.699E-02
   1    9   28     2     3    5.0436E+04 -4.3845E+02   5.0874E+04  0.000E+00  0.000E+00  0.000E+00  3.97418E+01  1.168E-01  2.000E+01  2.000E+04 -2.192E-02
   1    9   27     2     4    5.0874E+04 -5.0926E+02   5.1383E+04  0.000E+00  0.000E+00  0.000E+00  3.94924E+01  1.174E-01  2.000E+01  2.000E+04 -2.546E-02
   1   10   26     2     5    5.1383E+04  1.4036E+03   4.9980E+04  0.000E+00  0.000E+00  0.000E+00  3.92418E+01  1.168E-01  2.000E+01  2.000E+04  7.018E-02
   1   11   25     2     6    4.9980E+04  2.7370E+03   4.7243E+04  0.000E+00  0.000E+00  0.000E+00  3.89889E+01  1.139E-01  2.000E+01  2.000E+04  1.368E-01
   1   12   24     2     7    4.7243E+04  2.3384E+03   4.4904E+04  0.000E+00  0.000E+00  0.000E+00  3.87353E+01  1.103E-01  2.000E+01  2.000E+04  1.169E-01
   1   13   23     2     8    4.4904E+04  2.9968E+02   4.4605E+04  0.000E+00  0.000E+00  0.000E+00  3.84834E+01  1.084E-01  2.000E+01  2.000E+04  1.498E-02
   1   14   22     2     9    4.4605E+04  2.0674E+03   4.2537E+04  0.000E+00  0.000E+00  0.000E+00  3.82317E+01  1.067E-01  2.000E+01  2.000E+04  1.034E-01
   1   14   22     3     1    1.5281E+05 -8.3087E+03   1.6112E+05  0.000E+00  0.000E+00  0.000E+00  3.77129E+01  1.573E-01  2.000E+01  2.000E+04 -4.154E-01
   1   15   23     3     2    1.6112E+05 -4.7140E+02   1.6159E+05  0.000E+00  0.000E+00  0.000E+00  3.68266E+01  1.599E-01  2.000E+01  2.000E+04 -2.357E-02
   1   15   24     3     3    1.6159E+05 -2.1535E+02   1.6181E+05  0.000E+00  0.000E+00  0.000E+00  3.59379E+01  1.601E-01  2.000E+01  2.000E+04 -1.077E-02
   1   15   25     3     4    1.6181E+05 -2.0587E+02   1.6201E+05  0.000E+00  0.000E+00  0.000E+00  3.50492E+01  1.603E-01  2.000E+01  2.000E+04 -1.029E-02
   1   15   26     3     5    1.6201E+05 -2.5216E+02   1.6227E+05  0.000E+00  0.000E+00  0.000E+00  3.41604E+01  1.604E-01  2.000E+01  2.000E+04 -1.261E-02
   1   16   27     3     6    1.6227E+05 -2.7503E+02   1.6254E+05  0.000E+00  0.000E+00  0.000E+00  3.32717E+01  1.606E-01  2.000E+01  2.000E+04 -1.375E-02
   1   17   28     3     7    1.6254E+05 -1.3223E+03   1.6386E+05  0.000E+00  0.000E+00  0.000E+00  3.23833E+01  1.610E-01  2.000E+01  2.000E+04 -6.611E-02
   1   18   29     3     8    1.6386E+05 -2.6828E+03   1.6655E+05  0.000E+00  0.000E+00  0.000E+00  3.14956E+01  1.622E-01  2.000E+01  2.000E+04 -1.341E-01
   1   18   30     3     9    1.6655E+05 -2.9981E+03   1.6954E+05  0.000E+00  0.000E+00  0.000E+00  3.06083E+01  1.639E-01  2.000E+01  2.000E+04 -1.499E-01



1
              HEAD IN LAYER   1 AT END OF TIME STEP   1 IN STRESS PERIOD   11
  ---------------------------------------------------------------------------

          1      2      3      4      5      6      7      8      9     10
         11     12     13     14     15     16     17     18     19     20
         21     22     23     24     25     26     27     28     29     30
 .........................................................................
   1  ****** ****** ****** ****** ****** ****** ****** ****** ****** ******
      ****** ****** ****** ****** ****** ****** ****** ****** ****** ******
      ****** ****** ****** ****** ****** ****** ****** ****** ****** ******
   2  ****** ****** ****** ****** ****** ****** ****** ****** ****** ******
      ****** ****** ****** ****** ****** ****** ****** ****** ****** ******
      ****** ****** ****** ****** ****** ****** ****** ****** ****** ******
   3  ****** ****** ****** ****** ****** ****** ****** ****** ****** ******
      ****** ****** ****** ****** ****** ****** ****** ****** ****** ******
      ****** ****** ****** ****** ****** ****** ****** ****** ****** ******
   4  ****** ****** ****** ****** ****** ****** ****** ****** ****** ******
      ****** ****** ****** ****** ****** ****** ****** ****** ****** ******
      ****** ****** ****** ****** ****** ****** ****** ****** ****** ******
   5  ****** ****** ****** ****** ****** ****** ****** ****** ****** ******
      ****** ****** ****** ****** ****** ****** ****** ****** ****** ******
      ****** ****** ****** ****** ****** ****** ****** ****** ****** ******
   6  ****** ****** ****** ****** ****** ****** ****** ****** ****** ******
      ****** ****** ****** ****** ****** ****** ****** ****** ****** ******
      ****** ****** ****** ****** ****** ****** ****** ****** ****** ******
   7  ****** ****** ****** ****** ****** ****** ****** ****** ****** ******
      ****** ****** ****** ****** ****** ****** ****** ****** ****** ******
      ****** ****** ****** ****** ****** ****** ****** ****** ****** ******
   8  ****** ****** ****** ****** ****** ****** ****** ****** ****** ******
      ****** ****** ****** ****** ****** ****** ****** ****** ****** ******
      ****** ****** ****** ****** ****** ****** ****** ****** ****** ******
   9  ****** ****** ****** ****** ****** ****** ****** ****** ****** ******
      ****** ****** ****** ****** ****** ****** ****** ****** ****** ******
      ****** ****** ****** ****** ****** ****** ****** ****** ****** ******
  10  ****** ****** ****** ****** ****** ****** ****** ****** ****** ******
      ****** ****** ****** ****** ****** ****** ****** ****** ****** ******
      ****** ****** ****** ****** ****** ****** ****** ****** ****** ******
  11  ****** ****** ****** ****** ****** ****** ****** ****** ****** ******
      ****** ****** ****** ****** ****** ****** ****** ****** ****** ******
      ****** ****** ****** ****** ****** ****** ****** ****** ****** ******
  12  ****** ****** ****** ****** ****** ****** ****** ****** ****** ******
      ****** ****** ****** ****** ****** ****** ****** ****** ****** ******
      ****** ****** ****** ****** ****** ****** ****** ****** ****** ******
  13  ****** ****** ****** ****** ****** ****** ****** ****** ****** ******
      ****** ****** ****** ****** ****** ****** ****** ****** ****** ******
      ****** ****** ****** ****** ****** ****** ****** ****** ****** ******
  14  ****** ****** ****** ****** ****** ****** ****** ****** ****** ******
      ****** ****** ****** ****** ****** ****** ****** ****** ****** ******
      ****** ****** ****** ****** ****** ****** ****** ****** ****** ******
  15  ****** ****** ****** ****** ****** ****** ****** ****** ****** ******
      ****** ****** ****** ****** ****** ****** ****** ****** ****** ******
      ****** ****** ****** ****** ****** ****** ****** ****** ****** ******
  16  ****** ****** ****** ****** ****** ****** ****** ****** ****** ******
      ****** ****** ****** ****** ****** ****** ****** ****** ****** ******
      ****** ****** ****** ****** ****** ****** ****** ****** ****** ******
  17  ****** ****** ****** ****** ****** ****** ****** ****** ****** ******
      ****** ****** ****** ****** ****** ****** ****** ****** ****** ******
      ****** ****** ****** ****** ****** ****** ****** ****** ****** ******
  18  ****** ****** ****** ****** ****** ****** ****** ****** ****** ******
      ****** ****** ****** ****** ****** ****** ****** ****** ****** ******
      ****** ****** ****** ****** ****** ****** ****** ****** ****** ******
  19  ****** ****** ****** ****** ****** ****** ****** ****** ****** ******
      ****** ****** ****** ****** ****** ****** ****** ****** ****** ******
      ****** ****** ****** ****** ****** ****** ****** ****** ****** ******
  20  ****** ****** ****** ****** ****** ****** ****** ****** ****** ******
      ****** ****** ****** ****** ****** ****** ****** ****** ****** ******
      ****** ****** ****** ****** ****** ****** ****** ****** ****** ******
  21  ****** ****** ****** ****** ****** ****** ****** ****** ****** ******
      ****** ****** ****** ****** ****** ****** ****** ****** ****** ******
      ****** ****** ****** ****** ****** ****** ****** ****** ****** ******
  22  ****** ****** ****** ****** ****** ****** ****** ****** ****** ******
      ****** ****** ****** ****** ****** ****** ****** ****** ****** ******
      ****** ****** ****** ****** ****** ****** ****** ****** ****** ******
  23  ****** ****** ****** ****** ****** ****** ****** ****** ****** ******
      ****** ****** ****** ****** ****** ****** ****** ****** ****** ******
      ****** ****** ****** ****** ****** ****** ****** ****** ****** ******
  24  ****** ****** ****** ****** ****** ****** ****** ****** ****** ******
      ****** ****** ****** ****** ****** ****** ****** ****** ****** ******
      ****** ****** ****** ****** ****** ****** ****** ****** ****** ******
  25  ****** ****** ****** ****** ****** ****** ****** ****** ****** ******
      ****** ****** ****** ****** ****** ****** ****** ****** ****** ******
      ****** ****** ****** ****** ****** ****** ****** ****** ****** ******

 HEAD WILL BE SAVED ON UNIT   51 AT END OF TIME STEP    1, STRESS PERIOD   11
1
  VOLUMETRIC BUDGET FOR ENTIRE MODEL AT END OF TIME STEP    1, STRESS PERIOD  11
  ------------------------------------------------------------------------------

     CUMULATIVE VOLUMES      L**3       RATES FOR THIS TIME STEP      L**3/T
     ------------------                 ------------------------

           IN:                                      IN:
           ---                                      ---
             STORAGE =    37096617.9983               STORAGE =       18225.2963
       CONSTANT HEAD =    29803978.1300         CONSTANT HEAD =       36479.6822
               WELLS =           0.0000                 WELLS =           0.0000
            RECHARGE =    23901600.0000              RECHARGE =           0.0000
      STREAM LEAKAGE =    11902663.3263        STREAM LEAKAGE =       15718.8389

            TOTAL IN =   102704859.4546              TOTAL IN =       70423.8174

          OUT:                                     OUT:
          ----                                     ----
             STORAGE =     2233137.0155               STORAGE =           0.0000
       CONSTANT HEAD =           0.0000         CONSTANT HEAD =           0.0000
               WELLS =    35302453.1275                 WELLS =       35161.8059
            RECHARGE =           0.0000              RECHARGE =           0.0000
      STREAM LEAKAGE =    65169271.4143        STREAM LEAKAGE =       35262.0164

           TOTAL OUT =   102704861.5573             TOTAL OUT =       70423.8223

            IN - OUT =          -2.1026              IN - OUT =      -4.9300E-03

 PERCENT DISCREPANCY =          -0.00     PERCENT DISCREPANCY =          -0.00






         TIME SUMMARY AT END OF TIME STEP    1 IN STRESS PERIOD   11
                    SECONDS     MINUTES      HOURS       DAYS        YEARS
                    -----------------------------------------------------------
   TIME STEP LENGTH 7.86240E+06 1.31040E+05  2184.0      91.000     0.24914    
 STRESS PERIOD TIME 7.86240E+06 1.31040E+05  2184.0      91.000     0.24914    
         TOTAL TIME 8.67456E+07 1.44576E+06  24096.      1004.0      2.7488    
1
1
                            STRESS PERIOD NO.   12, LENGTH =   91.00000    
                            -----------------------------------------------

                              NUMBER OF TIME STEPS =     1

                               MULTIPLIER FOR DELT =     1.500

                            INITIAL TIME STEP SIZE =   91.00000    

 WELL NO.  LAYER   ROW   COL   STRESS RATE         
 --------------------------------------------------
      1      1     14      6       0.000    
      2      1      3      9       0.000    
      3      1     20     10       0.000    
      4      1     14     20       0.000    
      5      1     10     24     -0.1045E+05
      6      1      7      8      -7751.    
      7      1      5     20      -7335.    
      8      1     11     21      -9620.    

      8 WELLS

                 RECHARGE =  1.000000E-03

 REUSING STREAM SEGMENT DATA FROM LAST STRESS PERIOD
 
 SOLVING FOR HEAD 


     7 CALLS TO PCG ROUTINE FOR TIME STEP   1 IN STRESS PERIOD   12
    24 TOTAL ITERATIONS

 OUTPUT CONTROL FOR STRESS PERIOD   12   TIME STEP    1
    SAVE BUDGET
    SAVE HEAD FOR ALL LAYERS
    PRINT HEAD FOR ALL LAYERS
 UBDSV2 SAVING "STREAMFLOW OUT  " ON UNIT  50 AT TIME STEP  1, STRESS PERIOD  12



 STREAM LISTING     PERIOD     12   STEP        1

 LAYER ROW COL. STREAM  RCH.  FLOW INTO     FLOW TO   FLOW OUT OF   OVRLND.     DIRECT     STREAM       STREAM     STREAM     STREAM   STREAMBED  STREAMBED
                SEG.NO.  NO.  STRM. RCH.    AQUIFER    STRM. RCH.    RUNOFF     PRECIP       ET          HEAD       DEPTH      WIDTH   CONDCTNC.   GRADIENT

   1   13    1     1     1    1.0000E+05 -9.5866E+02   1.0096E+05  0.000E+00  0.000E+00  0.000E+00  4.84064E+01  1.451E-01  2.000E+01  2.000E+04 -4.793E-02
   1   13    2     1     2    1.0096E+05 -1.8164E+03   1.0278E+05  0.000E+00  0.000E+00  0.000E+00  4.79304E+01  1.463E-01  2.000E+01  2.000E+04 -9.082E-02
   1   14    3     1     3    1.0278E+05 -3.6337E+02   1.0314E+05  0.000E+00  0.000E+00  0.000E+00  4.74540E+01  1.472E-01  2.000E+01  2.000E+04 -1.817E-02
   1   15    4     1     4    1.0314E+05 -3.6472E+02   1.0350E+05  0.000E+00  0.000E+00  0.000E+00  4.69771E+01  1.475E-01  2.000E+01  2.000E+04 -1.824E-02
   1   16    5     1     5    1.0350E+05 -1.5924E+03   1.0510E+05  0.000E+00  0.000E+00  0.000E+00  4.65006E+01  1.484E-01  2.000E+01  2.000E+04 -7.962E-02
   1   16    6     1     6    1.0510E+05 -9.8454E+02   1.0608E+05  0.000E+00  0.000E+00  0.000E+00  4.60244E+01  1.494E-01  2.000E+01  2.000E+04 -4.923E-02
   1   16    7     1     7    1.0608E+05 -9.6391E+02   1.0704E+05  0.000E+00  0.000E+00  0.000E+00  4.55480E+01  1.503E-01  2.000E+01  2.000E+04 -4.820E-02
   1   16    8     1     8    1.0704E+05 -9.6527E+02   1.0801E+05  0.000E+00  0.000E+00  0.000E+00  4.50715E+01  1.511E-01  2.000E+01  2.000E+04 -4.826E-02
   1   16    9     1     9    1.0801E+05 -9.7014E+02   1.0898E+05  0.000E+00  0.000E+00  0.000E+00  4.45951E+01  1.519E-01  2.000E+01  2.000E+04 -4.851E-02
   1   16   10     1    10    1.0898E+05 -9.7818E+02   1.0996E+05  0.000E+00  0.000E+00  0.000E+00  4.41186E+01  1.527E-01  2.000E+01  2.000E+04 -4.891E-02
   1   16   11     1    11    1.0996E+05 -1.0067E+03   1.1096E+05  0.000E+00  0.000E+00  0.000E+00  4.36422E+01  1.535E-01  2.000E+01  2.000E+04 -5.034E-02
   1   16   12     1    12    1.1096E+05 -1.6590E+03   1.1262E+05  0.000E+00  0.000E+00  0.000E+00  4.31660E+01  1.547E-01  2.000E+01  2.000E+04 -8.295E-02
   1   15   13     1    13    1.1262E+05 -1.3125E+03   1.1394E+05  0.000E+00  0.000E+00  0.000E+00  4.26900E+01  1.559E-01  2.000E+01  2.000E+04 -6.563E-02
   1   14   14     1    14    1.1394E+05 -1.3373E+03   1.1527E+05  0.000E+00  0.000E+00  0.000E+00  4.22138E+01  1.570E-01  2.000E+01  2.000E+04 -6.687E-02
   1   13   15     1    15    1.1527E+05 -1.3516E+03   1.1662E+05  0.000E+00  0.000E+00  0.000E+00  4.17376E+01  1.581E-01  2.000E+01  2.000E+04 -6.758E-02
   1   12   16     1    16    1.1662E+05 -1.3242E+03   1.1795E+05  0.000E+00  0.000E+00  0.000E+00  4.12614E+01  1.592E-01  2.000E+01  2.000E+04 -6.621E-02
   1   12   17     1    17    1.1795E+05 -8.2155E+02   1.1877E+05  0.000E+00  0.000E+00  0.000E+00  4.07850E+01  1.600E-01  2.000E+01  2.000E+04 -4.108E-02
   1   12   18     1    18    1.1877E+05 -5.3039E+02   1.1930E+05  0.000E+00  0.000E+00  0.000E+00  4.03083E+01  1.606E-01  2.000E+01  2.000E+04 -2.652E-02
   1   12   19     1    19    1.1930E+05  7.0392E+02   1.1860E+05  0.000E+00  0.000E+00  0.000E+00  3.98310E+01  1.605E-01  2.000E+01  2.000E+04  3.520E-02
   1   13   20     1    20    1.1860E+05  4.5089E+02   1.1815E+05  0.000E+00  0.000E+00  0.000E+00  3.93532E+01  1.601E-01  2.000E+01  2.000E+04  2.254E-02
   1   14   21     1    21    1.1815E+05 -7.6414E+02   1.1891E+05  0.000E+00  0.000E+00  0.000E+00  3.88761E+01  1.602E-01  2.000E+01  2.000E+04 -3.821E-02
   1   14   22     1    22    1.1891E+05  5.2641E+03   1.1365E+05  0.000E+00  0.000E+00  0.000E+00  3.83970E+01  1.584E-01  2.000E+01  2.000E+04  2.632E-01
   1    9   30     2     1    5.0000E+04 -2.7174E+02   5.0272E+04  0.000E+00  0.000E+00  0.000E+00  4.02411E+01  1.161E-01  2.000E+01  2.000E+04 -1.359E-02
   1    9   29     2     2    5.0272E+04 -5.1352E+02   5.0785E+04  0.000E+00  0.000E+00  0.000E+00  3.99916E+01  1.166E-01  2.000E+01  2.000E+04 -2.568E-02
   1    9   28     2     3    5.0785E+04 -6.0862E+02   5.1394E+04  0.000E+00  0.000E+00  0.000E+00  3.97424E+01  1.174E-01  2.000E+01  2.000E+04 -3.043E-02
   1    9   27     2     4    5.1394E+04 -7.1693E+02   5.2111E+04  0.000E+00  0.000E+00  0.000E+00  3.94933E+01  1.183E-01  2.000E+01  2.000E+04 -3.585E-02
   1   10   26     2     5    5.2111E+04  1.1751E+03   5.0936E+04  0.000E+00  0.000E+00  0.000E+00  3.92430E+01  1.180E-01  2.000E+01  2.000E+04  5.875E-02
   1   11   25     2     6    5.0936E+04  2.5123E+03   4.8423E+04  0.000E+00  0.000E+00  0.000E+00  3.89904E+01  1.154E-01  2.000E+01  2.000E+04  1.256E-01
   1   12   24     2     7    4.8423E+04  2.1335E+03   4.6290E+04  0.000E+00  0.000E+00  0.000E+00  3.87372E+01  1.122E-01  2.000E+01  2.000E+04  1.067E-01
   1   13   23     2     8    4.6290E+04  2.2228E+02   4.6068E+04  0.000E+00  0.000E+00  0.000E+00  3.84855E+01  1.105E-01  2.000E+01  2.000E+04  1.111E-02
   1   14   22     2     9    4.6068E+04  2.0016E+03   4.4066E+04  0.000E+00  0.000E+00  0.000E+00  3.82339E+01  1.089E-01  2.000E+01  2.000E+04  1.001E-01
   1   14   22     3     1    1.5771E+05 -8.3593E+03   1.6607E+05  0.000E+00  0.000E+00  0.000E+00  3.77158E+01  1.603E-01  2.000E+01  2.000E+04 -4.180E-01
   1   15   23     3     2    1.6607E+05 -5.4350E+02   1.6662E+05  0.000E+00  0.000E+00  0.000E+00  3.68296E+01  1.629E-01  2.000E+01  2.000E+04 -2.718E-02
   1   15   24     3     3    1.6662E+05 -2.8047E+02   1.6690E+05  0.000E+00  0.000E+00  0.000E+00  3.59409E+01  1.631E-01  2.000E+01  2.000E+04 -1.402E-02
   1   15   25     3     4    1.6690E+05 -2.7227E+02   1.6717E+05  0.000E+00  0.000E+00  0.000E+00  3.50522E+01  1.633E-01  2.000E+01  2.000E+04 -1.361E-02
   1   15   26     3     5    1.6717E+05 -3.2966E+02   1.6750E+05  0.000E+00  0.000E+00  0.000E+00  3.41635E+01  1.635E-01  2.000E+01  2.000E+04 -1.648E-02
   1   16   27     3     6    1.6750E+05 -3.6186E+02   1.6786E+05  0.000E+00  0.000E+00  0.000E+00  3.32748E+01  1.637E-01  2.000E+01  2.000E+04 -1.809E-02
   1   17   28     3     7    1.6786E+05 -1.5431E+03   1.6940E+05  0.000E+00  0.000E+00  0.000E+00  3.23865E+01  1.642E-01  2.000E+01  2.000E+04 -7.716E-02
   1   18   29     3     8    1.6940E+05 -2.8838E+03   1.7229E+05  0.000E+00  0.000E+00  0.000E+00  3.14989E+01  1.655E-01  2.000E+01  2.000E+04 -1.442E-01
   1   18   30     3     9    1.7229E+05 -3.1664E+03   1.7545E+05  0.000E+00  0.000E+00  0.000E+00  3.06117E+01  1.673E-01  2.000E+01  2.000E+04 -1.583E-01



1
              HEAD IN LAYER   1 AT END OF TIME STEP   1 IN STRESS PERIOD   12
  ---------------------------------------------------------------------------

          1      2      3      4      5      6      7      8      9     10
         11     12     13     14     15     16     17     18     19     20
         21     22     23     24     25     26     27     28     29     30
 .........................................................................
   1  ****** ****** ****** ****** ****** ****** ****** ****** ****** ******
      ****** ****** ****** ****** ****** ****** ****** ****** ****** ******
      ****** ****** ****** ****** ****** ****** ****** ****** ****** ******
   2  ****** ****** ****** ****** ****** ****** ****** ****** ****** ******
      ****** ****** ****** ****** ****** ****** ****** ****** ****** ******
      ****** ****** ****** ****** ****** ****** ****** ****** ****** ******
   3  ****** ****** ****** ****** ****** ****** ****** ****** ****** ******
      ****** ****** ****** ****** ****** ****** ****** ****** ****** ******
      ****** ****** ****** ****** ****** ****** ****** ****** ****** ******
   4  ****** ****** ****** ****** ****** ****** ****** ****** ****** ******
      ****** ****** ****** ****** ****** ****** ****** ****** ****** ******
      ****** ****** ****** ****** ****** ****** ****** ****** ****** ******
   5  ****** ****** ****** ****** ****** ****** ****** ****** ****** ******
      ****** ****** ****** ****** ****** ****** ****** ****** ****** ******
      ****** ****** ****** ****** ****** ****** ****** ****** ****** ******
   6  ****** ****** ****** ****** ****** ****** ****** ****** ****** ******
      ****** ****** ****** ****** ****** ****** ****** ****** ****** ******
      ****** ****** ****** ****** ****** ****** ****** ****** ****** ******
   7  ****** ****** ****** ****** ****** ****** ****** ****** ****** ******
      ****** ****** ****** ****** ****** ****** ****** ****** ****** ******
      ****** ****** ****** ****** ****** ****** ****** ****** ****** ******
   8  ****** ****** ****** ****** ****** ****** ****** ****** ****** ******
      ****** ****** ****** ****** ****** ****** ****** ****** ****** ******
      ****** ****** ****** ****** ****** ****** ****** ****** ****** ******
   9  ****** ****** ****** ****** ****** ****** ****** ****** ****** ******
      ****** ****** ****** ****** ****** ****** ****** ****** ****** ******
      ****** ****** ****** ****** ****** ****** ****** ****** ****** ******
  10  ****** ****** ****** ****** ****** ****** ****** ****** ****** ******
      ****** ****** ****** ****** ****** ****** ****** ****** ****** ******
      ****** ****** ****** ****** ****** ****** ****** ****** ****** ******
  11  ****** ****** ****** ****** ****** ****** ****** ****** ****** ******
      ****** ****** ****** ****** ****** ****** ****** ****** ****** ******
      ****** ****** ****** ****** ****** ****** ****** ****** ****** ******
  12  ****** ****** ****** ****** ****** ****** ****** ****** ****** ******
      ****** ****** ****** ****** ****** ****** ****** ****** ****** ******
      ****** ****** ****** ****** ****** ****** ****** ****** ****** ******
  13  ****** ****** ****** ****** ****** ****** ****** ****** ****** ******
      ****** ****** ****** ****** ****** ****** ****** ****** ****** ******
      ****** ****** ****** ****** ****** ****** ****** ****** ****** ******
  14  ****** ****** ****** ****** ****** ****** ****** ****** ****** ******
      ****** ****** ****** ****** ****** ****** ****** ****** ****** ******
      ****** ****** ****** ****** ****** ****** ****** ****** ****** ******
  15  ****** ****** ****** ****** ****** ****** ****** ****** ****** ******
      ****** ****** ****** ****** ****** ****** ****** ****** ****** ******
      ****** ****** ****** ****** ****** ****** ****** ****** ****** ******
  16  ****** ****** ****** ****** ****** ****** ****** ****** ****** ******
      ****** ****** ****** ****** ****** ****** ****** ****** ****** ******
      ****** ****** ****** ****** ****** ****** ****** ****** ****** ******
  17  ****** ****** ****** ****** ****** ****** ****** ****** ****** ******
      ****** ****** ****** ****** ****** ****** ****** ****** ****** ******
      ****** ****** ****** ****** ****** ****** ****** ****** ****** ******
  18  ****** ****** ****** ****** ****** ****** ****** ****** ****** ******
      ****** ****** ****** ****** ****** ****** ****** ****** ****** ******
      ****** ****** ****** ****** ****** ****** ****** ****** ****** ******
  19  ****** ****** ****** ****** ****** ****** ****** ****** ****** ******
      ****** ****** ****** ****** ****** ****** ****** ****** ****** ******
      ****** ****** ****** ****** ****** ****** ****** ****** ****** ******
  20  ****** ****** ****** ****** ****** ****** ****** ****** ****** ******
      ****** ****** ****** ****** ****** ****** ****** ****** ****** ******
      ****** ****** ****** ****** ****** ****** ****** ****** ****** ******
  21  ****** ****** ****** ****** ****** ****** ****** ****** ****** ******
      ****** ****** ****** ****** ****** ****** ****** ****** ****** ******
      ****** ****** ****** ****** ****** ****** ****** ****** ****** ******
  22  ****** ****** ****** ****** ****** ****** ****** ****** ****** ******
      ****** ****** ****** ****** ****** ****** ****** ****** ****** ******
      ****** ****** ****** ****** ****** ****** ****** ****** ****** ******
  23  ****** ****** ****** ****** ****** ****** ****** ****** ****** ******
      ****** ****** ****** ****** ****** ****** ****** ****** ****** ******
      ****** ****** ****** ****** ****** ****** ****** ****** ****** ******
  24  ****** ****** ****** ****** ****** ****** ****** ****** ****** ******
      ****** ****** ****** ****** ****** ****** ****** ****** ****** ******
      ****** ****** ****** ****** ****** ****** ****** ****** ****** ******
  25  ****** ****** ****** ****** ****** ****** ****** ****** ****** ******
      ****** ****** ****** ****** ****** ****** ****** ****** ****** ******
      ****** ****** ****** ****** ****** ****** ****** ****** ****** ******

 HEAD WILL BE SAVED ON UNIT   51 AT END OF TIME STEP    1, STRESS PERIOD   12
1
  VOLUMETRIC BUDGET FOR ENTIRE MODEL AT END OF TIME STEP    1, STRESS PERIOD  12
  ------------------------------------------------------------------------------

     CUMULATIVE VOLUMES      L**3       RATES FOR THIS TIME STEP      L**3/T
     ------------------                 ------------------------

           IN:                                      IN:
           ---                                      ---
             STORAGE =    37103931.1449               STORAGE =          80.3642
       CONSTANT HEAD =    33062317.0192         CONSTANT HEAD =       35805.9219
               WELLS =           0.0000                 WELLS =           0.0000
            RECHARGE =    26413200.0000              RECHARGE =       27600.0000
      STREAM LEAKAGE =    13218856.2748        STREAM LEAKAGE =       14463.6588

            TOTAL IN =   109798304.4389              TOTAL IN =       77949.9449

          OUT:                                     OUT:
          ----                                     ----
             STORAGE =     2494471.1534               STORAGE =        2871.8037
       CONSTANT HEAD =           0.0000         CONSTANT HEAD =           0.0000
               WELLS =    38502177.4648                 WELLS =       35161.8059
            RECHARGE =           0.0000              RECHARGE =           0.0000
      STREAM LEAKAGE =    68801657.8448        STREAM LEAKAGE =       39916.3344

           TOTAL OUT =   109798306.4629             TOTAL OUT =       77949.9440

            IN - OUT =          -2.0240              IN - OUT =       8.6388E-04

 PERCENT DISCREPANCY =          -0.00     PERCENT DISCREPANCY =           0.00






         TIME SUMMARY AT END OF TIME STEP    1 IN STRESS PERIOD   12
                    SECONDS     MINUTES      HOURS       DAYS        YEARS
                    -----------------------------------------------------------
   TIME STEP LENGTH 7.86240E+06 1.31040E+05  2184.0      91.000     0.24914    
 STRESS PERIOD TIME 7.86240E+06 1.31040E+05  2184.0      91.000     0.24914    
         TOTAL TIME 9.46080E+07 1.57680E+06  26280.      1095.0      2.9979    
1

 Run end date and time (yyyy/mm/dd hh:mm:ss): 2018/10/14 20:06:53
 Elapsed run time:  0.056 Seconds

