                                  MODFLOW-2005     
      U.S. GEOLOGICAL SURVEY MODULAR FINITE-DIFFERENCE GROUND-WATER FLOW MODEL
                            VERSION 1.11.00 8/8/2013

 LIST FILE: supply2.lst
                         UNIT   10

 OPENING ..\data\supply.dis
 FILE TYPE:DIS   UNIT   11   STATUS:OLD    
 FORMAT:FORMATTED              ACCESS:SEQUENTIAL          

 OPENING ..\data\supply.ba6
 FILE TYPE:BAS6   UNIT   12   STATUS:OLD    
 FORMAT:FORMATTED              ACCESS:SEQUENTIAL          

 OPENING ..\data\supply_het.bc6
 FILE TYPE:BCF6   UNIT   13   STATUS:OLD    
 FORMAT:FORMATTED              ACCESS:SEQUENTIAL          

 OPENING ..\data\supply.rch
 FILE TYPE:RCH   UNIT   15   STATUS:OLD    
 FORMAT:FORMATTED              ACCESS:SEQUENTIAL          

 OPENING ..\data\supply2.sfr
 FILE TYPE:SFR   UNIT   16   STATUS:OLD    
 FORMAT:FORMATTED              ACCESS:SEQUENTIAL          

 OPENING ..\data\supply.oc
 FILE TYPE:OC   UNIT   17   STATUS:OLD    
 FORMAT:FORMATTED              ACCESS:SEQUENTIAL          

 OPENING ..\data\supply.pcg
 FILE TYPE:PCG   UNIT   18   STATUS:OLD    
 FORMAT:FORMATTED              ACCESS:SEQUENTIAL          

 OPENING supply2.wel
 FILE TYPE:WEL   UNIT   19   STATUS:OLD    
 FORMAT:FORMATTED              ACCESS:SEQUENTIAL          

 OPENING supply2sf.cbc
 FILE TYPE:DATA(BINARY)   UNIT   50   STATUS:UNKNOWN
 FORMAT:BINARY                 ACCESS:SEQUENTIAL          

 OPENING supply2hd.bhd
 FILE TYPE:DATA(BINARY)   UNIT   51   STATUS:UNKNOWN
 FORMAT:BINARY                 ACCESS:SEQUENTIAL          

 BAS -- BASIC PACKAGE, VERSION 7, 5/2/2005 INPUT READ FROM UNIT   12
 
 MODFLOW was compiled using uniform precision
 Precision of REAL and DOUBLE PRECISION variables:          15

 DISCRETIZATION INPUT DATA READ FROM UNIT   11
    1 LAYERS        25 ROWS        30 COLUMNS
   12 STRESS PERIOD(S) IN SIMULATION
 MODEL TIME UNIT IS DAYS
 MODEL LENGTH UNIT IS UNDEFINED
  Confining bed flag for each layer:
   0

                     DELR =   200.000    

                     DELC =   200.000    

 TOP ELEVATION OF LAYER 1 =  100.0000    

   MODEL LAYER BOTTOM EL. =   0.00000     FOR LAYER   1


 STRESS PERIOD     LENGTH       TIME STEPS     MULTIPLIER FOR DELT    SS FLAG
 ----------------------------------------------------------------------------
        1         92.00000          1                    1.500         TR
        2         91.00000          1                    1.500         TR
        3         91.00000          1                    1.500         TR
        4         91.00000          1                    1.500         TR
        5         92.00000          1                    1.500         TR
        6         91.00000          1                    1.500         TR
        7         91.00000          1                    1.500         TR
        8         91.00000          1                    1.500         TR
        9         92.00000          1                    1.500         TR
       10         91.00000          1                    1.500         TR
       11         91.00000          1                    1.500         TR
       12         91.00000          1                    1.500         TR

 TRANSIENT SIMULATION



 
 #MODOFC transient water supply sample problem                                   
 #                                                                               
 THE FREE FORMAT OPTION HAS BEEN SELECTED



                     BOUNDARY ARRAY FOR LAYER   1
 READING ON UNIT   12 WITH FORMAT: (20I4)              

 AQUIFER HEAD WILL BE SET TO   0.0000     AT ALL NO-FLOW NODES (IBOUND=0).



                       INITIAL HEAD FOR LAYER   1
 READING ON UNIT   12 WITH FORMAT: (10F13.0)           

 OUTPUT CONTROL IS SPECIFIED ONLY AT TIME STEPS FOR WHICH OUTPUT IS DESIRED
 COMPACT CELL-BY-CELL BUDGET FILES WILL BE WRITTEN
 HEAD PRINT FORMAT CODE IS  18    DRAWDOWN PRINT FORMAT CODE IS   0
 HEADS WILL BE SAVED ON UNIT   51    DRAWDOWNS WILL BE SAVED ON UNIT    0

 BCF -- BLOCK-CENTERED FLOW PACKAGE, VERSION 7, 5/2/2005
         INPUT READ FROM UNIT 13
 TRANSIENT SIMULATION
 HEAD AT CELLS THAT CONVERT TO DRY=   0.0000    
 WETTING CAPABILITY IS NOT ACTIVE
      LAYER  LAYER-TYPE CODE     INTERBLOCK T
      --------------------------------------------
         1            0          0 -- HARMONIC    

 COLUMN TO ROW ANISOTROPY =  1.000000    

     PRIMARY STORAGE COEF =  5.000000E-02 FOR LAYER   1



               TRANSMIS. ALONG ROWS FOR LAYER   1
 READING ON UNIT   13 WITH FORMAT: (FREE)              

 WEL -- WELL PACKAGE, VERSION 7, 5/2/2005 INPUT READ FROM UNIT   19
 # Well package input file written by MMProc
 No named parameters
 MAXIMUM OF      4 ACTIVE WELLS AT ONE TIME


     0 Well parameters

 RCH -- RECHARGE PACKAGE, VERSION 7, 5/2/2005 INPUT READ FROM UNIT   15
 No named parameters
 OPTION 1 -- RECHARGE TO TOP LAYER


     0 Recharge parameters

 SFR7 -- STREAMFLOW ROUTING PACKAGE, VERSION 1.0.7, 2013-01-15
         INPUT READ FROM UNIT  16
 #  Supply2 test problem for GWM-VI
 #  The eighth entry in the first data line is ISTCB2 -
 #    Setting this to a negative number indicates that
 #    streamflows out of the reach will be saved to a
 #    binary file.  The absolute value of ISTCB2 is the
 #    unit to which unformatted flows will be written.
 #
 No named parameters
 Segment information will not be 
 read by reach
 No named parameters
 No specifed inflow files


 NUMBER OF STREAM REACHES IS   40

 NUMBER OF STREAM SEGMENTS IS    3

 NUMBER OF STREAM PARAMETERS IS    0

 NUMBER OF STREAM SEGMENTS DEFINED USING PARAMETERS IS              0

 MAXIMUM ERROR FOR STREAM LEAKAGE RATES IS  1.00E-04

 CONSTANT FOR MANNINGS EQUATION IS  1.2839E+05





   STREAM NETWORK DESCRIPTION: 

   LAYER    ROW    COL   SEGMENT   REACH     LENGTH
                          NUMBER   NUMBER    IN CELL        
   --------------------------------------------------
      1     13      1       1        1    2.0000E+02
      1     13      2       1        2    2.0000E+02
      1     14      3       1        3    2.0000E+02
      1     15      4       1        4    2.0000E+02
      1     16      5       1        5    2.0000E+02
      1     16      6       1        6    2.0000E+02
      1     16      7       1        7    2.0000E+02
      1     16      8       1        8    2.0000E+02
      1     16      9       1        9    2.0000E+02
      1     16     10       1       10    2.0000E+02
      1     16     11       1       11    2.0000E+02
      1     16     12       1       12    2.0000E+02
      1     15     13       1       13    2.0000E+02
      1     14     14       1       14    2.0000E+02
      1     13     15       1       15    2.0000E+02
      1     12     16       1       16    2.0000E+02
      1     12     17       1       17    2.0000E+02
      1     12     18       1       18    2.0000E+02
      1     12     19       1       19    2.0000E+02
      1     13     20       1       20    2.0000E+02
      1     14     21       1       21    2.0000E+02
      1     14     22       1       22    2.0000E+02
      1      9     30       2        1    2.0000E+02
      1      9     29       2        2    2.0000E+02
      1      9     28       2        3    2.0000E+02
      1      9     27       2        4    2.0000E+02
      1     10     26       2        5    2.0000E+02
      1     11     25       2        6    2.0000E+02
      1     12     24       2        7    2.0000E+02
      1     13     23       2        8    2.0000E+02
      1     14     22       2        9    2.0000E+02
      1     14     22       3        1    2.0000E+02
      1     15     23       3        2    2.0000E+02
      1     15     24       3        3    2.0000E+02
      1     15     25       3        4    2.0000E+02
      1     15     26       3        5    2.0000E+02
      1     16     27       3        6    2.0000E+02
      1     17     28       3        7    2.0000E+02
      1     18     29       3        8    2.0000E+02
      1     18     30       3        9    2.0000E+02




 PCG -- CONJUGATE-GRADIENT SOLUTION PACKAGE, VERSION 7, 5/2/2005
 MAXIMUM OF    500 CALLS OF SOLUTION ROUTINE
 MAXIMUM OF      5 INTERNAL ITERATIONS PER CALL TO SOLUTION ROUTINE
 MATRIX PRECONDITIONING TYPE :    1



                                    SOLUTION BY THE CONJUGATE-GRADIENT METHOD
                                   -------------------------------------------
                    MAXIMUM NUMBER OF CALLS TO PCG ROUTINE =      500
                        MAXIMUM ITERATIONS PER CALL TO PCG =        5
                               MATRIX PRECONDITIONING TYPE =        1
        RELAXATION FACTOR (ONLY USED WITH PRECOND. TYPE 1) =    0.10000E+01
 PARAMETER OF POLYNOMIAL PRECOND. = 2 (2) OR IS CALCULATED :        0
                         HEAD CHANGE CRITERION FOR CLOSURE =    0.10000E-05
                     RESIDUAL CHANGE CRITERION FOR CLOSURE =    0.10000E+01
            PCG HEAD AND RESIDUAL CHANGE PRINTOUT INTERVAL =        1
     PRINTING FROM SOLVER IS LIMITED(1) OR SUPPRESSED (>1) =        1
                            STEADY-STATE DAMPING PARAMETER =    0.10000E+01
                               TRANSIENT DAMPING PARAMETER =    0.10000E+01
1
                            STRESS PERIOD NO.    1, LENGTH =   92.00000    
                            -----------------------------------------------

                              NUMBER OF TIME STEPS =     1

                               MULTIPLIER FOR DELT =     1.500

                            INITIAL TIME STEP SIZE =   92.00000    

 WELL NO.  LAYER   ROW   COL   STRESS RATE         
 --------------------------------------------------
      1      1     23     29      -1803.    
      2      1     18     28     -0.1266E+05
      3      1     15     21     -0.1318E+05
      4      1     17     29     -0.1491E+05

      4 WELLS

                 RECHARGE =  5.000000E-04



 CLASSIFICATION & COUNT OF STREAM SEGMENTS BASED ON SOURCE OF INFLOW:

                HEADWATER     DIVERSION     RECEIVES TRIBUTARY FLOW
                ---------     ---------     -----------------------
                     2              0               1



                    INPUT DATA FOR EACH STREAM SEGMENT
 ---------------------------------------------------------------------------------------------

 SEGMENT    SEG.     INFLOW   OVERLAND   STREAM    STREAM   ICALC  OUTFLOW  DIVERSION PRIORITY
    NO.    LENGTH     RATE     RUNOFF      ET       PPT.    METH.  TO SEG.  FROM SEG.    NO.

      1  4.400E+03 1.000E+05 0.000E+00 0.000E+00 0.000E+00    1        3        0        0
      2  1.800E+03 5.000E+04 0.000E+00 0.000E+00 0.000E+00    1        3        0        0
      3  1.800E+03 0.000E+00 0.000E+00 0.000E+00 0.000E+00    1        0        0        0


         STREAMBED PROPERTIES AND STREAM DIMENSIONS

 SEGMENT     BED HYD. COND.      BED THICKNESS     ELEV.-TOP OF BED     WIDTH OF STREAM     DEPTH OF STREAM    STREAM ROUGHNESS
    No.     UPPER     LOWER     UPPER     LOWER     UPPER     LOWER     UPPER     LOWER     UPPER     LOWER   CHANNEL      BANK

     1  5.000E+00 5.000E+00 1.000E+00 1.000E+00 4.850E+01 3.800E+01 2.000E+01 2.000E+01                     5.000E-02
     2  5.000E+00 5.000E+00 1.000E+00 1.000E+00 4.025E+01 3.800E+01 2.000E+01 2.000E+01                     5.000E-02
     3  5.000E+00 5.000E+00 1.000E+00 1.000E+00 3.800E+01 3.000E+01 2.000E+01 2.000E+01                     5.000E-02



 
 SOLVING FOR HEAD 


     9 CALLS TO PCG ROUTINE FOR TIME STEP   1 IN STRESS PERIOD    1
    36 TOTAL ITERATIONS

 OUTPUT CONTROL FOR STRESS PERIOD    1   TIME STEP    1
    SAVE BUDGET
    SAVE HEAD FOR ALL LAYERS
    PRINT HEAD FOR ALL LAYERS
 UBDSV2 SAVING "STREAMFLOW OUT  " ON UNIT  50 AT TIME STEP  1, STRESS PERIOD   1



 STREAM LISTING     PERIOD      1   STEP        1

 LAYER ROW COL. STREAM  RCH.  FLOW INTO     FLOW TO   FLOW OUT OF   OVRLND.     DIRECT     STREAM       STREAM     STREAM     STREAM   STREAMBED  STREAMBED
                SEG.NO.  NO.  STRM. RCH.    AQUIFER    STRM. RCH.    RUNOFF     PRECIP       ET          HEAD       DEPTH      WIDTH   CONDCTNC.   GRADIENT

   1   13    1     1     1    1.0000E+05 -6.1244E+03   1.0612E+05  0.000E+00  0.000E+00  0.000E+00  4.84087E+01  1.473E-01  2.000E+01  2.000E+04 -3.062E-01
   1   13    2     1     2    1.0612E+05 -7.5941E+03   1.1372E+05  0.000E+00  0.000E+00  0.000E+00  4.79372E+01  1.531E-01  2.000E+01  2.000E+04 -3.797E-01
   1   14    3     1     3    1.1372E+05 -2.1991E+03   1.1592E+05  0.000E+00  0.000E+00  0.000E+00  4.74640E+01  1.572E-01  2.000E+01  2.000E+04 -1.100E-01
   1   15    4     1     4    1.1592E+05 -2.2702E+03   1.1819E+05  0.000E+00  0.000E+00  0.000E+00  4.69885E+01  1.590E-01  2.000E+01  2.000E+04 -1.135E-01
   1   16    5     1     5    1.1819E+05 -7.1827E+03   1.2537E+05  0.000E+00  0.000E+00  0.000E+00  4.65151E+01  1.628E-01  2.000E+01  2.000E+04 -3.591E-01
   1   16    6     1     6    1.2537E+05 -4.3015E+03   1.2967E+05  0.000E+00  0.000E+00  0.000E+00  4.60424E+01  1.674E-01  2.000E+01  2.000E+04 -2.151E-01
   1   16    7     1     7    1.2967E+05 -4.1355E+03   1.3381E+05  0.000E+00  0.000E+00  0.000E+00  4.55684E+01  1.707E-01  2.000E+01  2.000E+04 -2.068E-01
   1   16    8     1     8    1.3381E+05 -4.0932E+03   1.3790E+05  0.000E+00  0.000E+00  0.000E+00  4.50943E+01  1.738E-01  2.000E+01  2.000E+04 -2.047E-01
   1   16    9     1     9    1.3790E+05 -4.0801E+03   1.4198E+05  0.000E+00  0.000E+00  0.000E+00  4.46201E+01  1.770E-01  2.000E+01  2.000E+04 -2.040E-01
   1   16   10     1    10    1.4198E+05 -4.0734E+03   1.4605E+05  0.000E+00  0.000E+00  0.000E+00  4.41460E+01  1.800E-01  2.000E+01  2.000E+04 -2.037E-01
   1   16   11     1    11    1.4605E+05 -4.1006E+03   1.5015E+05  0.000E+00  0.000E+00  0.000E+00  4.36717E+01  1.831E-01  2.000E+01  2.000E+04 -2.050E-01
   1   16   12     1    12    1.5015E+05 -6.9330E+03   1.5709E+05  0.000E+00  0.000E+00  0.000E+00  4.31985E+01  1.872E-01  2.000E+01  2.000E+04 -3.467E-01
   1   15   13     1    13    1.5709E+05 -7.2390E+03   1.6433E+05  0.000E+00  0.000E+00  0.000E+00  4.27264E+01  1.923E-01  2.000E+01  2.000E+04 -3.620E-01
   1   14   14     1    14    1.6433E+05 -7.7165E+03   1.7204E+05  0.000E+00  0.000E+00  0.000E+00  4.22544E+01  1.976E-01  2.000E+01  2.000E+04 -3.858E-01
   1   13   15     1    15    1.7204E+05 -8.0632E+03   1.8011E+05  0.000E+00  0.000E+00  0.000E+00  4.17827E+01  2.031E-01  2.000E+01  2.000E+04 -4.032E-01
   1   12   16     1    16    1.8011E+05 -8.8178E+03   1.8892E+05  0.000E+00  0.000E+00  0.000E+00  4.13112E+01  2.089E-01  2.000E+01  2.000E+04 -4.409E-01
   1   12   17     1    17    1.8892E+05 -6.1960E+03   1.9512E+05  0.000E+00  0.000E+00  0.000E+00  4.08390E+01  2.140E-01  2.000E+01  2.000E+04 -3.098E-01
   1   12   18     1    18    1.9512E+05 -5.9905E+03   2.0111E+05  0.000E+00  0.000E+00  0.000E+00  4.03657E+01  2.180E-01  2.000E+01  2.000E+04 -2.995E-01
   1   12   19     1    19    2.0111E+05 -7.5717E+03   2.0868E+05  0.000E+00  0.000E+00  0.000E+00  3.98929E+01  2.225E-01  2.000E+01  2.000E+04 -3.786E-01
   1   13   20     1    20    2.0868E+05 -5.9792E+03   2.1466E+05  0.000E+00  0.000E+00  0.000E+00  3.94200E+01  2.268E-01  2.000E+01  2.000E+04 -2.990E-01
   1   14   21     1    21    2.1466E+05 -1.2029E+03   2.1586E+05  0.000E+00  0.000E+00  0.000E+00  3.89451E+01  2.291E-01  2.000E+01  2.000E+04 -6.015E-02
   1   14   22     1    22    2.1586E+05  4.3671E+03   2.1150E+05  0.000E+00  0.000E+00  0.000E+00  3.84668E+01  2.281E-01  2.000E+01  2.000E+04  2.184E-01
   1    9   30     2     1    5.0000E+04 -4.7174E+03   5.4717E+04  0.000E+00  0.000E+00  0.000E+00  4.02441E+01  1.191E-01  2.000E+01  2.000E+04 -2.359E-01
   1    9   29     2     2    5.4717E+04 -5.0269E+03   5.9744E+04  0.000E+00  0.000E+00  0.000E+00  4.00006E+01  1.256E-01  2.000E+01  2.000E+04 -2.513E-01
   1    9   28     2     3    5.9744E+04 -5.3409E+03   6.5085E+04  0.000E+00  0.000E+00  0.000E+00  3.97574E+01  1.324E-01  2.000E+01  2.000E+04 -2.670E-01
   1    9   27     2     4    6.5085E+04 -8.2477E+03   7.3333E+04  0.000E+00  0.000E+00  0.000E+00  3.95158E+01  1.408E-01  2.000E+01  2.000E+04 -4.124E-01
   1   10   26     2     5    7.3333E+04 -7.2326E+03   8.0566E+04  0.000E+00  0.000E+00  0.000E+00  3.92751E+01  1.501E-01  2.000E+01  2.000E+04 -3.616E-01
   1   11   25     2     6    8.0566E+04 -6.7125E+03   8.7278E+04  0.000E+00  0.000E+00  0.000E+00  3.90331E+01  1.581E-01  2.000E+01  2.000E+04 -3.356E-01
   1   12   24     2     7    8.7278E+04 -6.2786E+03   9.3557E+04  0.000E+00  0.000E+00  0.000E+00  3.87903E+01  1.653E-01  2.000E+01  2.000E+04 -3.139E-01
   1   13   23     2     8    9.3557E+04 -1.6485E+03   9.5205E+04  0.000E+00  0.000E+00  0.000E+00  3.85446E+01  1.696E-01  2.000E+01  2.000E+04 -8.243E-02
   1   14   22     2     9    9.5205E+04  9.3208E+02   9.4273E+04  0.000E+00  0.000E+00  0.000E+00  3.82950E+01  1.700E-01  2.000E+01  2.000E+04  4.660E-02
   1   14   22     3     1    3.0577E+05 -9.1210E+03   3.1489E+05  0.000E+00  0.000E+00  0.000E+00  3.77924E+01  2.368E-01  2.000E+01  2.000E+04 -4.560E-01
   1   15   23     3     2    3.1489E+05 -1.5026E+03   3.1639E+05  0.000E+00  0.000E+00  0.000E+00  3.69059E+01  2.392E-01  2.000E+01  2.000E+04 -7.513E-02
   1   15   24     3     3    3.1639E+05 -1.4888E+03   3.1788E+05  0.000E+00  0.000E+00  0.000E+00  3.60177E+01  2.399E-01  2.000E+01  2.000E+04 -7.444E-02
   1   15   25     3     4    3.1788E+05 -1.5524E+03   3.1944E+05  0.000E+00  0.000E+00  0.000E+00  3.51295E+01  2.406E-01  2.000E+01  2.000E+04 -7.762E-02
   1   15   26     3     5    3.1944E+05 -1.8009E+03   3.2124E+05  0.000E+00  0.000E+00  0.000E+00  3.42414E+01  2.414E-01  2.000E+01  2.000E+04 -9.005E-02
   1   16   27     3     6    3.2124E+05 -1.8216E+03   3.2306E+05  0.000E+00  0.000E+00  0.000E+00  3.33533E+01  2.422E-01  2.000E+01  2.000E+04 -9.108E-02
   1   17   28     3     7    3.2306E+05  3.8775E+03   3.1918E+05  0.000E+00  0.000E+00  0.000E+00  3.24639E+01  2.417E-01  2.000E+01  2.000E+04  1.939E-01
   1   18   29     3     8    3.1918E+05  2.2373E+03   3.1694E+05  0.000E+00  0.000E+00  0.000E+00  3.15737E+01  2.403E-01  2.000E+01  2.000E+04  1.119E-01
   1   18   30     3     9    3.1694E+05 -4.0294E+03   3.2097E+05  0.000E+00  0.000E+00  0.000E+00  3.06852E+01  2.407E-01  2.000E+01  2.000E+04 -2.015E-01



1
              HEAD IN LAYER   1 AT END OF TIME STEP   1 IN STRESS PERIOD    1
  ---------------------------------------------------------------------------

          1      2      3      4      5      6      7      8      9     10
         11     12     13     14     15     16     17     18     19     20
         21     22     23     24     25     26     27     28     29     30
 .........................................................................
   1  ****** ****** ****** ****** ****** ****** ****** ****** ****** ******
      ****** ****** ****** ****** ****** ****** ****** ****** ****** ******
      ****** ****** ****** ****** ****** ****** ****** ****** ****** ******
   2  ****** ****** ****** ****** ****** ****** ****** ****** ****** ******
      ****** ****** ****** ****** ****** ****** ****** ****** ****** ******
      ****** ****** ****** ****** ****** ****** ****** ****** ****** ******
   3  ****** ****** ****** ****** ****** ****** ****** ****** ****** ******
      ****** ****** ****** ****** ****** ****** ****** ****** ****** ******
      ****** ****** ****** ****** ****** ****** ****** ****** ****** ******
   4  ****** ****** ****** ****** ****** ****** ****** ****** ****** ******
      ****** ****** ****** ****** ****** ****** ****** ****** ****** ******
      ****** ****** ****** ****** ****** ****** ****** ****** ****** ******
   5  ****** ****** ****** ****** ****** ****** ****** ****** ****** ******
      ****** ****** ****** ****** ****** ****** ****** ****** ****** ******
      ****** ****** ****** ****** ****** ****** ****** ****** ****** ******
   6  ****** ****** ****** ****** ****** ****** ****** ****** ****** ******
      ****** ****** ****** ****** ****** ****** ****** ****** ****** ******
      ****** ****** ****** ****** ****** ****** ****** ****** ****** ******
   7  ****** ****** ****** ****** ****** ****** ****** ****** ****** ******
      ****** ****** ****** ****** ****** ****** ****** ****** ****** ******
      ****** ****** ****** ****** ****** ****** ****** ****** ****** ******
   8  ****** ****** ****** ****** ****** ****** ****** ****** ****** ******
      ****** ****** ****** ****** ****** ****** ****** ****** ****** ******
      ****** ****** ****** ****** ****** ****** ****** ****** ****** ******
   9  ****** ****** ****** ****** ****** ****** ****** ****** ****** ******
      ****** ****** ****** ****** ****** ****** ****** ****** ****** ******
      ****** ****** ****** ****** ****** ****** ****** ****** ****** ******
  10  ****** ****** ****** ****** ****** ****** ****** ****** ****** ******
      ****** ****** ****** ****** ****** ****** ****** ****** ****** ******
      ****** ****** ****** ****** ****** ****** ****** ****** ****** ******
  11  ****** ****** ****** ****** ****** ****** ****** ****** ****** ******
      ****** ****** ****** ****** ****** ****** ****** ****** ****** ******
      ****** ****** ****** ****** ****** ****** ****** ****** ****** ******
  12  ****** ****** ****** ****** ****** ****** ****** ****** ****** ******
      ****** ****** ****** ****** ****** ****** ****** ****** ****** ******
      ****** ****** ****** ****** ****** ****** ****** ****** ****** ******
  13  ****** ****** ****** ****** ****** ****** ****** ****** ****** ******
      ****** ****** ****** ****** ****** ****** ****** ****** ****** ******
      ****** ****** ****** ****** ****** ****** ****** ****** ****** ******
  14  ****** ****** ****** ****** ****** ****** ****** ****** ****** ******
      ****** ****** ****** ****** ****** ****** ****** ****** ****** ******
      ****** ****** ****** ****** ****** ****** ****** ****** ****** ******
  15  ****** ****** ****** ****** ****** ****** ****** ****** ****** ******
      ****** ****** ****** ****** ****** ****** ****** ****** ****** ******
      ****** ****** ****** ****** ****** ****** ****** ****** ****** ******
  16  ****** ****** ****** ****** ****** ****** ****** ****** ****** ******
      ****** ****** ****** ****** ****** ****** ****** ****** ****** ******
      ****** ****** ****** ****** ****** ****** ****** ****** ****** ******
  17  ****** ****** ****** ****** ****** ****** ****** ****** ****** ******
      ****** ****** ****** ****** ****** ****** ****** ****** ****** ******
      ****** ****** ****** ****** ****** ****** ****** ****** ****** ******
  18  ****** ****** ****** ****** ****** ****** ****** ****** ****** ******
      ****** ****** ****** ****** ****** ****** ****** ****** ****** ******
      ****** ****** ****** ****** ****** ****** ****** ****** ****** ******
  19  ****** ****** ****** ****** ****** ****** ****** ****** ****** ******
      ****** ****** ****** ****** ****** ****** ****** ****** ****** ******
      ****** ****** ****** ****** ****** ****** ****** ****** ****** ******
  20  ****** ****** ****** ****** ****** ****** ****** ****** ****** ******
      ****** ****** ****** ****** ****** ****** ****** ****** ****** ******
      ****** ****** ****** ****** ****** ****** ****** ****** ****** ******
  21  ****** ****** ****** ****** ****** ****** ****** ****** ****** ******
      ****** ****** ****** ****** ****** ****** ****** ****** ****** ******
      ****** ****** ****** ****** ****** ****** ****** ****** ****** ******
  22  ****** ****** ****** ****** ****** ****** ****** ****** ****** ******
      ****** ****** ****** ****** ****** ****** ****** ****** ****** ******
      ****** ****** ****** ****** ****** ****** ****** ****** ****** ******
  23  ****** ****** ****** ****** ****** ****** ****** ****** ****** ******
      ****** ****** ****** ****** ****** ****** ****** ****** ****** ******
      ****** ****** ****** ****** ****** ****** ****** ****** ****** ******
  24  ****** ****** ****** ****** ****** ****** ****** ****** ****** ******
      ****** ****** ****** ****** ****** ****** ****** ****** ****** ******
      ****** ****** ****** ****** ****** ****** ****** ****** ****** ******
  25  ****** ****** ****** ****** ****** ****** ****** ****** ****** ******
      ****** ****** ****** ****** ****** ****** ****** ****** ****** ******
      ****** ****** ****** ****** ****** ****** ****** ****** ****** ******

 HEAD WILL BE SAVED ON UNIT   51 AT END OF TIME STEP    1, STRESS PERIOD    1
1
  VOLUMETRIC BUDGET FOR ENTIRE MODEL AT END OF TIME STEP    1, STRESS PERIOD   1
  ------------------------------------------------------------------------------

     CUMULATIVE VOLUMES      L**3       RATES FOR THIS TIME STEP      L**3/T
     ------------------                 ------------------------

           IN:                                      IN:
           ---                                      ---
             STORAGE =    17234295.0471               STORAGE =      187329.2940
       CONSTANT HEAD =     1139927.3054         CONSTANT HEAD =       12390.5142
               WELLS =           0.0000                 WELLS =           0.0000
            RECHARGE =     1269600.0000              RECHARGE =       13800.0000
      STREAM LEAKAGE =     1050080.8241        STREAM LEAKAGE =       11413.9220

            TOTAL IN =    20693903.1765              TOTAL IN =      224933.7302

          OUT:                                     OUT:
          ----                                     ----
             STORAGE =           0.0000               STORAGE =           0.0000
       CONSTANT HEAD =           0.0000         CONSTANT HEAD =           0.0000
               WELLS =     3914352.7952                 WELLS =       42547.3130
            RECHARGE =           0.0000              RECHARGE =           0.0000
      STREAM LEAKAGE =    16779550.6628        STREAM LEAKAGE =      182386.4202

           TOTAL OUT =    20693903.4580             TOTAL OUT =      224933.7332

            IN - OUT =          -0.2815              IN - OUT =      -3.0595E-03

 PERCENT DISCREPANCY =          -0.00     PERCENT DISCREPANCY =          -0.00






         TIME SUMMARY AT END OF TIME STEP    1 IN STRESS PERIOD    1
                    SECONDS     MINUTES      HOURS       DAYS        YEARS
                    -----------------------------------------------------------
   TIME STEP LENGTH 7.94880E+06 1.32480E+05  2208.0      92.000     0.25188    
 STRESS PERIOD TIME 7.94880E+06 1.32480E+05  2208.0      92.000     0.25188    
         TOTAL TIME 7.94880E+06 1.32480E+05  2208.0      92.000     0.25188    
1
1
                            STRESS PERIOD NO.    2, LENGTH =   91.00000    
                            -----------------------------------------------

                              NUMBER OF TIME STEPS =     1

                               MULTIPLIER FOR DELT =     1.500

                            INITIAL TIME STEP SIZE =   91.00000    

 WELL NO.  LAYER   ROW   COL   STRESS RATE         
 --------------------------------------------------
      1      1     23     29      -1803.    
      2      1     18     28     -0.1266E+05
      3      1     15     21     -0.1318E+05
      4      1     17     29     -0.1491E+05

      4 WELLS

                 RECHARGE =  2.000000E-03

 REUSING STREAM SEGMENT DATA FROM LAST STRESS PERIOD
 
 SOLVING FOR HEAD 


     7 CALLS TO PCG ROUTINE FOR TIME STEP   1 IN STRESS PERIOD    2
    27 TOTAL ITERATIONS

 OUTPUT CONTROL FOR STRESS PERIOD    2   TIME STEP    1
    SAVE BUDGET
    SAVE HEAD FOR ALL LAYERS
    PRINT HEAD FOR ALL LAYERS
 UBDSV2 SAVING "STREAMFLOW OUT  " ON UNIT  50 AT TIME STEP  1, STRESS PERIOD   2



 STREAM LISTING     PERIOD      2   STEP        1

 LAYER ROW COL. STREAM  RCH.  FLOW INTO     FLOW TO   FLOW OUT OF   OVRLND.     DIRECT     STREAM       STREAM     STREAM     STREAM   STREAMBED  STREAMBED
                SEG.NO.  NO.  STRM. RCH.    AQUIFER    STRM. RCH.    RUNOFF     PRECIP       ET          HEAD       DEPTH      WIDTH   CONDCTNC.   GRADIENT

   1   13    1     1     1    1.0000E+05 -4.0157E+03   1.0402E+05  0.000E+00  0.000E+00  0.000E+00  4.84078E+01  1.464E-01  2.000E+01  2.000E+04 -2.008E-01
   1   13    2     1     2    1.0402E+05 -5.2784E+03   1.0929E+05  0.000E+00  0.000E+00  0.000E+00  4.79344E+01  1.504E-01  2.000E+01  2.000E+04 -2.639E-01
   1   14    3     1     3    1.0929E+05 -1.1168E+03   1.1041E+05  0.000E+00  0.000E+00  0.000E+00  4.74599E+01  1.530E-01  2.000E+01  2.000E+04 -5.584E-02
   1   15    4     1     4    1.1041E+05 -1.1441E+03   1.1155E+05  0.000E+00  0.000E+00  0.000E+00  4.69835E+01  1.540E-01  2.000E+01  2.000E+04 -5.721E-02
   1   16    5     1     5    1.1155E+05 -4.2491E+03   1.1580E+05  0.000E+00  0.000E+00  0.000E+00  4.65085E+01  1.562E-01  2.000E+01  2.000E+04 -2.125E-01
   1   16    6     1     6    1.1580E+05 -2.5036E+03   1.1831E+05  0.000E+00  0.000E+00  0.000E+00  4.60340E+01  1.590E-01  2.000E+01  2.000E+04 -1.252E-01
   1   16    7     1     7    1.1831E+05 -2.4077E+03   1.2072E+05  0.000E+00  0.000E+00  0.000E+00  4.55587E+01  1.610E-01  2.000E+01  2.000E+04 -1.204E-01
   1   16    8     1     8    1.2072E+05 -2.3757E+03   1.2309E+05  0.000E+00  0.000E+00  0.000E+00  4.50834E+01  1.629E-01  2.000E+01  2.000E+04 -1.188E-01
   1   16    9     1     9    1.2309E+05 -2.3505E+03   1.2544E+05  0.000E+00  0.000E+00  0.000E+00  4.46080E+01  1.648E-01  2.000E+01  2.000E+04 -1.175E-01
   1   16   10     1    10    1.2544E+05 -2.3188E+03   1.2776E+05  0.000E+00  0.000E+00  0.000E+00  4.41326E+01  1.666E-01  2.000E+01  2.000E+04 -1.159E-01
   1   16   11     1    11    1.2776E+05 -2.3105E+03   1.3007E+05  0.000E+00  0.000E+00  0.000E+00  4.36571E+01  1.685E-01  2.000E+01  2.000E+04 -1.155E-01
   1   16   12     1    12    1.3007E+05 -4.0124E+03   1.3408E+05  0.000E+00  0.000E+00  0.000E+00  4.31823E+01  1.709E-01  2.000E+01  2.000E+04 -2.006E-01
   1   15   13     1    13    1.3408E+05 -3.9858E+03   1.3807E+05  0.000E+00  0.000E+00  0.000E+00  4.27081E+01  1.740E-01  2.000E+01  2.000E+04 -1.993E-01
   1   14   14     1    14    1.3807E+05 -4.3566E+03   1.4243E+05  0.000E+00  0.000E+00  0.000E+00  4.22340E+01  1.772E-01  2.000E+01  2.000E+04 -2.178E-01
   1   13   15     1    15    1.4243E+05 -4.7297E+03   1.4716E+05  0.000E+00  0.000E+00  0.000E+00  4.17602E+01  1.806E-01  2.000E+01  2.000E+04 -2.365E-01
   1   12   16     1    16    1.4716E+05 -5.7381E+03   1.5289E+05  0.000E+00  0.000E+00  0.000E+00  4.12868E+01  1.845E-01  2.000E+01  2.000E+04 -2.869E-01
   1   12   17     1    17    1.5289E+05 -3.7217E+03   1.5662E+05  0.000E+00  0.000E+00  0.000E+00  4.08130E+01  1.880E-01  2.000E+01  2.000E+04 -1.861E-01
   1   12   18     1    18    1.5662E+05 -3.5029E+03   1.6012E+05  0.000E+00  0.000E+00  0.000E+00  4.03383E+01  1.906E-01  2.000E+01  2.000E+04 -1.751E-01
   1   12   19     1    19    1.6012E+05 -4.4948E+03   1.6461E+05  0.000E+00  0.000E+00  0.000E+00  3.98639E+01  1.935E-01  2.000E+01  2.000E+04 -2.247E-01
   1   13   20     1    20    1.6461E+05 -2.7877E+03   1.6740E+05  0.000E+00  0.000E+00  0.000E+00  3.93892E+01  1.961E-01  2.000E+01  2.000E+04 -1.394E-01
   1   14   21     1    21    1.6740E+05  1.8184E+03   1.6558E+05  0.000E+00  0.000E+00  0.000E+00  3.89123E+01  1.964E-01  2.000E+01  2.000E+04  9.092E-02
   1   14   22     1    22    1.6558E+05  5.1818E+03   1.6040E+05  0.000E+00  0.000E+00  0.000E+00  3.84326E+01  1.939E-01  2.000E+01  2.000E+04  2.591E-01
   1    9   30     2     1    5.0000E+04 -1.9612E+03   5.1961E+04  0.000E+00  0.000E+00  0.000E+00  4.02422E+01  1.172E-01  2.000E+01  2.000E+04 -9.806E-02
   1    9   29     2     2    5.1961E+04 -2.2909E+03   5.4252E+04  0.000E+00  0.000E+00  0.000E+00  3.99951E+01  1.201E-01  2.000E+01  2.000E+04 -1.145E-01
   1    9   28     2     3    5.4252E+04 -2.6368E+03   5.6889E+04  0.000E+00  0.000E+00  0.000E+00  3.97484E+01  1.234E-01  2.000E+01  2.000E+04 -1.318E-01
   1    9   27     2     4    5.6889E+04 -4.8159E+03   6.1705E+04  0.000E+00  0.000E+00  0.000E+00  3.95033E+01  1.283E-01  2.000E+01  2.000E+04 -2.408E-01
   1   10   26     2     5    6.1705E+04 -3.6365E+03   6.5341E+04  0.000E+00  0.000E+00  0.000E+00  3.92588E+01  1.338E-01  2.000E+01  2.000E+04 -1.818E-01
   1   11   25     2     6    6.5341E+04 -3.2810E+03   6.8622E+04  0.000E+00  0.000E+00  0.000E+00  3.90131E+01  1.381E-01  2.000E+01  2.000E+04 -1.640E-01
   1   12   24     2     7    6.8622E+04 -3.2257E+03   7.1848E+04  0.000E+00  0.000E+00  0.000E+00  3.87671E+01  1.421E-01  2.000E+01  2.000E+04 -1.613E-01
   1   13   23     2     8    7.1848E+04 -6.1284E+02   7.2461E+04  0.000E+00  0.000E+00  0.000E+00  3.85194E+01  1.444E-01  2.000E+01  2.000E+04 -3.064E-02
   1   14   22     2     9    7.2461E+04  1.9029E+03   7.0558E+04  0.000E+00  0.000E+00  0.000E+00  3.82686E+01  1.436E-01  2.000E+01  2.000E+04  9.514E-02
   1   14   22     3     1    2.3096E+05 -8.3485E+03   2.3931E+05  0.000E+00  0.000E+00  0.000E+00  3.77560E+01  2.005E-01  2.000E+01  2.000E+04 -4.174E-01
   1   15   23     3     2    2.3931E+05 -4.9255E+02   2.3980E+05  0.000E+00  0.000E+00  0.000E+00  3.68694E+01  2.027E-01  2.000E+01  2.000E+04 -2.463E-02
   1   15   24     3     3    2.3980E+05 -5.9788E+02   2.4040E+05  0.000E+00  0.000E+00  0.000E+00  3.59808E+01  2.030E-01  2.000E+01  2.000E+04 -2.989E-02
   1   15   25     3     4    2.4040E+05 -6.2168E+02   2.4102E+05  0.000E+00  0.000E+00  0.000E+00  3.50922E+01  2.033E-01  2.000E+01  2.000E+04 -3.108E-02
   1   15   26     3     5    2.4102E+05 -6.5301E+02   2.4167E+05  0.000E+00  0.000E+00  0.000E+00  3.42036E+01  2.036E-01  2.000E+01  2.000E+04 -3.265E-02
   1   16   27     3     6    2.4167E+05 -4.7434E+02   2.4215E+05  0.000E+00  0.000E+00  0.000E+00  3.33150E+01  2.039E-01  2.000E+01  2.000E+04 -2.372E-02
   1   17   28     3     7    2.4215E+05  7.7612E+03   2.3439E+05  0.000E+00  0.000E+00  0.000E+00  3.24243E+01  2.021E-01  2.000E+01  2.000E+04  3.881E-01
   1   18   29     3     8    2.3439E+05  5.8133E+03   2.2857E+05  0.000E+00  0.000E+00  0.000E+00  3.15319E+01  1.986E-01  2.000E+01  2.000E+04  2.907E-01
   1   18   30     3     9    2.2857E+05 -1.1235E+03   2.2970E+05  0.000E+00  0.000E+00  0.000E+00  3.06418E+01  1.974E-01  2.000E+01  2.000E+04 -5.617E-02



1
              HEAD IN LAYER   1 AT END OF TIME STEP   1 IN STRESS PERIOD    2
  ---------------------------------------------------------------------------

          1      2      3      4      5      6      7      8      9     10
         11     12     13     14     15     16     17     18     19     20
         21     22     23     24     25     26     27     28     29     30
 .........................................................................
   1  ****** ****** ****** ****** ****** ****** ****** ****** ****** ******
      ****** ****** ****** ****** ****** ****** ****** ****** ****** ******
      ****** ****** ****** ****** ****** ****** ****** ****** ****** ******
   2  ****** ****** ****** ****** ****** ****** ****** ****** ****** ******
      ****** ****** ****** ****** ****** ****** ****** ****** ****** ******
      ****** ****** ****** ****** ****** ****** ****** ****** ****** ******
   3  ****** ****** ****** ****** ****** ****** ****** ****** ****** ******
      ****** ****** ****** ****** ****** ****** ****** ****** ****** ******
      ****** ****** ****** ****** ****** ****** ****** ****** ****** ******
   4  ****** ****** ****** ****** ****** ****** ****** ****** ****** ******
      ****** ****** ****** ****** ****** ****** ****** ****** ****** ******
      ****** ****** ****** ****** ****** ****** ****** ****** ****** ******
   5  ****** ****** ****** ****** ****** ****** ****** ****** ****** ******
      ****** ****** ****** ****** ****** ****** ****** ****** ****** ******
      ****** ****** ****** ****** ****** ****** ****** ****** ****** ******
   6  ****** ****** ****** ****** ****** ****** ****** ****** ****** ******
      ****** ****** ****** ****** ****** ****** ****** ****** ****** ******
      ****** ****** ****** ****** ****** ****** ****** ****** ****** ******
   7  ****** ****** ****** ****** ****** ****** ****** ****** ****** ******
      ****** ****** ****** ****** ****** ****** ****** ****** ****** ******
      ****** ****** ****** ****** ****** ****** ****** ****** ****** ******
   8  ****** ****** ****** ****** ****** ****** ****** ****** ****** ******
      ****** ****** ****** ****** ****** ****** ****** ****** ****** ******
      ****** ****** ****** ****** ****** ****** ****** ****** ****** ******
   9  ****** ****** ****** ****** ****** ****** ****** ****** ****** ******
      ****** ****** ****** ****** ****** ****** ****** ****** ****** ******
      ****** ****** ****** ****** ****** ****** ****** ****** ****** ******
  10  ****** ****** ****** ****** ****** ****** ****** ****** ****** ******
      ****** ****** ****** ****** ****** ****** ****** ****** ****** ******
      ****** ****** ****** ****** ****** ****** ****** ****** ****** ******
  11  ****** ****** ****** ****** ****** ****** ****** ****** ****** ******
      ****** ****** ****** ****** ****** ****** ****** ****** ****** ******
      ****** ****** ****** ****** ****** ****** ****** ****** ****** ******
  12  ****** ****** ****** ****** ****** ****** ****** ****** ****** ******
      ****** ****** ****** ****** ****** ****** ****** ****** ****** ******
      ****** ****** ****** ****** ****** ****** ****** ****** ****** ******
  13  ****** ****** ****** ****** ****** ****** ****** ****** ****** ******
      ****** ****** ****** ****** ****** ****** ****** ****** ****** ******
      ****** ****** ****** ****** ****** ****** ****** ****** ****** ******
  14  ****** ****** ****** ****** ****** ****** ****** ****** ****** ******
      ****** ****** ****** ****** ****** ****** ****** ****** ****** ******
      ****** ****** ****** ****** ****** ****** ****** ****** ****** ******
  15  ****** ****** ****** ****** ****** ****** ****** ****** ****** ******
      ****** ****** ****** ****** ****** ****** ****** ****** ****** ******
      ****** ****** ****** ****** ****** ****** ****** ****** ****** ******
  16  ****** ****** ****** ****** ****** ****** ****** ****** ****** ******
      ****** ****** ****** ****** ****** ****** ****** ****** ****** ******
      ****** ****** ****** ****** ****** ****** ****** ****** ****** ******
  17  ****** ****** ****** ****** ****** ****** ****** ****** ****** ******
      ****** ****** ****** ****** ****** ****** ****** ****** ****** ******
      ****** ****** ****** ****** ****** ****** ****** ****** ****** ******
  18  ****** ****** ****** ****** ****** ****** ****** ****** ****** ******
      ****** ****** ****** ****** ****** ****** ****** ****** ****** ******
      ****** ****** ****** ****** ****** ****** ****** ****** ****** ******
  19  ****** ****** ****** ****** ****** ****** ****** ****** ****** ******
      ****** ****** ****** ****** ****** ****** ****** ****** ****** ******
      ****** ****** ****** ****** ****** ****** ****** ****** ****** ******
  20  ****** ****** ****** ****** ****** ****** ****** ****** ****** ******
      ****** ****** ****** ****** ****** ****** ****** ****** ****** ******
      ****** ****** ****** ****** ****** ****** ****** ****** ****** ******
  21  ****** ****** ****** ****** ****** ****** ****** ****** ****** ******
      ****** ****** ****** ****** ****** ****** ****** ****** ****** ******
      ****** ****** ****** ****** ****** ****** ****** ****** ****** ******
  22  ****** ****** ****** ****** ****** ****** ****** ****** ****** ******
      ****** ****** ****** ****** ****** ****** ****** ****** ****** ******
      ****** ****** ****** ****** ****** ****** ****** ****** ****** ******
  23  ****** ****** ****** ****** ****** ****** ****** ****** ****** ******
      ****** ****** ****** ****** ****** ****** ****** ****** ****** ******
      ****** ****** ****** ****** ****** ****** ****** ****** ****** ******
  24  ****** ****** ****** ****** ****** ****** ****** ****** ****** ******
      ****** ****** ****** ****** ****** ****** ****** ****** ****** ******
      ****** ****** ****** ****** ****** ****** ****** ****** ****** ******
  25  ****** ****** ****** ****** ****** ****** ****** ****** ****** ******
      ****** ****** ****** ****** ****** ****** ****** ****** ****** ******
      ****** ****** ****** ****** ****** ****** ****** ****** ****** ******

 HEAD WILL BE SAVED ON UNIT   51 AT END OF TIME STEP    1, STRESS PERIOD    2
1
  VOLUMETRIC BUDGET FOR ENTIRE MODEL AT END OF TIME STEP    1, STRESS PERIOD   2
  ------------------------------------------------------------------------------

     CUMULATIVE VOLUMES      L**3       RATES FOR THIS TIME STEP      L**3/T
     ------------------                 ------------------------

           IN:                                      IN:
           ---                                      ---
             STORAGE =    21823807.5085               STORAGE =       50434.2029
       CONSTANT HEAD =     2651297.9482         CONSTANT HEAD =       16608.4686
               WELLS =           0.0000                 WELLS =           0.0000
            RECHARGE =     6292800.0000              RECHARGE =       55200.0000
      STREAM LEAKAGE =     3095532.4621        STREAM LEAKAGE =       22477.4905

            TOTAL IN =    33863437.9188              TOTAL IN =      144720.1620

          OUT:                                     OUT:
          ----                                     ----
             STORAGE =           0.0000               STORAGE =           0.0000
       CONSTANT HEAD =           0.0000         CONSTANT HEAD =           0.0000
               WELLS =     7786158.2774                 WELLS =       42547.3130
            RECHARGE =           0.0000              RECHARGE =           0.0000
      STREAM LEAKAGE =    26077280.8176        STREAM LEAKAGE =      102172.8588

           TOTAL OUT =    33863439.0951             TOTAL OUT =      144720.1718

            IN - OUT =          -1.1763              IN - OUT =      -9.8330E-03

 PERCENT DISCREPANCY =          -0.00     PERCENT DISCREPANCY =          -0.00






         TIME SUMMARY AT END OF TIME STEP    1 IN STRESS PERIOD    2
                    SECONDS     MINUTES      HOURS       DAYS        YEARS
                    -----------------------------------------------------------
   TIME STEP LENGTH 7.86240E+06 1.31040E+05  2184.0      91.000     0.24914    
 STRESS PERIOD TIME 7.86240E+06 1.31040E+05  2184.0      91.000     0.24914    
         TOTAL TIME 1.58112E+07 2.63520E+05  4392.0      183.00     0.50103    
1
1
                            STRESS PERIOD NO.    3, LENGTH =   91.00000    
                            -----------------------------------------------

                              NUMBER OF TIME STEPS =     1

                               MULTIPLIER FOR DELT =     1.500

                            INITIAL TIME STEP SIZE =   91.00000    

 WELL NO.  LAYER   ROW   COL   STRESS RATE         
 --------------------------------------------------
      1      1     23     29      -1803.    
      2      1     18     28     -0.1266E+05
      3      1     15     21     -0.1318E+05
      4      1     17     29     -0.1491E+05

      4 WELLS

                 RECHARGE =   0.00000    

 REUSING STREAM SEGMENT DATA FROM LAST STRESS PERIOD
 
 SOLVING FOR HEAD 


     7 CALLS TO PCG ROUTINE FOR TIME STEP   1 IN STRESS PERIOD    3
    27 TOTAL ITERATIONS

 OUTPUT CONTROL FOR STRESS PERIOD    3   TIME STEP    1
    SAVE BUDGET
    SAVE HEAD FOR ALL LAYERS
    PRINT HEAD FOR ALL LAYERS
 UBDSV2 SAVING "STREAMFLOW OUT  " ON UNIT  50 AT TIME STEP  1, STRESS PERIOD   3



 STREAM LISTING     PERIOD      3   STEP        1

 LAYER ROW COL. STREAM  RCH.  FLOW INTO     FLOW TO   FLOW OUT OF   OVRLND.     DIRECT     STREAM       STREAM     STREAM     STREAM   STREAMBED  STREAMBED
                SEG.NO.  NO.  STRM. RCH.    AQUIFER    STRM. RCH.    RUNOFF     PRECIP       ET          HEAD       DEPTH      WIDTH   CONDCTNC.   GRADIENT

   1   13    1     1     1    1.0000E+05 -2.7780E+03   1.0278E+05  0.000E+00  0.000E+00  0.000E+00  4.84072E+01  1.459E-01  2.000E+01  2.000E+04 -1.389E-01
   1   13    2     1     2    1.0278E+05 -3.8884E+03   1.0667E+05  0.000E+00  0.000E+00  0.000E+00  4.79328E+01  1.487E-01  2.000E+01  2.000E+04 -1.944E-01
   1   14    3     1     3    1.0667E+05 -6.5716E+02   1.0732E+05  0.000E+00  0.000E+00  0.000E+00  4.74575E+01  1.506E-01  2.000E+01  2.000E+04 -3.286E-02
   1   15    4     1     4    1.0732E+05 -6.3993E+02   1.0796E+05  0.000E+00  0.000E+00  0.000E+00  4.69807E+01  1.512E-01  2.000E+01  2.000E+04 -3.200E-02
   1   16    5     1     5    1.0796E+05 -2.4540E+03   1.1042E+05  0.000E+00  0.000E+00  0.000E+00  4.65048E+01  1.525E-01  2.000E+01  2.000E+04 -1.227E-01
   1   16    6     1     6    1.1042E+05 -1.5003E+03   1.1192E+05  0.000E+00  0.000E+00  0.000E+00  4.60291E+01  1.541E-01  2.000E+01  2.000E+04 -7.501E-02
   1   16    7     1     7    1.1192E+05 -1.4620E+03   1.1338E+05  0.000E+00  0.000E+00  0.000E+00  4.55531E+01  1.554E-01  2.000E+01  2.000E+04 -7.310E-02
   1   16    8     1     8    1.1338E+05 -1.4472E+03   1.1483E+05  0.000E+00  0.000E+00  0.000E+00  4.50770E+01  1.566E-01  2.000E+01  2.000E+04 -7.236E-02
   1   16    9     1     9    1.1483E+05 -1.4252E+03   1.1625E+05  0.000E+00  0.000E+00  0.000E+00  4.46009E+01  1.577E-01  2.000E+01  2.000E+04 -7.126E-02
   1   16   10     1    10    1.1625E+05 -1.3918E+03   1.1764E+05  0.000E+00  0.000E+00  0.000E+00  4.41248E+01  1.589E-01  2.000E+01  2.000E+04 -6.959E-02
   1   16   11     1    11    1.1764E+05 -1.3743E+03   1.1902E+05  0.000E+00  0.000E+00  0.000E+00  4.36487E+01  1.600E-01  2.000E+01  2.000E+04 -6.872E-02
   1   16   12     1    12    1.1902E+05 -2.3803E+03   1.2140E+05  0.000E+00  0.000E+00  0.000E+00  4.31729E+01  1.615E-01  2.000E+01  2.000E+04 -1.190E-01
   1   15   13     1    13    1.2140E+05 -2.3265E+03   1.2373E+05  0.000E+00  0.000E+00  0.000E+00  4.26975E+01  1.634E-01  2.000E+01  2.000E+04 -1.163E-01
   1   14   14     1    14    1.2373E+05 -2.6606E+03   1.2639E+05  0.000E+00  0.000E+00  0.000E+00  4.22222E+01  1.654E-01  2.000E+01  2.000E+04 -1.330E-01
   1   13   15     1    15    1.2639E+05 -3.0426E+03   1.2943E+05  0.000E+00  0.000E+00  0.000E+00  4.17472E+01  1.677E-01  2.000E+01  2.000E+04 -1.521E-01
   1   12   16     1    16    1.2943E+05 -4.0199E+03   1.3345E+05  0.000E+00  0.000E+00  0.000E+00  4.12727E+01  1.704E-01  2.000E+01  2.000E+04 -2.010E-01
   1   12   17     1    17    1.3345E+05 -2.4670E+03   1.3592E+05  0.000E+00  0.000E+00  0.000E+00  4.07979E+01  1.729E-01  2.000E+01  2.000E+04 -1.234E-01
   1   12   18     1    18    1.3592E+05 -2.2642E+03   1.3818E+05  0.000E+00  0.000E+00  0.000E+00  4.03225E+01  1.748E-01  2.000E+01  2.000E+04 -1.132E-01
   1   12   19     1    19    1.3818E+05 -2.9482E+03   1.4113E+05  0.000E+00  0.000E+00  0.000E+00  3.98472E+01  1.767E-01  2.000E+01  2.000E+04 -1.474E-01
   1   13   20     1    20    1.4113E+05 -1.3293E+03   1.4246E+05  0.000E+00  0.000E+00  0.000E+00  3.93715E+01  1.784E-01  2.000E+01  2.000E+04 -6.647E-02
   1   14   21     1    21    1.4246E+05  3.3483E+03   1.3911E+05  0.000E+00  0.000E+00  0.000E+00  3.88935E+01  1.776E-01  2.000E+01  2.000E+04  1.674E-01
   1   14   22     1    22    1.3911E+05  5.5456E+03   1.3356E+05  0.000E+00  0.000E+00  0.000E+00  3.84129E+01  1.742E-01  2.000E+01  2.000E+04  2.773E-01
   1    9   30     2     1    5.0000E+04 -7.6130E+02   5.0761E+04  0.000E+00  0.000E+00  0.000E+00  4.02414E+01  1.164E-01  2.000E+01  2.000E+04 -3.806E-02
   1    9   29     2     2    5.0761E+04 -1.0949E+03   5.1856E+04  0.000E+00  0.000E+00  0.000E+00  3.99927E+01  1.177E-01  2.000E+01  2.000E+04 -5.475E-02
   1    9   28     2     3    5.1856E+04 -1.4328E+03   5.3289E+04  0.000E+00  0.000E+00  0.000E+00  3.97444E+01  1.194E-01  2.000E+01  2.000E+04 -7.164E-02
   1    9   27     2     4    5.3289E+04 -3.1030E+03   5.6392E+04  0.000E+00  0.000E+00  0.000E+00  3.94975E+01  1.225E-01  2.000E+01  2.000E+04 -1.552E-01
   1   10   26     2     5    5.6392E+04 -2.0277E+03   5.8420E+04  0.000E+00  0.000E+00  0.000E+00  3.92509E+01  1.259E-01  2.000E+01  2.000E+04 -1.014E-01
   1   11   25     2     6    5.8420E+04 -1.7834E+03   6.0203E+04  0.000E+00  0.000E+00  0.000E+00  3.90034E+01  1.284E-01  2.000E+01  2.000E+04 -8.917E-02
   1   12   24     2     7    6.0203E+04 -1.8938E+03   6.2097E+04  0.000E+00  0.000E+00  0.000E+00  3.87557E+01  1.307E-01  2.000E+01  2.000E+04 -9.469E-02
   1   13   23     2     8    6.2097E+04 -2.8081E+02   6.2378E+04  0.000E+00  0.000E+00  0.000E+00  3.85071E+01  1.321E-01  2.000E+01  2.000E+04 -1.404E-02
   1   14   22     2     9    6.2378E+04  2.4040E+03   5.9974E+04  0.000E+00  0.000E+00  0.000E+00  3.82558E+01  1.308E-01  2.000E+01  2.000E+04  1.202E-01
   1   14   22     3     1    1.9354E+05 -7.9887E+03   2.0153E+05  0.000E+00  0.000E+00  0.000E+00  3.77361E+01  1.806E-01  2.000E+01  2.000E+04 -3.994E-01
   1   15   23     3     2    2.0153E+05 -8.1156E+01   2.0161E+05  0.000E+00  0.000E+00  0.000E+00  3.68495E+01  1.828E-01  2.000E+01  2.000E+04 -4.058E-03
   1   15   24     3     3    2.0161E+05 -2.6343E+02   2.0187E+05  0.000E+00  0.000E+00  0.000E+00  3.59607E+01  1.829E-01  2.000E+01  2.000E+04 -1.317E-02
   1   15   25     3     4    2.0187E+05 -2.7102E+02   2.0214E+05  0.000E+00  0.000E+00  0.000E+00  3.50719E+01  1.830E-01  2.000E+01  2.000E+04 -1.355E-02
   1   15   26     3     5    2.0214E+05 -2.3506E+02   2.0238E+05  0.000E+00  0.000E+00  0.000E+00  3.41832E+01  1.832E-01  2.000E+01  2.000E+04 -1.175E-02
   1   16   27     3     6    2.0238E+05  1.5548E+01   2.0236E+05  0.000E+00  0.000E+00  0.000E+00  3.32943E+01  1.832E-01  2.000E+01  2.000E+04  7.774E-04
   1   17   28     3     7    2.0236E+05  9.2811E+03   1.9308E+05  0.000E+00  0.000E+00  0.000E+00  3.24029E+01  1.807E-01  2.000E+01  2.000E+04  4.641E-01
   1   18   29     3     8    1.9308E+05  7.4948E+03   1.8558E+05  0.000E+00  0.000E+00  0.000E+00  3.15094E+01  1.760E-01  2.000E+01  2.000E+04  3.747E-01
   1   18   30     3     9    1.8558E+05  1.2567E+02   1.8546E+05  0.000E+00  0.000E+00  0.000E+00  3.06184E+01  1.739E-01  2.000E+01  2.000E+04  6.284E-03



1
              HEAD IN LAYER   1 AT END OF TIME STEP   1 IN STRESS PERIOD    3
  ---------------------------------------------------------------------------

          1      2      3      4      5      6      7      8      9     10
         11     12     13     14     15     16     17     18     19     20
         21     22     23     24     25     26     27     28     29     30
 .........................................................................
   1  ****** ****** ****** ****** ****** ****** ****** ****** ****** ******
      ****** ****** ****** ****** ****** ****** ****** ****** ****** ******
      ****** ****** ****** ****** ****** ****** ****** ****** ****** ******
   2  ****** ****** ****** ****** ****** ****** ****** ****** ****** ******
      ****** ****** ****** ****** ****** ****** ****** ****** ****** ******
      ****** ****** ****** ****** ****** ****** ****** ****** ****** ******
   3  ****** ****** ****** ****** ****** ****** ****** ****** ****** ******
      ****** ****** ****** ****** ****** ****** ****** ****** ****** ******
      ****** ****** ****** ****** ****** ****** ****** ****** ****** ******
   4  ****** ****** ****** ****** ****** ****** ****** ****** ****** ******
      ****** ****** ****** ****** ****** ****** ****** ****** ****** ******
      ****** ****** ****** ****** ****** ****** ****** ****** ****** ******
   5  ****** ****** ****** ****** ****** ****** ****** ****** ****** ******
      ****** ****** ****** ****** ****** ****** ****** ****** ****** ******
      ****** ****** ****** ****** ****** ****** ****** ****** ****** ******
   6  ****** ****** ****** ****** ****** ****** ****** ****** ****** ******
      ****** ****** ****** ****** ****** ****** ****** ****** ****** ******
      ****** ****** ****** ****** ****** ****** ****** ****** ****** ******
   7  ****** ****** ****** ****** ****** ****** ****** ****** ****** ******
      ****** ****** ****** ****** ****** ****** ****** ****** ****** ******
      ****** ****** ****** ****** ****** ****** ****** ****** ****** ******
   8  ****** ****** ****** ****** ****** ****** ****** ****** ****** ******
      ****** ****** ****** ****** ****** ****** ****** ****** ****** ******
      ****** ****** ****** ****** ****** ****** ****** ****** ****** ******
   9  ****** ****** ****** ****** ****** ****** ****** ****** ****** ******
      ****** ****** ****** ****** ****** ****** ****** ****** ****** ******
      ****** ****** ****** ****** ****** ****** ****** ****** ****** ******
  10  ****** ****** ****** ****** ****** ****** ****** ****** ****** ******
      ****** ****** ****** ****** ****** ****** ****** ****** ****** ******
      ****** ****** ****** ****** ****** ****** ****** ****** ****** ******
  11  ****** ****** ****** ****** ****** ****** ****** ****** ****** ******
      ****** ****** ****** ****** ****** ****** ****** ****** ****** ******
      ****** ****** ****** ****** ****** ****** ****** ****** ****** ******
  12  ****** ****** ****** ****** ****** ****** ****** ****** ****** ******
      ****** ****** ****** ****** ****** ****** ****** ****** ****** ******
      ****** ****** ****** ****** ****** ****** ****** ****** ****** ******
  13  ****** ****** ****** ****** ****** ****** ****** ****** ****** ******
      ****** ****** ****** ****** ****** ****** ****** ****** ****** ******
      ****** ****** ****** ****** ****** ****** ****** ****** ****** ******
  14  ****** ****** ****** ****** ****** ****** ****** ****** ****** ******
      ****** ****** ****** ****** ****** ****** ****** ****** ****** ******
      ****** ****** ****** ****** ****** ****** ****** ****** ****** ******
  15  ****** ****** ****** ****** ****** ****** ****** ****** ****** ******
      ****** ****** ****** ****** ****** ****** ****** ****** ****** ******
      ****** ****** ****** ****** ****** ****** ****** ****** ****** ******
  16  ****** ****** ****** ****** ****** ****** ****** ****** ****** ******
      ****** ****** ****** ****** ****** ****** ****** ****** ****** ******
      ****** ****** ****** ****** ****** ****** ****** ****** ****** ******
  17  ****** ****** ****** ****** ****** ****** ****** ****** ****** ******
      ****** ****** ****** ****** ****** ****** ****** ****** ****** ******
      ****** ****** ****** ****** ****** ****** ****** ****** ****** ******
  18  ****** ****** ****** ****** ****** ****** ****** ****** ****** ******
      ****** ****** ****** ****** ****** ****** ****** ****** ****** ******
      ****** ****** ****** ****** ****** ****** ****** ****** ****** ******
  19  ****** ****** ****** ****** ****** ****** ****** ****** ****** ******
      ****** ****** ****** ****** ****** ****** ****** ****** ****** ******
      ****** ****** ****** ****** ****** ****** ****** ****** ****** ******
  20  ****** ****** ****** ****** ****** ****** ****** ****** ****** ******
      ****** ****** ****** ****** ****** ****** ****** ****** ****** ******
      ****** ****** ****** ****** ****** ****** ****** ****** ****** ******
  21  ****** ****** ****** ****** ****** ****** ****** ****** ****** ******
      ****** ****** ****** ****** ****** ****** ****** ****** ****** ******
      ****** ****** ****** ****** ****** ****** ****** ****** ****** ******
  22  ****** ****** ****** ****** ****** ****** ****** ****** ****** ******
      ****** ****** ****** ****** ****** ****** ****** ****** ****** ******
      ****** ****** ****** ****** ****** ****** ****** ****** ****** ******
  23  ****** ****** ****** ****** ****** ****** ****** ****** ****** ******
      ****** ****** ****** ****** ****** ****** ****** ****** ****** ******
      ****** ****** ****** ****** ****** ****** ****** ****** ****** ******
  24  ****** ****** ****** ****** ****** ****** ****** ****** ****** ******
      ****** ****** ****** ****** ****** ****** ****** ****** ****** ******
      ****** ****** ****** ****** ****** ****** ****** ****** ****** ******
  25  ****** ****** ****** ****** ****** ****** ****** ****** ****** ******
      ****** ****** ****** ****** ****** ****** ****** ****** ****** ******
      ****** ****** ****** ****** ****** ****** ****** ****** ****** ******

 HEAD WILL BE SAVED ON UNIT   51 AT END OF TIME STEP    1, STRESS PERIOD    3
1
  VOLUMETRIC BUDGET FOR ENTIRE MODEL AT END OF TIME STEP    1, STRESS PERIOD   3
  ------------------------------------------------------------------------------

     CUMULATIVE VOLUMES      L**3       RATES FOR THIS TIME STEP      L**3/T
     ------------------                 ------------------------

           IN:                                      IN:
           ---                                      ---
             STORAGE =    26654545.0145               STORAGE =       53085.0275
       CONSTANT HEAD =     4919137.4919         CONSTANT HEAD =       24921.3137
               WELLS =           0.0000                 WELLS =           0.0000
            RECHARGE =     6292800.0000              RECHARGE =           0.0000
      STREAM LEAKAGE =     5663096.1354        STREAM LEAKAGE =       28214.9854

            TOTAL IN =    43529578.6417              TOTAL IN =      106221.3266

          OUT:                                     OUT:
          ----                                     ----
             STORAGE =           0.0000               STORAGE =           0.0000
       CONSTANT HEAD =           0.0000         CONSTANT HEAD =           0.0000
               WELLS =    11657963.7597                 WELLS =       42547.3130
            RECHARGE =           0.0000              RECHARGE =           0.0000
      STREAM LEAKAGE =    31871616.6923        STREAM LEAKAGE =       63674.0206

           TOTAL OUT =    43529580.4520             TOTAL OUT =      106221.3336

            IN - OUT =          -1.8103              IN - OUT =      -6.9677E-03

 PERCENT DISCREPANCY =          -0.00     PERCENT DISCREPANCY =          -0.00






         TIME SUMMARY AT END OF TIME STEP    1 IN STRESS PERIOD    3
                    SECONDS     MINUTES      HOURS       DAYS        YEARS
                    -----------------------------------------------------------
   TIME STEP LENGTH 7.86240E+06 1.31040E+05  2184.0      91.000     0.24914    
 STRESS PERIOD TIME 7.86240E+06 1.31040E+05  2184.0      91.000     0.24914    
         TOTAL TIME 2.36736E+07 3.94560E+05  6576.0      274.00     0.75017    
1
1
                            STRESS PERIOD NO.    4, LENGTH =   91.00000    
                            -----------------------------------------------

                              NUMBER OF TIME STEPS =     1

                               MULTIPLIER FOR DELT =     1.500

                            INITIAL TIME STEP SIZE =   91.00000    

 WELL NO.  LAYER   ROW   COL   STRESS RATE         
 --------------------------------------------------
      1      1     23     29      -1803.    
      2      1     18     28     -0.1266E+05
      3      1     15     21     -0.1318E+05
      4      1     17     29     -0.1491E+05

      4 WELLS

                 RECHARGE =  1.000000E-03

 REUSING STREAM SEGMENT DATA FROM LAST STRESS PERIOD
 
 SOLVING FOR HEAD 


     7 CALLS TO PCG ROUTINE FOR TIME STEP   1 IN STRESS PERIOD    4
    24 TOTAL ITERATIONS

 OUTPUT CONTROL FOR STRESS PERIOD    4   TIME STEP    1
    SAVE BUDGET
    SAVE HEAD FOR ALL LAYERS
    PRINT HEAD FOR ALL LAYERS
 UBDSV2 SAVING "STREAMFLOW OUT  " ON UNIT  50 AT TIME STEP  1, STRESS PERIOD   4



 STREAM LISTING     PERIOD      4   STEP        1

 LAYER ROW COL. STREAM  RCH.  FLOW INTO     FLOW TO   FLOW OUT OF   OVRLND.     DIRECT     STREAM       STREAM     STREAM     STREAM   STREAMBED  STREAMBED
                SEG.NO.  NO.  STRM. RCH.    AQUIFER    STRM. RCH.    RUNOFF     PRECIP       ET          HEAD       DEPTH      WIDTH   CONDCTNC.   GRADIENT

   1   13    1     1     1    1.0000E+05 -2.5567E+03   1.0256E+05  0.000E+00  0.000E+00  0.000E+00  4.84071E+01  1.458E-01  2.000E+01  2.000E+04 -1.278E-01
   1   13    2     1     2    1.0256E+05 -3.6304E+03   1.0619E+05  0.000E+00  0.000E+00  0.000E+00  4.79325E+01  1.484E-01  2.000E+01  2.000E+04 -1.815E-01
   1   14    3     1     3    1.0619E+05 -6.3037E+02   1.0682E+05  0.000E+00  0.000E+00  0.000E+00  4.74570E+01  1.502E-01  2.000E+01  2.000E+04 -3.152E-02
   1   15    4     1     4    1.0682E+05 -6.0293E+02   1.0742E+05  0.000E+00  0.000E+00  0.000E+00  4.69803E+01  1.507E-01  2.000E+01  2.000E+04 -3.015E-02
   1   16    5     1     5    1.0742E+05 -2.1539E+03   1.0957E+05  0.000E+00  0.000E+00  0.000E+00  4.65042E+01  1.519E-01  2.000E+01  2.000E+04 -1.077E-01
   1   16    6     1     6    1.0957E+05 -1.3532E+03   1.1093E+05  0.000E+00  0.000E+00  0.000E+00  4.60284E+01  1.534E-01  2.000E+01  2.000E+04 -6.766E-02
   1   16    7     1     7    1.1093E+05 -1.3261E+03   1.1225E+05  0.000E+00  0.000E+00  0.000E+00  4.55522E+01  1.545E-01  2.000E+01  2.000E+04 -6.630E-02
   1   16    8     1     8    1.1225E+05 -1.3154E+03   1.1357E+05  0.000E+00  0.000E+00  0.000E+00  4.50760E+01  1.556E-01  2.000E+01  2.000E+04 -6.577E-02
   1   16    9     1     9    1.1357E+05 -1.2958E+03   1.1486E+05  0.000E+00  0.000E+00  0.000E+00  4.45998E+01  1.567E-01  2.000E+01  2.000E+04 -6.479E-02
   1   16   10     1    10    1.1486E+05 -1.2651E+03   1.1613E+05  0.000E+00  0.000E+00  0.000E+00  4.41236E+01  1.577E-01  2.000E+01  2.000E+04 -6.325E-02
   1   16   11     1    11    1.1613E+05 -1.2463E+03   1.1738E+05  0.000E+00  0.000E+00  0.000E+00  4.36474E+01  1.587E-01  2.000E+01  2.000E+04 -6.231E-02
   1   16   12     1    12    1.1738E+05 -2.1110E+03   1.1949E+05  0.000E+00  0.000E+00  0.000E+00  4.31715E+01  1.601E-01  2.000E+01  2.000E+04 -1.055E-01
   1   15   13     1    13    1.1949E+05 -2.0848E+03   1.2157E+05  0.000E+00  0.000E+00  0.000E+00  4.26959E+01  1.618E-01  2.000E+01  2.000E+04 -1.042E-01
   1   14   14     1    14    1.2157E+05 -2.4042E+03   1.2398E+05  0.000E+00  0.000E+00  0.000E+00  4.22204E+01  1.636E-01  2.000E+01  2.000E+04 -1.202E-01
   1   13   15     1    15    1.2398E+05 -2.7697E+03   1.2675E+05  0.000E+00  0.000E+00  0.000E+00  4.17452E+01  1.657E-01  2.000E+01  2.000E+04 -1.385E-01
   1   12   16     1    16    1.2675E+05 -3.6681E+03   1.3041E+05  0.000E+00  0.000E+00  0.000E+00  4.12705E+01  1.682E-01  2.000E+01  2.000E+04 -1.834E-01
   1   12   17     1    17    1.3041E+05 -2.2545E+03   1.3267E+05  0.000E+00  0.000E+00  0.000E+00  4.07955E+01  1.705E-01  2.000E+01  2.000E+04 -1.127E-01
   1   12   18     1    18    1.3267E+05 -2.0662E+03   1.3473E+05  0.000E+00  0.000E+00  0.000E+00  4.03199E+01  1.722E-01  2.000E+01  2.000E+04 -1.033E-01
   1   12   19     1    19    1.3473E+05 -2.7062E+03   1.3744E+05  0.000E+00  0.000E+00  0.000E+00  3.98445E+01  1.740E-01  2.000E+01  2.000E+04 -1.353E-01
   1   13   20     1    20    1.3744E+05 -1.1628E+03   1.3860E+05  0.000E+00  0.000E+00  0.000E+00  3.93687E+01  1.755E-01  2.000E+01  2.000E+04 -5.814E-02
   1   14   21     1    21    1.3860E+05  3.5949E+03   1.3501E+05  0.000E+00  0.000E+00  0.000E+00  3.88905E+01  1.746E-01  2.000E+01  2.000E+04  1.797E-01
   1   14   22     1    22    1.3501E+05  5.5832E+03   1.2943E+05  0.000E+00  0.000E+00  0.000E+00  3.84097E+01  1.710E-01  2.000E+01  2.000E+04  2.792E-01
   1    9   30     2     1    5.0000E+04 -6.7953E+02   5.0680E+04  0.000E+00  0.000E+00  0.000E+00  4.02413E+01  1.163E-01  2.000E+01  2.000E+04 -3.398E-02
   1    9   29     2     2    5.0680E+04 -1.0070E+03   5.1687E+04  0.000E+00  0.000E+00  0.000E+00  3.99925E+01  1.175E-01  2.000E+01  2.000E+04 -5.035E-02
   1    9   28     2     3    5.1687E+04 -1.3267E+03   5.3013E+04  0.000E+00  0.000E+00  0.000E+00  3.97441E+01  1.191E-01  2.000E+01  2.000E+04 -6.634E-02
   1    9   27     2     4    5.3013E+04 -2.8587E+03   5.5872E+04  0.000E+00  0.000E+00  0.000E+00  3.94969E+01  1.219E-01  2.000E+01  2.000E+04 -1.429E-01
   1   10   26     2     5    5.5872E+04 -1.8882E+03   5.7760E+04  0.000E+00  0.000E+00  0.000E+00  3.92501E+01  1.251E-01  2.000E+01  2.000E+04 -9.441E-02
   1   11   25     2     6    5.7760E+04 -1.6824E+03   5.9443E+04  0.000E+00  0.000E+00  0.000E+00  3.90024E+01  1.274E-01  2.000E+01  2.000E+04 -8.412E-02
   1   12   24     2     7    5.9443E+04 -1.8105E+03   6.1253E+04  0.000E+00  0.000E+00  0.000E+00  3.87547E+01  1.297E-01  2.000E+01  2.000E+04 -9.052E-02
   1   13   23     2     8    6.1253E+04 -3.0866E+02   6.1562E+04  0.000E+00  0.000E+00  0.000E+00  3.85061E+01  1.311E-01  2.000E+01  2.000E+04 -1.543E-02
   1   14   22     2     9    6.1562E+04  2.4832E+03   5.9079E+04  0.000E+00  0.000E+00  0.000E+00  3.82547E+01  1.297E-01  2.000E+01  2.000E+04  1.242E-01
   1   14   22     3     1    1.8850E+05 -7.9432E+03   1.9645E+05  0.000E+00  0.000E+00  0.000E+00  3.77334E+01  1.778E-01  2.000E+01  2.000E+04 -3.972E-01
   1   15   23     3     2    1.9645E+05 -5.0345E+01   1.9650E+05  0.000E+00  0.000E+00  0.000E+00  3.68467E+01  1.800E-01  2.000E+01  2.000E+04 -2.517E-03
   1   15   24     3     3    1.9650E+05 -2.5729E+02   1.9675E+05  0.000E+00  0.000E+00  0.000E+00  3.59579E+01  1.801E-01  2.000E+01  2.000E+04 -1.286E-02
   1   15   25     3     4    1.9675E+05 -2.6470E+02   1.9702E+05  0.000E+00  0.000E+00  0.000E+00  3.50691E+01  1.802E-01  2.000E+01  2.000E+04 -1.324E-02
   1   15   26     3     5    1.9702E+05 -2.3878E+02   1.9726E+05  0.000E+00  0.000E+00  0.000E+00  3.41804E+01  1.804E-01  2.000E+01  2.000E+04 -1.194E-02
   1   16   27     3     6    1.9726E+05  2.4131E+01   1.9723E+05  0.000E+00  0.000E+00  0.000E+00  3.32915E+01  1.804E-01  2.000E+01  2.000E+04  1.207E-03
   1   17   28     3     7    1.9723E+05  9.3794E+03   1.8785E+05  0.000E+00  0.000E+00  0.000E+00  3.24001E+01  1.778E-01  2.000E+01  2.000E+04  4.690E-01
   1   18   29     3     8    1.8785E+05  7.7751E+03   1.8008E+05  0.000E+00  0.000E+00  0.000E+00  3.15064E+01  1.730E-01  2.000E+01  2.000E+04  3.888E-01
   1   18   30     3     9    1.8008E+05  2.7486E+02   1.7980E+05  0.000E+00  0.000E+00  0.000E+00  3.06152E+01  1.708E-01  2.000E+01  2.000E+04  1.374E-02



1
              HEAD IN LAYER   1 AT END OF TIME STEP   1 IN STRESS PERIOD    4
  ---------------------------------------------------------------------------

          1      2      3      4      5      6      7      8      9     10
         11     12     13     14     15     16     17     18     19     20
         21     22     23     24     25     26     27     28     29     30
 .........................................................................
   1  ****** ****** ****** ****** ****** ****** ****** ****** ****** ******
      ****** ****** ****** ****** ****** ****** ****** ****** ****** ******
      ****** ****** ****** ****** ****** ****** ****** ****** ****** ******
   2  ****** ****** ****** ****** ****** ****** ****** ****** ****** ******
      ****** ****** ****** ****** ****** ****** ****** ****** ****** ******
      ****** ****** ****** ****** ****** ****** ****** ****** ****** ******
   3  ****** ****** ****** ****** ****** ****** ****** ****** ****** ******
      ****** ****** ****** ****** ****** ****** ****** ****** ****** ******
      ****** ****** ****** ****** ****** ****** ****** ****** ****** ******
   4  ****** ****** ****** ****** ****** ****** ****** ****** ****** ******
      ****** ****** ****** ****** ****** ****** ****** ****** ****** ******
      ****** ****** ****** ****** ****** ****** ****** ****** ****** ******
   5  ****** ****** ****** ****** ****** ****** ****** ****** ****** ******
      ****** ****** ****** ****** ****** ****** ****** ****** ****** ******
      ****** ****** ****** ****** ****** ****** ****** ****** ****** ******
   6  ****** ****** ****** ****** ****** ****** ****** ****** ****** ******
      ****** ****** ****** ****** ****** ****** ****** ****** ****** ******
      ****** ****** ****** ****** ****** ****** ****** ****** ****** ******
   7  ****** ****** ****** ****** ****** ****** ****** ****** ****** ******
      ****** ****** ****** ****** ****** ****** ****** ****** ****** ******
      ****** ****** ****** ****** ****** ****** ****** ****** ****** ******
   8  ****** ****** ****** ****** ****** ****** ****** ****** ****** ******
      ****** ****** ****** ****** ****** ****** ****** ****** ****** ******
      ****** ****** ****** ****** ****** ****** ****** ****** ****** ******
   9  ****** ****** ****** ****** ****** ****** ****** ****** ****** ******
      ****** ****** ****** ****** ****** ****** ****** ****** ****** ******
      ****** ****** ****** ****** ****** ****** ****** ****** ****** ******
  10  ****** ****** ****** ****** ****** ****** ****** ****** ****** ******
      ****** ****** ****** ****** ****** ****** ****** ****** ****** ******
      ****** ****** ****** ****** ****** ****** ****** ****** ****** ******
  11  ****** ****** ****** ****** ****** ****** ****** ****** ****** ******
      ****** ****** ****** ****** ****** ****** ****** ****** ****** ******
      ****** ****** ****** ****** ****** ****** ****** ****** ****** ******
  12  ****** ****** ****** ****** ****** ****** ****** ****** ****** ******
      ****** ****** ****** ****** ****** ****** ****** ****** ****** ******
      ****** ****** ****** ****** ****** ****** ****** ****** ****** ******
  13  ****** ****** ****** ****** ****** ****** ****** ****** ****** ******
      ****** ****** ****** ****** ****** ****** ****** ****** ****** ******
      ****** ****** ****** ****** ****** ****** ****** ****** ****** ******
  14  ****** ****** ****** ****** ****** ****** ****** ****** ****** ******
      ****** ****** ****** ****** ****** ****** ****** ****** ****** ******
      ****** ****** ****** ****** ****** ****** ****** ****** ****** ******
  15  ****** ****** ****** ****** ****** ****** ****** ****** ****** ******
      ****** ****** ****** ****** ****** ****** ****** ****** ****** ******
      ****** ****** ****** ****** ****** ****** ****** ****** ****** ******
  16  ****** ****** ****** ****** ****** ****** ****** ****** ****** ******
      ****** ****** ****** ****** ****** ****** ****** ****** ****** ******
      ****** ****** ****** ****** ****** ****** ****** ****** ****** ******
  17  ****** ****** ****** ****** ****** ****** ****** ****** ****** ******
      ****** ****** ****** ****** ****** ****** ****** ****** ****** ******
      ****** ****** ****** ****** ****** ****** ****** ****** ****** ******
  18  ****** ****** ****** ****** ****** ****** ****** ****** ****** ******
      ****** ****** ****** ****** ****** ****** ****** ****** ****** ******
      ****** ****** ****** ****** ****** ****** ****** ****** ****** ******
  19  ****** ****** ****** ****** ****** ****** ****** ****** ****** ******
      ****** ****** ****** ****** ****** ****** ****** ****** ****** ******
      ****** ****** ****** ****** ****** ****** ****** ****** ****** ******
  20  ****** ****** ****** ****** ****** ****** ****** ****** ****** ******
      ****** ****** ****** ****** ****** ****** ****** ****** ****** ******
      ****** ****** ****** ****** ****** ****** ****** ****** ****** ******
  21  ****** ****** ****** ****** ****** ****** ****** ****** ****** ******
      ****** ****** ****** ****** ****** ****** ****** ****** ****** ******
      ****** ****** ****** ****** ****** ****** ****** ****** ****** ******
  22  ****** ****** ****** ****** ****** ****** ****** ****** ****** ******
      ****** ****** ****** ****** ****** ****** ****** ****** ****** ******
      ****** ****** ****** ****** ****** ****** ****** ****** ****** ******
  23  ****** ****** ****** ****** ****** ****** ****** ****** ****** ******
      ****** ****** ****** ****** ****** ****** ****** ****** ****** ******
      ****** ****** ****** ****** ****** ****** ****** ****** ****** ******
  24  ****** ****** ****** ****** ****** ****** ****** ****** ****** ******
      ****** ****** ****** ****** ****** ****** ****** ****** ****** ******
      ****** ****** ****** ****** ****** ****** ****** ****** ****** ******
  25  ****** ****** ****** ****** ****** ****** ****** ****** ****** ******
      ****** ****** ****** ****** ****** ****** ****** ****** ****** ******
      ****** ****** ****** ****** ****** ****** ****** ****** ****** ******

 HEAD WILL BE SAVED ON UNIT   51 AT END OF TIME STEP    1, STRESS PERIOD    4
1
  VOLUMETRIC BUDGET FOR ENTIRE MODEL AT END OF TIME STEP    1, STRESS PERIOD   4
  ------------------------------------------------------------------------------

     CUMULATIVE VOLUMES      L**3       RATES FOR THIS TIME STEP      L**3/T
     ------------------                 ------------------------

           IN:                                      IN:
           ---                                      ---
             STORAGE =    28237168.6782               STORAGE =       17391.4688
       CONSTANT HEAD =     7409815.4518         CONSTANT HEAD =       27370.0875
               WELLS =           0.0000                 WELLS =           0.0000
            RECHARGE =     8804400.0000              RECHARGE =       27600.0000
      STREAM LEAKAGE =     8312542.4351        STREAM LEAKAGE =       29114.7945

            TOTAL IN =    52763926.5651              TOTAL IN =      101476.3508

          OUT:                                     OUT:
          ----                                     ----
             STORAGE =         873.2449               STORAGE =           9.5961
       CONSTANT HEAD =           0.0000         CONSTANT HEAD =           0.0000
               WELLS =    15529769.2419                 WELLS =       42547.3130
            RECHARGE =           0.0000              RECHARGE =           0.0000
      STREAM LEAKAGE =    37233285.9916        STREAM LEAKAGE =       58919.4428

           TOTAL OUT =    52763928.4785             TOTAL OUT =      101476.3519

            IN - OUT =          -1.9133              IN - OUT =      -1.1318E-03

 PERCENT DISCREPANCY =          -0.00     PERCENT DISCREPANCY =          -0.00






         TIME SUMMARY AT END OF TIME STEP    1 IN STRESS PERIOD    4
                    SECONDS     MINUTES      HOURS       DAYS        YEARS
                    -----------------------------------------------------------
   TIME STEP LENGTH 7.86240E+06 1.31040E+05  2184.0      91.000     0.24914    
 STRESS PERIOD TIME 7.86240E+06 1.31040E+05  2184.0      91.000     0.24914    
         TOTAL TIME 3.15360E+07 5.25600E+05  8760.0      365.00     0.99932    
1
1
                            STRESS PERIOD NO.    5, LENGTH =   92.00000    
                            -----------------------------------------------

                              NUMBER OF TIME STEPS =     1

                               MULTIPLIER FOR DELT =     1.500

                            INITIAL TIME STEP SIZE =   92.00000    

 WELL NO.  LAYER   ROW   COL   STRESS RATE         
 --------------------------------------------------
      1      1     23     29      -1803.    
      2      1     18     28     -0.1266E+05
      3      1     15     21     -0.1318E+05
      4      1     17     29     -0.1491E+05

      4 WELLS

                 RECHARGE =  5.000000E-04

 REUSING STREAM SEGMENT DATA FROM LAST STRESS PERIOD
 
 SOLVING FOR HEAD 


     7 CALLS TO PCG ROUTINE FOR TIME STEP   1 IN STRESS PERIOD    5
    26 TOTAL ITERATIONS

 OUTPUT CONTROL FOR STRESS PERIOD    5   TIME STEP    1
    SAVE BUDGET
    SAVE HEAD FOR ALL LAYERS
    PRINT HEAD FOR ALL LAYERS
 UBDSV2 SAVING "STREAMFLOW OUT  " ON UNIT  50 AT TIME STEP  1, STRESS PERIOD   5



 STREAM LISTING     PERIOD      5   STEP        1

 LAYER ROW COL. STREAM  RCH.  FLOW INTO     FLOW TO   FLOW OUT OF   OVRLND.     DIRECT     STREAM       STREAM     STREAM     STREAM   STREAMBED  STREAMBED
                SEG.NO.  NO.  STRM. RCH.    AQUIFER    STRM. RCH.    RUNOFF     PRECIP       ET          HEAD       DEPTH      WIDTH   CONDCTNC.   GRADIENT

   1   13    1     1     1    1.0000E+05 -2.1543E+03   1.0215E+05  0.000E+00  0.000E+00  0.000E+00  4.84069E+01  1.456E-01  2.000E+01  2.000E+04 -1.077E-01
   1   13    2     1     2    1.0215E+05 -3.1755E+03   1.0533E+05  0.000E+00  0.000E+00  0.000E+00  4.79320E+01  1.479E-01  2.000E+01  2.000E+04 -1.588E-01
   1   14    3     1     3    1.0533E+05 -5.0986E+02   1.0584E+05  0.000E+00  0.000E+00  0.000E+00  4.74563E+01  1.494E-01  2.000E+01  2.000E+04 -2.549E-02
   1   15    4     1     4    1.0584E+05 -4.7552E+02   1.0632E+05  0.000E+00  0.000E+00  0.000E+00  4.69794E+01  1.499E-01  2.000E+01  2.000E+04 -2.378E-02
   1   16    5     1     5    1.0632E+05 -1.7248E+03   1.0804E+05  0.000E+00  0.000E+00  0.000E+00  4.65031E+01  1.508E-01  2.000E+01  2.000E+04 -8.624E-02
   1   16    6     1     6    1.0804E+05 -1.1024E+03   1.0914E+05  0.000E+00  0.000E+00  0.000E+00  4.60270E+01  1.520E-01  2.000E+01  2.000E+04 -5.512E-02
   1   16    7     1     7    1.0914E+05 -1.0858E+03   1.1023E+05  0.000E+00  0.000E+00  0.000E+00  4.55506E+01  1.529E-01  2.000E+01  2.000E+04 -5.429E-02
   1   16    8     1     8    1.1023E+05 -1.0786E+03   1.1131E+05  0.000E+00  0.000E+00  0.000E+00  4.50743E+01  1.538E-01  2.000E+01  2.000E+04 -5.393E-02
   1   16    9     1     9    1.1131E+05 -1.0618E+03   1.1237E+05  0.000E+00  0.000E+00  0.000E+00  4.45979E+01  1.547E-01  2.000E+01  2.000E+04 -5.309E-02
   1   16   10     1    10    1.1237E+05 -1.0340E+03   1.1340E+05  0.000E+00  0.000E+00  0.000E+00  4.41215E+01  1.556E-01  2.000E+01  2.000E+04 -5.170E-02
   1   16   11     1    11    1.1340E+05 -1.0139E+03   1.1442E+05  0.000E+00  0.000E+00  0.000E+00  4.36450E+01  1.564E-01  2.000E+01  2.000E+04 -5.070E-02
   1   16   12     1    12    1.1442E+05 -1.6949E+03   1.1611E+05  0.000E+00  0.000E+00  0.000E+00  4.31689E+01  1.575E-01  2.000E+01  2.000E+04 -8.475E-02
   1   15   13     1    13    1.1611E+05 -1.6524E+03   1.1776E+05  0.000E+00  0.000E+00  0.000E+00  4.26930E+01  1.589E-01  2.000E+01  2.000E+04 -8.262E-02
   1   14   14     1    14    1.1776E+05 -1.9488E+03   1.1971E+05  0.000E+00  0.000E+00  0.000E+00  4.22172E+01  1.604E-01  2.000E+01  2.000E+04 -9.744E-02
   1   13   15     1    15    1.1971E+05 -2.3020E+03   1.2201E+05  0.000E+00  0.000E+00  0.000E+00  4.17416E+01  1.621E-01  2.000E+01  2.000E+04 -1.151E-01
   1   12   16     1    16    1.2201E+05 -3.1642E+03   1.2518E+05  0.000E+00  0.000E+00  0.000E+00  4.12665E+01  1.643E-01  2.000E+01  2.000E+04 -1.582E-01
   1   12   17     1    17    1.2518E+05 -1.9129E+03   1.2709E+05  0.000E+00  0.000E+00  0.000E+00  4.07913E+01  1.663E-01  2.000E+01  2.000E+04 -9.564E-02
   1   12   18     1    18    1.2709E+05 -1.7403E+03   1.2883E+05  0.000E+00  0.000E+00  0.000E+00  4.03154E+01  1.677E-01  2.000E+01  2.000E+04 -8.701E-02
   1   12   19     1    19    1.2883E+05 -2.3133E+03   1.3115E+05  0.000E+00  0.000E+00  0.000E+00  3.98398E+01  1.693E-01  2.000E+01  2.000E+04 -1.157E-01
   1   13   20     1    20    1.3115E+05 -8.1048E+02   1.3196E+05  0.000E+00  0.000E+00  0.000E+00  3.93637E+01  1.705E-01  2.000E+01  2.000E+04 -4.052E-02
   1   14   21     1    21    1.3196E+05  3.9816E+03   1.2797E+05  0.000E+00  0.000E+00  0.000E+00  3.88852E+01  1.693E-01  2.000E+01  2.000E+04  1.991E-01
   1   14   22     1    22    1.2797E+05  5.6634E+03   1.2231E+05  0.000E+00  0.000E+00  0.000E+00  3.84041E+01  1.655E-01  2.000E+01  2.000E+04  2.832E-01
   1    9   30     2     1    5.0000E+04 -4.5369E+02   5.0454E+04  0.000E+00  0.000E+00  0.000E+00  4.02412E+01  1.162E-01  2.000E+01  2.000E+04 -2.268E-02
   1    9   29     2     2    5.0454E+04 -7.7804E+02   5.1232E+04  0.000E+00  0.000E+00  0.000E+00  3.99920E+01  1.170E-01  2.000E+01  2.000E+04 -3.890E-02
   1    9   28     2     3    5.1232E+04 -1.0871E+03   5.2319E+04  0.000E+00  0.000E+00  0.000E+00  3.97433E+01  1.183E-01  2.000E+01  2.000E+04 -5.435E-02
   1    9   27     2     4    5.2319E+04 -2.4843E+03   5.4803E+04  0.000E+00  0.000E+00  0.000E+00  3.94957E+01  1.207E-01  2.000E+01  2.000E+04 -1.242E-01
   1   10   26     2     5    5.4803E+04 -1.5598E+03   5.6363E+04  0.000E+00  0.000E+00  0.000E+00  3.92485E+01  1.235E-01  2.000E+01  2.000E+04 -7.799E-02
   1   11   25     2     6    5.6363E+04 -1.3808E+03   5.7744E+04  0.000E+00  0.000E+00  0.000E+00  3.90004E+01  1.254E-01  2.000E+01  2.000E+04 -6.904E-02
   1   12   24     2     7    5.7744E+04 -1.5354E+03   5.9279E+04  0.000E+00  0.000E+00  0.000E+00  3.87523E+01  1.273E-01  2.000E+01  2.000E+04 -7.677E-02
   1   13   23     2     8    5.9279E+04 -2.4158E+02   5.9521E+04  0.000E+00  0.000E+00  0.000E+00  3.85035E+01  1.285E-01  2.000E+01  2.000E+04 -1.208E-02
   1   14   22     2     9    5.9521E+04  2.6195E+03   5.6901E+04  0.000E+00  0.000E+00  0.000E+00  3.82519E+01  1.269E-01  2.000E+01  2.000E+04  1.310E-01
   1   14   22     3     1    1.7921E+05 -7.8566E+03   1.8707E+05  0.000E+00  0.000E+00  0.000E+00  3.77281E+01  1.726E-01  2.000E+01  2.000E+04 -3.928E-01
   1   15   23     3     2    1.8707E+05  5.2158E+01   1.8702E+05  0.000E+00  0.000E+00  0.000E+00  3.68414E+01  1.748E-01  2.000E+01  2.000E+04  2.608E-03
   1   15   24     3     3    1.8702E+05 -1.8217E+02   1.8720E+05  0.000E+00  0.000E+00  0.000E+00  3.59526E+01  1.748E-01  2.000E+01  2.000E+04 -9.108E-03
   1   15   25     3     4    1.8720E+05 -1.9023E+02   1.8739E+05  0.000E+00  0.000E+00  0.000E+00  3.50638E+01  1.749E-01  2.000E+01  2.000E+04 -9.511E-03
   1   15   26     3     5    1.8739E+05 -1.6413E+02   1.8755E+05  0.000E+00  0.000E+00  0.000E+00  3.41750E+01  1.750E-01  2.000E+01  2.000E+04 -8.207E-03
   1   16   27     3     6    1.8755E+05  1.1905E+02   1.8743E+05  0.000E+00  0.000E+00  0.000E+00  3.32861E+01  1.750E-01  2.000E+01  2.000E+04  5.952E-03
   1   17   28     3     7    1.8743E+05  9.6634E+03   1.7777E+05  0.000E+00  0.000E+00  0.000E+00  3.23945E+01  1.723E-01  2.000E+01  2.000E+04  4.832E-01
   1   18   29     3     8    1.7777E+05  8.1811E+03   1.6959E+05  0.000E+00  0.000E+00  0.000E+00  3.15005E+01  1.672E-01  2.000E+01  2.000E+04  4.091E-01
   1   18   30     3     9    1.6959E+05  5.5250E+02   1.6904E+05  0.000E+00  0.000E+00  0.000E+00  3.06091E+01  1.646E-01  2.000E+01  2.000E+04  2.763E-02



1
              HEAD IN LAYER   1 AT END OF TIME STEP   1 IN STRESS PERIOD    5
  ---------------------------------------------------------------------------

          1      2      3      4      5      6      7      8      9     10
         11     12     13     14     15     16     17     18     19     20
         21     22     23     24     25     26     27     28     29     30
 .........................................................................
   1  ****** ****** ****** ****** ****** ****** ****** ****** ****** ******
      ****** ****** ****** ****** ****** ****** ****** ****** ****** ******
      ****** ****** ****** ****** ****** ****** ****** ****** ****** ******
   2  ****** ****** ****** ****** ****** ****** ****** ****** ****** ******
      ****** ****** ****** ****** ****** ****** ****** ****** ****** ******
      ****** ****** ****** ****** ****** ****** ****** ****** ****** ******
   3  ****** ****** ****** ****** ****** ****** ****** ****** ****** ******
      ****** ****** ****** ****** ****** ****** ****** ****** ****** ******
      ****** ****** ****** ****** ****** ****** ****** ****** ****** ******
   4  ****** ****** ****** ****** ****** ****** ****** ****** ****** ******
      ****** ****** ****** ****** ****** ****** ****** ****** ****** ******
      ****** ****** ****** ****** ****** ****** ****** ****** ****** ******
   5  ****** ****** ****** ****** ****** ****** ****** ****** ****** ******
      ****** ****** ****** ****** ****** ****** ****** ****** ****** ******
      ****** ****** ****** ****** ****** ****** ****** ****** ****** ******
   6  ****** ****** ****** ****** ****** ****** ****** ****** ****** ******
      ****** ****** ****** ****** ****** ****** ****** ****** ****** ******
      ****** ****** ****** ****** ****** ****** ****** ****** ****** ******
   7  ****** ****** ****** ****** ****** ****** ****** ****** ****** ******
      ****** ****** ****** ****** ****** ****** ****** ****** ****** ******
      ****** ****** ****** ****** ****** ****** ****** ****** ****** ******
   8  ****** ****** ****** ****** ****** ****** ****** ****** ****** ******
      ****** ****** ****** ****** ****** ****** ****** ****** ****** ******
      ****** ****** ****** ****** ****** ****** ****** ****** ****** ******
   9  ****** ****** ****** ****** ****** ****** ****** ****** ****** ******
      ****** ****** ****** ****** ****** ****** ****** ****** ****** ******
      ****** ****** ****** ****** ****** ****** ****** ****** ****** ******
  10  ****** ****** ****** ****** ****** ****** ****** ****** ****** ******
      ****** ****** ****** ****** ****** ****** ****** ****** ****** ******
      ****** ****** ****** ****** ****** ****** ****** ****** ****** ******
  11  ****** ****** ****** ****** ****** ****** ****** ****** ****** ******
      ****** ****** ****** ****** ****** ****** ****** ****** ****** ******
      ****** ****** ****** ****** ****** ****** ****** ****** ****** ******
  12  ****** ****** ****** ****** ****** ****** ****** ****** ****** ******
      ****** ****** ****** ****** ****** ****** ****** ****** ****** ******
      ****** ****** ****** ****** ****** ****** ****** ****** ****** ******
  13  ****** ****** ****** ****** ****** ****** ****** ****** ****** ******
      ****** ****** ****** ****** ****** ****** ****** ****** ****** ******
      ****** ****** ****** ****** ****** ****** ****** ****** ****** ******
  14  ****** ****** ****** ****** ****** ****** ****** ****** ****** ******
      ****** ****** ****** ****** ****** ****** ****** ****** ****** ******
      ****** ****** ****** ****** ****** ****** ****** ****** ****** ******
  15  ****** ****** ****** ****** ****** ****** ****** ****** ****** ******
      ****** ****** ****** ****** ****** ****** ****** ****** ****** ******
      ****** ****** ****** ****** ****** ****** ****** ****** ****** ******
  16  ****** ****** ****** ****** ****** ****** ****** ****** ****** ******
      ****** ****** ****** ****** ****** ****** ****** ****** ****** ******
      ****** ****** ****** ****** ****** ****** ****** ****** ****** ******
  17  ****** ****** ****** ****** ****** ****** ****** ****** ****** ******
      ****** ****** ****** ****** ****** ****** ****** ****** ****** ******
      ****** ****** ****** ****** ****** ****** ****** ****** ****** ******
  18  ****** ****** ****** ****** ****** ****** ****** ****** ****** ******
      ****** ****** ****** ****** ****** ****** ****** ****** ****** ******
      ****** ****** ****** ****** ****** ****** ****** ****** ****** ******
  19  ****** ****** ****** ****** ****** ****** ****** ****** ****** ******
      ****** ****** ****** ****** ****** ****** ****** ****** ****** ******
      ****** ****** ****** ****** ****** ****** ****** ****** ****** ******
  20  ****** ****** ****** ****** ****** ****** ****** ****** ****** ******
      ****** ****** ****** ****** ****** ****** ****** ****** ****** ******
      ****** ****** ****** ****** ****** ****** ****** ****** ****** ******
  21  ****** ****** ****** ****** ****** ****** ****** ****** ****** ******
      ****** ****** ****** ****** ****** ****** ****** ****** ****** ******
      ****** ****** ****** ****** ****** ****** ****** ****** ****** ******
  22  ****** ****** ****** ****** ****** ****** ****** ****** ****** ******
      ****** ****** ****** ****** ****** ****** ****** ****** ****** ******
      ****** ****** ****** ****** ****** ****** ****** ****** ****** ******
  23  ****** ****** ****** ****** ****** ****** ****** ****** ****** ******
      ****** ****** ****** ****** ****** ****** ****** ****** ****** ******
      ****** ****** ****** ****** ****** ****** ****** ****** ****** ******
  24  ****** ****** ****** ****** ****** ****** ****** ****** ****** ******
      ****** ****** ****** ****** ****** ****** ****** ****** ****** ******
      ****** ****** ****** ****** ****** ****** ****** ****** ****** ******
  25  ****** ****** ****** ****** ****** ****** ****** ****** ****** ******
      ****** ****** ****** ****** ****** ****** ****** ****** ****** ******
      ****** ****** ****** ****** ****** ****** ****** ****** ****** ******

 HEAD WILL BE SAVED ON UNIT   51 AT END OF TIME STEP    1, STRESS PERIOD    5
1
  VOLUMETRIC BUDGET FOR ENTIRE MODEL AT END OF TIME STEP    1, STRESS PERIOD   5
  ------------------------------------------------------------------------------

     CUMULATIVE VOLUMES      L**3       RATES FOR THIS TIME STEP      L**3/T
     ------------------                 ------------------------

           IN:                                      IN:
           ---                                      ---
             STORAGE =    29855303.9927               STORAGE =       17588.4273
       CONSTANT HEAD =    10187819.0557         CONSTANT HEAD =       30195.6913
               WELLS =           0.0000                 WELLS =           0.0000
            RECHARGE =    10074000.0000              RECHARGE =       13800.0000
      STREAM LEAKAGE =    11149153.7125        STREAM LEAKAGE =       30832.7313

            TOTAL IN =    61266276.7610              TOTAL IN =       92416.8500

          OUT:                                     OUT:
          ----                                     ----
             STORAGE =         873.2449               STORAGE =           0.0000
       CONSTANT HEAD =           0.0000         CONSTANT HEAD =           0.0000
               WELLS =    19444122.0371                 WELLS =       42547.3130
            RECHARGE =           0.0000              RECHARGE =           0.0000
      STREAM LEAKAGE =    41821283.6537        STREAM LEAKAGE =       49869.5398

           TOTAL OUT =    61266278.9357             TOTAL OUT =       92416.8528

            IN - OUT =          -2.1748              IN - OUT =      -2.8419E-03

 PERCENT DISCREPANCY =          -0.00     PERCENT DISCREPANCY =          -0.00






         TIME SUMMARY AT END OF TIME STEP    1 IN STRESS PERIOD    5
                    SECONDS     MINUTES      HOURS       DAYS        YEARS
                    -----------------------------------------------------------
   TIME STEP LENGTH 7.94880E+06 1.32480E+05  2208.0      92.000     0.25188    
 STRESS PERIOD TIME 7.94880E+06 1.32480E+05  2208.0      92.000     0.25188    
         TOTAL TIME 3.94848E+07 6.58080E+05  10968.      457.00      1.2512    
1
1
                            STRESS PERIOD NO.    6, LENGTH =   91.00000    
                            -----------------------------------------------

                              NUMBER OF TIME STEPS =     1

                               MULTIPLIER FOR DELT =     1.500

                            INITIAL TIME STEP SIZE =   91.00000    

 WELL NO.  LAYER   ROW   COL   STRESS RATE         
 --------------------------------------------------
      1      1     23     29      -1803.    
      2      1     18     28     -0.1266E+05
      3      1     15     21     -0.1318E+05
      4      1     17     29     -0.1491E+05

      4 WELLS

                 RECHARGE =  2.000000E-03

 REUSING STREAM SEGMENT DATA FROM LAST STRESS PERIOD
 
 SOLVING FOR HEAD 


     7 CALLS TO PCG ROUTINE FOR TIME STEP   1 IN STRESS PERIOD    6
    26 TOTAL ITERATIONS

 OUTPUT CONTROL FOR STRESS PERIOD    6   TIME STEP    1
    SAVE BUDGET
    SAVE HEAD FOR ALL LAYERS
    PRINT HEAD FOR ALL LAYERS
 UBDSV2 SAVING "STREAMFLOW OUT  " ON UNIT  50 AT TIME STEP  1, STRESS PERIOD   6



 STREAM LISTING     PERIOD      6   STEP        1

 LAYER ROW COL. STREAM  RCH.  FLOW INTO     FLOW TO   FLOW OUT OF   OVRLND.     DIRECT     STREAM       STREAM     STREAM     STREAM   STREAMBED  STREAMBED
                SEG.NO.  NO.  STRM. RCH.    AQUIFER    STRM. RCH.    RUNOFF     PRECIP       ET          HEAD       DEPTH      WIDTH   CONDCTNC.   GRADIENT

   1   13    1     1     1    1.0000E+05 -2.4797E+03   1.0248E+05  0.000E+00  0.000E+00  0.000E+00  4.84071E+01  1.457E-01  2.000E+01  2.000E+04 -1.240E-01
   1   13    2     1     2    1.0248E+05 -3.5324E+03   1.0601E+05  0.000E+00  0.000E+00  0.000E+00  4.79324E+01  1.483E-01  2.000E+01  2.000E+04 -1.766E-01
   1   14    3     1     3    1.0601E+05 -6.6631E+02   1.0668E+05  0.000E+00  0.000E+00  0.000E+00  4.74569E+01  1.501E-01  2.000E+01  2.000E+04 -3.332E-02
   1   15    4     1     4    1.0668E+05 -6.4311E+02   1.0732E+05  0.000E+00  0.000E+00  0.000E+00  4.69802E+01  1.506E-01  2.000E+01  2.000E+04 -3.216E-02
   1   16    5     1     5    1.0732E+05 -2.2226E+03   1.0954E+05  0.000E+00  0.000E+00  0.000E+00  4.65041E+01  1.519E-01  2.000E+01  2.000E+04 -1.111E-01
   1   16    6     1     6    1.0954E+05 -1.3949E+03   1.1094E+05  0.000E+00  0.000E+00  0.000E+00  4.60284E+01  1.534E-01  2.000E+01  2.000E+04 -6.974E-02
   1   16    7     1     7    1.1094E+05 -1.3630E+03   1.1230E+05  0.000E+00  0.000E+00  0.000E+00  4.55522E+01  1.545E-01  2.000E+01  2.000E+04 -6.815E-02
   1   16    8     1     8    1.1230E+05 -1.3513E+03   1.1365E+05  0.000E+00  0.000E+00  0.000E+00  4.50761E+01  1.556E-01  2.000E+01  2.000E+04 -6.756E-02
   1   16    9     1     9    1.1365E+05 -1.3337E+03   1.1499E+05  0.000E+00  0.000E+00  0.000E+00  4.45999E+01  1.567E-01  2.000E+01  2.000E+04 -6.669E-02
   1   16   10     1    10    1.1499E+05 -1.3072E+03   1.1629E+05  0.000E+00  0.000E+00  0.000E+00  4.41237E+01  1.578E-01  2.000E+01  2.000E+04 -6.536E-02
   1   16   11     1    11    1.1629E+05 -1.2898E+03   1.1758E+05  0.000E+00  0.000E+00  0.000E+00  4.36475E+01  1.589E-01  2.000E+01  2.000E+04 -6.449E-02
   1   16   12     1    12    1.1758E+05 -2.1406E+03   1.1972E+05  0.000E+00  0.000E+00  0.000E+00  4.31716E+01  1.603E-01  2.000E+01  2.000E+04 -1.070E-01
   1   15   13     1    13    1.1972E+05 -2.1118E+03   1.2184E+05  0.000E+00  0.000E+00  0.000E+00  4.26961E+01  1.620E-01  2.000E+01  2.000E+04 -1.056E-01
   1   14   14     1    14    1.2184E+05 -2.4063E+03   1.2424E+05  0.000E+00  0.000E+00  0.000E+00  4.22206E+01  1.638E-01  2.000E+01  2.000E+04 -1.203E-01
   1   13   15     1    15    1.2424E+05 -2.7431E+03   1.2699E+05  0.000E+00  0.000E+00  0.000E+00  4.17454E+01  1.659E-01  2.000E+01  2.000E+04 -1.372E-01
   1   12   16     1    16    1.2699E+05 -3.5650E+03   1.3055E+05  0.000E+00  0.000E+00  0.000E+00  4.12706E+01  1.683E-01  2.000E+01  2.000E+04 -1.783E-01
   1   12   17     1    17    1.3055E+05 -2.2350E+03   1.3279E+05  0.000E+00  0.000E+00  0.000E+00  4.07956E+01  1.706E-01  2.000E+01  2.000E+04 -1.118E-01
   1   12   18     1    18    1.3279E+05 -2.0651E+03   1.3485E+05  0.000E+00  0.000E+00  0.000E+00  4.03200E+01  1.723E-01  2.000E+01  2.000E+04 -1.033E-01
   1   12   19     1    19    1.3485E+05 -2.7177E+03   1.3757E+05  0.000E+00  0.000E+00  0.000E+00  3.98446E+01  1.741E-01  2.000E+01  2.000E+04 -1.359E-01
   1   13   20     1    20    1.3757E+05 -1.2352E+03   1.3880E+05  0.000E+00  0.000E+00  0.000E+00  3.93688E+01  1.756E-01  2.000E+01  2.000E+04 -6.176E-02
   1   14   21     1    21    1.3880E+05  3.5731E+03   1.3523E+05  0.000E+00  0.000E+00  0.000E+00  3.88906E+01  1.747E-01  2.000E+01  2.000E+04  1.787E-01
   1   14   22     1    22    1.3523E+05  5.5573E+03   1.2967E+05  0.000E+00  0.000E+00  0.000E+00  3.84099E+01  1.712E-01  2.000E+01  2.000E+04  2.779E-01
   1    9   30     2     1    5.0000E+04 -8.2111E+02   5.0821E+04  0.000E+00  0.000E+00  0.000E+00  4.02414E+01  1.164E-01  2.000E+01  2.000E+04 -4.106E-02
   1    9   29     2     2    5.0821E+04 -1.1413E+03   5.1962E+04  0.000E+00  0.000E+00  0.000E+00  3.99928E+01  1.178E-01  2.000E+01  2.000E+04 -5.707E-02
   1    9   28     2     3    5.1962E+04 -1.4443E+03   5.3407E+04  0.000E+00  0.000E+00  0.000E+00  3.97446E+01  1.196E-01  2.000E+01  2.000E+04 -7.221E-02
   1    9   27     2     4    5.3407E+04 -2.9393E+03   5.6346E+04  0.000E+00  0.000E+00  0.000E+00  3.94975E+01  1.225E-01  2.000E+01  2.000E+04 -1.470E-01
   1   10   26     2     5    5.6346E+04 -2.0370E+03   5.8383E+04  0.000E+00  0.000E+00  0.000E+00  3.92508E+01  1.258E-01  2.000E+01  2.000E+04 -1.019E-01
   1   11   25     2     6    5.8383E+04 -1.8426E+03   6.0226E+04  0.000E+00  0.000E+00  0.000E+00  3.90034E+01  1.284E-01  2.000E+01  2.000E+04 -9.213E-02
   1   12   24     2     7    6.0226E+04 -1.9521E+03   6.2178E+04  0.000E+00  0.000E+00  0.000E+00  3.87558E+01  1.308E-01  2.000E+01  2.000E+04 -9.760E-02
   1   13   23     2     8    6.2178E+04 -3.8047E+02   6.2558E+04  0.000E+00  0.000E+00  0.000E+00  3.85073E+01  1.323E-01  2.000E+01  2.000E+04 -1.902E-02
   1   14   22     2     9    6.2558E+04  2.4793E+03   6.0079E+04  0.000E+00  0.000E+00  0.000E+00  3.82560E+01  1.310E-01  2.000E+01  2.000E+04  1.240E-01
   1   14   22     3     1    1.8975E+05 -7.9589E+03   1.9771E+05  0.000E+00  0.000E+00  0.000E+00  3.77340E+01  1.785E-01  2.000E+01  2.000E+04 -3.979E-01
   1   15   23     3     2    1.9771E+05 -8.3532E+01   1.9779E+05  0.000E+00  0.000E+00  0.000E+00  3.68474E+01  1.807E-01  2.000E+01  2.000E+04 -4.177E-03
   1   15   24     3     3    1.9779E+05 -3.0290E+02   1.9810E+05  0.000E+00  0.000E+00  0.000E+00  3.59586E+01  1.808E-01  2.000E+01  2.000E+04 -1.514E-02
   1   15   25     3     4    1.9810E+05 -3.1545E+02   1.9841E+05  0.000E+00  0.000E+00  0.000E+00  3.50699E+01  1.810E-01  2.000E+01  2.000E+04 -1.577E-02
   1   15   26     3     5    1.9841E+05 -3.1463E+02   1.9873E+05  0.000E+00  0.000E+00  0.000E+00  3.41812E+01  1.812E-01  2.000E+01  2.000E+04 -1.573E-02
   1   16   27     3     6    1.9873E+05 -4.8098E+01   1.9878E+05  0.000E+00  0.000E+00  0.000E+00  3.32924E+01  1.813E-01  2.000E+01  2.000E+04 -2.405E-03
   1   17   28     3     7    1.9878E+05  9.2060E+03   1.8957E+05  0.000E+00  0.000E+00  0.000E+00  3.24010E+01  1.787E-01  2.000E+01  2.000E+04  4.603E-01
   1   18   29     3     8    1.8957E+05  7.7527E+03   1.8182E+05  0.000E+00  0.000E+00  0.000E+00  3.15073E+01  1.740E-01  2.000E+01  2.000E+04  3.876E-01
   1   18   30     3     9    1.8182E+05  2.0337E+02   1.8161E+05  0.000E+00  0.000E+00  0.000E+00  3.06162E+01  1.718E-01  2.000E+01  2.000E+04  1.017E-02



1
              HEAD IN LAYER   1 AT END OF TIME STEP   1 IN STRESS PERIOD    6
  ---------------------------------------------------------------------------

          1      2      3      4      5      6      7      8      9     10
         11     12     13     14     15     16     17     18     19     20
         21     22     23     24     25     26     27     28     29     30
 .........................................................................
   1  ****** ****** ****** ****** ****** ****** ****** ****** ****** ******
      ****** ****** ****** ****** ****** ****** ****** ****** ****** ******
      ****** ****** ****** ****** ****** ****** ****** ****** ****** ******
   2  ****** ****** ****** ****** ****** ****** ****** ****** ****** ******
      ****** ****** ****** ****** ****** ****** ****** ****** ****** ******
      ****** ****** ****** ****** ****** ****** ****** ****** ****** ******
   3  ****** ****** ****** ****** ****** ****** ****** ****** ****** ******
      ****** ****** ****** ****** ****** ****** ****** ****** ****** ******
      ****** ****** ****** ****** ****** ****** ****** ****** ****** ******
   4  ****** ****** ****** ****** ****** ****** ****** ****** ****** ******
      ****** ****** ****** ****** ****** ****** ****** ****** ****** ******
      ****** ****** ****** ****** ****** ****** ****** ****** ****** ******
   5  ****** ****** ****** ****** ****** ****** ****** ****** ****** ******
      ****** ****** ****** ****** ****** ****** ****** ****** ****** ******
      ****** ****** ****** ****** ****** ****** ****** ****** ****** ******
   6  ****** ****** ****** ****** ****** ****** ****** ****** ****** ******
      ****** ****** ****** ****** ****** ****** ****** ****** ****** ******
      ****** ****** ****** ****** ****** ****** ****** ****** ****** ******
   7  ****** ****** ****** ****** ****** ****** ****** ****** ****** ******
      ****** ****** ****** ****** ****** ****** ****** ****** ****** ******
      ****** ****** ****** ****** ****** ****** ****** ****** ****** ******
   8  ****** ****** ****** ****** ****** ****** ****** ****** ****** ******
      ****** ****** ****** ****** ****** ****** ****** ****** ****** ******
      ****** ****** ****** ****** ****** ****** ****** ****** ****** ******
   9  ****** ****** ****** ****** ****** ****** ****** ****** ****** ******
      ****** ****** ****** ****** ****** ****** ****** ****** ****** ******
      ****** ****** ****** ****** ****** ****** ****** ****** ****** ******
  10  ****** ****** ****** ****** ****** ****** ****** ****** ****** ******
      ****** ****** ****** ****** ****** ****** ****** ****** ****** ******
      ****** ****** ****** ****** ****** ****** ****** ****** ****** ******
  11  ****** ****** ****** ****** ****** ****** ****** ****** ****** ******
      ****** ****** ****** ****** ****** ****** ****** ****** ****** ******
      ****** ****** ****** ****** ****** ****** ****** ****** ****** ******
  12  ****** ****** ****** ****** ****** ****** ****** ****** ****** ******
      ****** ****** ****** ****** ****** ****** ****** ****** ****** ******
      ****** ****** ****** ****** ****** ****** ****** ****** ****** ******
  13  ****** ****** ****** ****** ****** ****** ****** ****** ****** ******
      ****** ****** ****** ****** ****** ****** ****** ****** ****** ******
      ****** ****** ****** ****** ****** ****** ****** ****** ****** ******
  14  ****** ****** ****** ****** ****** ****** ****** ****** ****** ******
      ****** ****** ****** ****** ****** ****** ****** ****** ****** ******
      ****** ****** ****** ****** ****** ****** ****** ****** ****** ******
  15  ****** ****** ****** ****** ****** ****** ****** ****** ****** ******
      ****** ****** ****** ****** ****** ****** ****** ****** ****** ******
      ****** ****** ****** ****** ****** ****** ****** ****** ****** ******
  16  ****** ****** ****** ****** ****** ****** ****** ****** ****** ******
      ****** ****** ****** ****** ****** ****** ****** ****** ****** ******
      ****** ****** ****** ****** ****** ****** ****** ****** ****** ******
  17  ****** ****** ****** ****** ****** ****** ****** ****** ****** ******
      ****** ****** ****** ****** ****** ****** ****** ****** ****** ******
      ****** ****** ****** ****** ****** ****** ****** ****** ****** ******
  18  ****** ****** ****** ****** ****** ****** ****** ****** ****** ******
      ****** ****** ****** ****** ****** ****** ****** ****** ****** ******
      ****** ****** ****** ****** ****** ****** ****** ****** ****** ******
  19  ****** ****** ****** ****** ****** ****** ****** ****** ****** ******
      ****** ****** ****** ****** ****** ****** ****** ****** ****** ******
      ****** ****** ****** ****** ****** ****** ****** ****** ****** ******
  20  ****** ****** ****** ****** ****** ****** ****** ****** ****** ******
      ****** ****** ****** ****** ****** ****** ****** ****** ****** ******
      ****** ****** ****** ****** ****** ****** ****** ****** ****** ******
  21  ****** ****** ****** ****** ****** ****** ****** ****** ****** ******
      ****** ****** ****** ****** ****** ****** ****** ****** ****** ******
      ****** ****** ****** ****** ****** ****** ****** ****** ****** ******
  22  ****** ****** ****** ****** ****** ****** ****** ****** ****** ******
      ****** ****** ****** ****** ****** ****** ****** ****** ****** ******
      ****** ****** ****** ****** ****** ****** ****** ****** ****** ******
  23  ****** ****** ****** ****** ****** ****** ****** ****** ****** ******
      ****** ****** ****** ****** ****** ****** ****** ****** ****** ******
      ****** ****** ****** ****** ****** ****** ****** ****** ****** ******
  24  ****** ****** ****** ****** ****** ****** ****** ****** ****** ******
      ****** ****** ****** ****** ****** ****** ****** ****** ****** ******
      ****** ****** ****** ****** ****** ****** ****** ****** ****** ******
  25  ****** ****** ****** ****** ****** ****** ****** ****** ****** ******
      ****** ****** ****** ****** ****** ****** ****** ****** ****** ******
      ****** ****** ****** ****** ****** ****** ****** ****** ****** ******

 HEAD WILL BE SAVED ON UNIT   51 AT END OF TIME STEP    1, STRESS PERIOD    6
1
  VOLUMETRIC BUDGET FOR ENTIRE MODEL AT END OF TIME STEP    1, STRESS PERIOD   6
  ------------------------------------------------------------------------------

     CUMULATIVE VOLUMES      L**3       RATES FOR THIS TIME STEP      L**3/T
     ------------------                 ------------------------

           IN:                                      IN:
           ---                                      ---
             STORAGE =    29855303.9927               STORAGE =           0.0000
       CONSTANT HEAD =    12756447.9593         CONSTANT HEAD =       28226.6912
               WELLS =           0.0000                 WELLS =           0.0000
            RECHARGE =    15097200.0000              RECHARGE =       55200.0000
      STREAM LEAKAGE =    13767389.4968        STREAM LEAKAGE =       28771.8218

            TOTAL IN =    71476341.4488              TOTAL IN =      112198.5131

          OUT:                                     OUT:
          ----                                     ----
             STORAGE =      844034.9865               STORAGE =        9265.5136
       CONSTANT HEAD =           0.0000         CONSTANT HEAD =           0.0000
               WELLS =    23315927.5193                 WELLS =       42547.3130
            RECHARGE =           0.0000              RECHARGE =           0.0000
      STREAM LEAKAGE =    47316380.8680        STREAM LEAKAGE =       60385.6837

           TOTAL OUT =    71476343.3737             TOTAL OUT =      112198.5103

            IN - OUT =          -1.9250              IN - OUT =       2.7451E-03

 PERCENT DISCREPANCY =          -0.00     PERCENT DISCREPANCY =           0.00






         TIME SUMMARY AT END OF TIME STEP    1 IN STRESS PERIOD    6
                    SECONDS     MINUTES      HOURS       DAYS        YEARS
                    -----------------------------------------------------------
   TIME STEP LENGTH 7.86240E+06 1.31040E+05  2184.0      91.000     0.24914    
 STRESS PERIOD TIME 7.86240E+06 1.31040E+05  2184.0      91.000     0.24914    
         TOTAL TIME 4.73472E+07 7.89120E+05  13152.      548.00      1.5003    
1
1
                            STRESS PERIOD NO.    7, LENGTH =   91.00000    
                            -----------------------------------------------

                              NUMBER OF TIME STEPS =     1

                               MULTIPLIER FOR DELT =     1.500

                            INITIAL TIME STEP SIZE =   91.00000    

 WELL NO.  LAYER   ROW   COL   STRESS RATE         
 --------------------------------------------------
      1      1     23     29      -1803.    
      2      1     18     28     -0.1266E+05
      3      1     15     21     -0.1318E+05
      4      1     17     29     -0.1491E+05

      4 WELLS

                 RECHARGE =   0.00000    

 REUSING STREAM SEGMENT DATA FROM LAST STRESS PERIOD
 
 SOLVING FOR HEAD 


     7 CALLS TO PCG ROUTINE FOR TIME STEP   1 IN STRESS PERIOD    7
    26 TOTAL ITERATIONS

 OUTPUT CONTROL FOR STRESS PERIOD    7   TIME STEP    1
    SAVE BUDGET
    SAVE HEAD FOR ALL LAYERS
    PRINT HEAD FOR ALL LAYERS
 UBDSV2 SAVING "STREAMFLOW OUT  " ON UNIT  50 AT TIME STEP  1, STRESS PERIOD   7



 STREAM LISTING     PERIOD      7   STEP        1

 LAYER ROW COL. STREAM  RCH.  FLOW INTO     FLOW TO   FLOW OUT OF   OVRLND.     DIRECT     STREAM       STREAM     STREAM     STREAM   STREAMBED  STREAMBED
                SEG.NO.  NO.  STRM. RCH.    AQUIFER    STRM. RCH.    RUNOFF     PRECIP       ET          HEAD       DEPTH      WIDTH   CONDCTNC.   GRADIENT

   1   13    1     1     1    1.0000E+05 -1.8225E+03   1.0182E+05  0.000E+00  0.000E+00  0.000E+00  4.84068E+01  1.454E-01  2.000E+01  2.000E+04 -9.113E-02
   1   13    2     1     2    1.0182E+05 -2.7973E+03   1.0462E+05  0.000E+00  0.000E+00  0.000E+00  4.79315E+01  1.474E-01  2.000E+01  2.000E+04 -1.399E-01
   1   14    3     1     3    1.0462E+05 -4.1573E+02   1.0504E+05  0.000E+00  0.000E+00  0.000E+00  4.74556E+01  1.488E-01  2.000E+01  2.000E+04 -2.079E-02
   1   15    4     1     4    1.0504E+05 -3.8148E+02   1.0542E+05  0.000E+00  0.000E+00  0.000E+00  4.69787E+01  1.491E-01  2.000E+01  2.000E+04 -1.907E-02
   1   16    5     1     5    1.0542E+05 -1.4703E+03   1.0689E+05  0.000E+00  0.000E+00  0.000E+00  4.65022E+01  1.499E-01  2.000E+01  2.000E+04 -7.351E-02
   1   16    6     1     6    1.0689E+05 -9.4147E+02   1.0783E+05  0.000E+00  0.000E+00  0.000E+00  4.60259E+01  1.509E-01  2.000E+01  2.000E+04 -4.707E-02
   1   16    7     1     7    1.0783E+05 -9.2805E+02   1.0876E+05  0.000E+00  0.000E+00  0.000E+00  4.55495E+01  1.517E-01  2.000E+01  2.000E+04 -4.640E-02
   1   16    8     1     8    1.0876E+05 -9.2216E+02   1.0968E+05  0.000E+00  0.000E+00  0.000E+00  4.50730E+01  1.525E-01  2.000E+01  2.000E+04 -4.611E-02
   1   16    9     1     9    1.0968E+05 -9.0758E+02   1.1059E+05  0.000E+00  0.000E+00  0.000E+00  4.45965E+01  1.533E-01  2.000E+01  2.000E+04 -4.538E-02
   1   16   10     1    10    1.1059E+05 -8.8320E+02   1.1147E+05  0.000E+00  0.000E+00  0.000E+00  4.41199E+01  1.540E-01  2.000E+01  2.000E+04 -4.416E-02
   1   16   11     1    11    1.1147E+05 -8.6416E+02   1.1233E+05  0.000E+00  0.000E+00  0.000E+00  4.36434E+01  1.547E-01  2.000E+01  2.000E+04 -4.321E-02
   1   16   12     1    12    1.1233E+05 -1.4254E+03   1.1376E+05  0.000E+00  0.000E+00  0.000E+00  4.31671E+01  1.557E-01  2.000E+01  2.000E+04 -7.127E-02
   1   15   13     1    13    1.1376E+05 -1.3473E+03   1.1511E+05  0.000E+00  0.000E+00  0.000E+00  4.26909E+01  1.568E-01  2.000E+01  2.000E+04 -6.737E-02
   1   14   14     1    14    1.1511E+05 -1.6162E+03   1.1672E+05  0.000E+00  0.000E+00  0.000E+00  4.22149E+01  1.581E-01  2.000E+01  2.000E+04 -8.081E-02
   1   13   15     1    15    1.1672E+05 -1.9530E+03   1.1868E+05  0.000E+00  0.000E+00  0.000E+00  4.17391E+01  1.595E-01  2.000E+01  2.000E+04 -9.765E-02
   1   12   16     1    16    1.1868E+05 -2.7850E+03   1.2146E+05  0.000E+00  0.000E+00  0.000E+00  4.12637E+01  1.614E-01  2.000E+01  2.000E+04 -1.393E-01
   1   12   17     1    17    1.2146E+05 -1.6651E+03   1.2313E+05  0.000E+00  0.000E+00  0.000E+00  4.07882E+01  1.632E-01  2.000E+01  2.000E+04 -8.326E-02
   1   12   18     1    18    1.2313E+05 -1.5084E+03   1.2463E+05  0.000E+00  0.000E+00  0.000E+00  4.03122E+01  1.645E-01  2.000E+01  2.000E+04 -7.542E-02
   1   12   19     1    19    1.2463E+05 -2.0379E+03   1.2667E+05  0.000E+00  0.000E+00  0.000E+00  3.98363E+01  1.659E-01  2.000E+01  2.000E+04 -1.019E-01
   1   13   20     1    20    1.2667E+05 -5.6815E+02   1.2724E+05  0.000E+00  0.000E+00  0.000E+00  3.93601E+01  1.669E-01  2.000E+01  2.000E+04 -2.841E-02
   1   14   21     1    21    1.2724E+05  4.2349E+03   1.2301E+05  0.000E+00  0.000E+00  0.000E+00  3.88814E+01  1.655E-01  2.000E+01  2.000E+04  2.117E-01
   1   14   22     1    22    1.2301E+05  5.7147E+03   1.1729E+05  0.000E+00  0.000E+00  0.000E+00  3.84001E+01  1.615E-01  2.000E+01  2.000E+04  2.857E-01
   1    9   30     2     1    5.0000E+04 -3.0981E+02   5.0310E+04  0.000E+00  0.000E+00  0.000E+00  4.02411E+01  1.161E-01  2.000E+01  2.000E+04 -1.549E-02
   1    9   29     2     2    5.0310E+04 -6.3197E+02   5.0942E+04  0.000E+00  0.000E+00  0.000E+00  3.99917E+01  1.167E-01  2.000E+01  2.000E+04 -3.160E-02
   1    9   28     2     3    5.0942E+04 -9.3396E+02   5.1876E+04  0.000E+00  0.000E+00  0.000E+00  3.97428E+01  1.178E-01  2.000E+01  2.000E+04 -4.670E-02
   1    9   27     2     4    5.1876E+04 -2.2478E+03   5.4124E+04  0.000E+00  0.000E+00  0.000E+00  3.94950E+01  1.200E-01  2.000E+01  2.000E+04 -1.124E-01
   1   10   26     2     5    5.4124E+04 -1.3425E+03   5.5466E+04  0.000E+00  0.000E+00  0.000E+00  3.92474E+01  1.224E-01  2.000E+01  2.000E+04 -6.712E-02
   1   11   25     2     6    5.5466E+04 -1.1763E+03   5.6642E+04  0.000E+00  0.000E+00  0.000E+00  3.89991E+01  1.241E-01  2.000E+01  2.000E+04 -5.881E-02
   1   12   24     2     7    5.6642E+04 -1.3448E+03   5.7987E+04  0.000E+00  0.000E+00  0.000E+00  3.87508E+01  1.258E-01  2.000E+01  2.000E+04 -6.724E-02
   1   13   23     2     8    5.7987E+04 -1.8923E+02   5.8176E+04  0.000E+00  0.000E+00  0.000E+00  3.85018E+01  1.268E-01  2.000E+01  2.000E+04 -9.461E-03
   1   14   22     2     9    5.8176E+04  2.7141E+03   5.5462E+04  0.000E+00  0.000E+00  0.000E+00  3.82501E+01  1.251E-01  2.000E+01  2.000E+04  1.357E-01
   1   14   22     3     1    1.7275E+05 -7.7993E+03   1.8055E+05  0.000E+00  0.000E+00  0.000E+00  3.77244E+01  1.689E-01  2.000E+01  2.000E+04 -3.900E-01
   1   15   23     3     2    1.8055E+05  1.2333E+02   1.8043E+05  0.000E+00  0.000E+00  0.000E+00  3.68377E+01  1.711E-01  2.000E+01  2.000E+04  6.167E-03
   1   15   24     3     3    1.8043E+05 -1.2890E+02   1.8056E+05  0.000E+00  0.000E+00  0.000E+00  3.59488E+01  1.711E-01  2.000E+01  2.000E+04 -6.445E-03
   1   15   25     3     4    1.8056E+05 -1.3837E+02   1.8070E+05  0.000E+00  0.000E+00  0.000E+00  3.50600E+01  1.711E-01  2.000E+01  2.000E+04 -6.918E-03
   1   15   26     3     5    1.8070E+05 -1.1316E+02   1.8081E+05  0.000E+00  0.000E+00  0.000E+00  3.41712E+01  1.712E-01  2.000E+01  2.000E+04 -5.658E-03
   1   16   27     3     6    1.8081E+05  1.8475E+02   1.8062E+05  0.000E+00  0.000E+00  0.000E+00  3.32823E+01  1.712E-01  2.000E+01  2.000E+04  9.237E-03
   1   17   28     3     7    1.8062E+05  9.8493E+03   1.7078E+05  0.000E+00  0.000E+00  0.000E+00  3.23906E+01  1.683E-01  2.000E+01  2.000E+04  4.925E-01
   1   18   29     3     8    1.7078E+05  8.4423E+03   1.6233E+05  0.000E+00  0.000E+00  0.000E+00  3.14964E+01  1.630E-01  2.000E+01  2.000E+04  4.221E-01
   1   18   30     3     9    1.6233E+05  7.3380E+02   1.6160E+05  0.000E+00  0.000E+00  0.000E+00  3.06048E+01  1.603E-01  2.000E+01  2.000E+04  3.669E-02



1
              HEAD IN LAYER   1 AT END OF TIME STEP   1 IN STRESS PERIOD    7
  ---------------------------------------------------------------------------

          1      2      3      4      5      6      7      8      9     10
         11     12     13     14     15     16     17     18     19     20
         21     22     23     24     25     26     27     28     29     30
 .........................................................................
   1  ****** ****** ****** ****** ****** ****** ****** ****** ****** ******
      ****** ****** ****** ****** ****** ****** ****** ****** ****** ******
      ****** ****** ****** ****** ****** ****** ****** ****** ****** ******
   2  ****** ****** ****** ****** ****** ****** ****** ****** ****** ******
      ****** ****** ****** ****** ****** ****** ****** ****** ****** ******
      ****** ****** ****** ****** ****** ****** ****** ****** ****** ******
   3  ****** ****** ****** ****** ****** ****** ****** ****** ****** ******
      ****** ****** ****** ****** ****** ****** ****** ****** ****** ******
      ****** ****** ****** ****** ****** ****** ****** ****** ****** ******
   4  ****** ****** ****** ****** ****** ****** ****** ****** ****** ******
      ****** ****** ****** ****** ****** ****** ****** ****** ****** ******
      ****** ****** ****** ****** ****** ****** ****** ****** ****** ******
   5  ****** ****** ****** ****** ****** ****** ****** ****** ****** ******
      ****** ****** ****** ****** ****** ****** ****** ****** ****** ******
      ****** ****** ****** ****** ****** ****** ****** ****** ****** ******
   6  ****** ****** ****** ****** ****** ****** ****** ****** ****** ******
      ****** ****** ****** ****** ****** ****** ****** ****** ****** ******
      ****** ****** ****** ****** ****** ****** ****** ****** ****** ******
   7  ****** ****** ****** ****** ****** ****** ****** ****** ****** ******
      ****** ****** ****** ****** ****** ****** ****** ****** ****** ******
      ****** ****** ****** ****** ****** ****** ****** ****** ****** ******
   8  ****** ****** ****** ****** ****** ****** ****** ****** ****** ******
      ****** ****** ****** ****** ****** ****** ****** ****** ****** ******
      ****** ****** ****** ****** ****** ****** ****** ****** ****** ******
   9  ****** ****** ****** ****** ****** ****** ****** ****** ****** ******
      ****** ****** ****** ****** ****** ****** ****** ****** ****** ******
      ****** ****** ****** ****** ****** ****** ****** ****** ****** ******
  10  ****** ****** ****** ****** ****** ****** ****** ****** ****** ******
      ****** ****** ****** ****** ****** ****** ****** ****** ****** ******
      ****** ****** ****** ****** ****** ****** ****** ****** ****** ******
  11  ****** ****** ****** ****** ****** ****** ****** ****** ****** ******
      ****** ****** ****** ****** ****** ****** ****** ****** ****** ******
      ****** ****** ****** ****** ****** ****** ****** ****** ****** ******
  12  ****** ****** ****** ****** ****** ****** ****** ****** ****** ******
      ****** ****** ****** ****** ****** ****** ****** ****** ****** ******
      ****** ****** ****** ****** ****** ****** ****** ****** ****** ******
  13  ****** ****** ****** ****** ****** ****** ****** ****** ****** ******
      ****** ****** ****** ****** ****** ****** ****** ****** ****** ******
      ****** ****** ****** ****** ****** ****** ****** ****** ****** ******
  14  ****** ****** ****** ****** ****** ****** ****** ****** ****** ******
      ****** ****** ****** ****** ****** ****** ****** ****** ****** ******
      ****** ****** ****** ****** ****** ****** ****** ****** ****** ******
  15  ****** ****** ****** ****** ****** ****** ****** ****** ****** ******
      ****** ****** ****** ****** ****** ****** ****** ****** ****** ******
      ****** ****** ****** ****** ****** ****** ****** ****** ****** ******
  16  ****** ****** ****** ****** ****** ****** ****** ****** ****** ******
      ****** ****** ****** ****** ****** ****** ****** ****** ****** ******
      ****** ****** ****** ****** ****** ****** ****** ****** ****** ******
  17  ****** ****** ****** ****** ****** ****** ****** ****** ****** ******
      ****** ****** ****** ****** ****** ****** ****** ****** ****** ******
      ****** ****** ****** ****** ****** ****** ****** ****** ****** ******
  18  ****** ****** ****** ****** ****** ****** ****** ****** ****** ******
      ****** ****** ****** ****** ****** ****** ****** ****** ****** ******
      ****** ****** ****** ****** ****** ****** ****** ****** ****** ******
  19  ****** ****** ****** ****** ****** ****** ****** ****** ****** ******
      ****** ****** ****** ****** ****** ****** ****** ****** ****** ******
      ****** ****** ****** ****** ****** ****** ****** ****** ****** ******
  20  ****** ****** ****** ****** ****** ****** ****** ****** ****** ******
      ****** ****** ****** ****** ****** ****** ****** ****** ****** ******
      ****** ****** ****** ****** ****** ****** ****** ****** ****** ******
  21  ****** ****** ****** ****** ****** ****** ****** ****** ****** ******
      ****** ****** ****** ****** ****** ****** ****** ****** ****** ******
      ****** ****** ****** ****** ****** ****** ****** ****** ****** ******
  22  ****** ****** ****** ****** ****** ****** ****** ****** ****** ******
      ****** ****** ****** ****** ****** ****** ****** ****** ****** ******
      ****** ****** ****** ****** ****** ****** ****** ****** ****** ******
  23  ****** ****** ****** ****** ****** ****** ****** ****** ****** ******
      ****** ****** ****** ****** ****** ****** ****** ****** ****** ******
      ****** ****** ****** ****** ****** ****** ****** ****** ****** ******
  24  ****** ****** ****** ****** ****** ****** ****** ****** ****** ******
      ****** ****** ****** ****** ****** ****** ****** ****** ****** ******
      ****** ****** ****** ****** ****** ****** ****** ****** ****** ******
  25  ****** ****** ****** ****** ****** ****** ****** ****** ****** ******
      ****** ****** ****** ****** ****** ****** ****** ****** ****** ******
      ****** ****** ****** ****** ****** ****** ****** ****** ****** ******

 HEAD WILL BE SAVED ON UNIT   51 AT END OF TIME STEP    1, STRESS PERIOD    7
1
  VOLUMETRIC BUDGET FOR ENTIRE MODEL AT END OF TIME STEP    1, STRESS PERIOD   7
  ------------------------------------------------------------------------------

     CUMULATIVE VOLUMES      L**3       RATES FOR THIS TIME STEP      L**3/T
     ------------------                 ------------------------

           IN:                                      IN:
           ---                                      ---
             STORAGE =    31860481.8408               STORAGE =       22034.9214
       CONSTANT HEAD =    15678610.8038         CONSTANT HEAD =       32111.6796
               WELLS =           0.0000                 WELLS =           0.0000
            RECHARGE =    15097200.0000              RECHARGE =           0.0000
      STREAM LEAKAGE =    16679128.3737        STREAM LEAKAGE =       31997.1305

            TOTAL IN =    79315421.0182              TOTAL IN =       86143.7315

          OUT:                                     OUT:
          ----                                     ----
             STORAGE =      844034.9865               STORAGE =           0.0000
       CONSTANT HEAD =           0.0000         CONSTANT HEAD =           0.0000
               WELLS =    27187733.0015                 WELLS =       42547.3130
            RECHARGE =           0.0000              RECHARGE =           0.0000
      STREAM LEAKAGE =    51283655.4201        STREAM LEAKAGE =       43596.4236

           TOTAL OUT =    79315423.4081             TOTAL OUT =       86143.7366

            IN - OUT =          -2.3899              IN - OUT =      -5.1092E-03

 PERCENT DISCREPANCY =          -0.00     PERCENT DISCREPANCY =          -0.00






         TIME SUMMARY AT END OF TIME STEP    1 IN STRESS PERIOD    7
                    SECONDS     MINUTES      HOURS       DAYS        YEARS
                    -----------------------------------------------------------
   TIME STEP LENGTH 7.86240E+06 1.31040E+05  2184.0      91.000     0.24914    
 STRESS PERIOD TIME 7.86240E+06 1.31040E+05  2184.0      91.000     0.24914    
         TOTAL TIME 5.52096E+07 9.20160E+05  15336.      639.00      1.7495    
1
1
                            STRESS PERIOD NO.    8, LENGTH =   91.00000    
                            -----------------------------------------------

                              NUMBER OF TIME STEPS =     1

                               MULTIPLIER FOR DELT =     1.500

                            INITIAL TIME STEP SIZE =   91.00000    

 WELL NO.  LAYER   ROW   COL   STRESS RATE         
 --------------------------------------------------
      1      1     23     29      -1803.    
      2      1     18     28     -0.1266E+05
      3      1     15     21     -0.1318E+05
      4      1     17     29     -0.1491E+05

      4 WELLS

                 RECHARGE =  1.000000E-03

 REUSING STREAM SEGMENT DATA FROM LAST STRESS PERIOD
 
 SOLVING FOR HEAD 


     6 CALLS TO PCG ROUTINE FOR TIME STEP   1 IN STRESS PERIOD    8
    22 TOTAL ITERATIONS

 OUTPUT CONTROL FOR STRESS PERIOD    8   TIME STEP    1
    SAVE BUDGET
    SAVE HEAD FOR ALL LAYERS
    PRINT HEAD FOR ALL LAYERS
 UBDSV2 SAVING "STREAMFLOW OUT  " ON UNIT  50 AT TIME STEP  1, STRESS PERIOD   8



 STREAM LISTING     PERIOD      8   STEP        1

 LAYER ROW COL. STREAM  RCH.  FLOW INTO     FLOW TO   FLOW OUT OF   OVRLND.     DIRECT     STREAM       STREAM     STREAM     STREAM   STREAMBED  STREAMBED
                SEG.NO.  NO.  STRM. RCH.    AQUIFER    STRM. RCH.    RUNOFF     PRECIP       ET          HEAD       DEPTH      WIDTH   CONDCTNC.   GRADIENT

   1   13    1     1     1    1.0000E+05 -1.9028E+03   1.0190E+05  0.000E+00  0.000E+00  0.000E+00  4.84068E+01  1.455E-01  2.000E+01  2.000E+04 -9.514E-02
   1   13    2     1     2    1.0190E+05 -2.8783E+03   1.0478E+05  0.000E+00  0.000E+00  0.000E+00  4.79316E+01  1.475E-01  2.000E+01  2.000E+04 -1.439E-01
   1   14    3     1     3    1.0478E+05 -4.8087E+02   1.0526E+05  0.000E+00  0.000E+00  0.000E+00  4.74558E+01  1.490E-01  2.000E+01  2.000E+04 -2.404E-02
   1   15    4     1     4    1.0526E+05 -4.5101E+02   1.0571E+05  0.000E+00  0.000E+00  0.000E+00  4.69789E+01  1.494E-01  2.000E+01  2.000E+04 -2.255E-02
   1   16    5     1     5    1.0571E+05 -1.6448E+03   1.0736E+05  0.000E+00  0.000E+00  0.000E+00  4.65025E+01  1.503E-01  2.000E+01  2.000E+04 -8.224E-02
   1   16    6     1     6    1.0736E+05 -1.0492E+03   1.0841E+05  0.000E+00  0.000E+00  0.000E+00  4.60264E+01  1.514E-01  2.000E+01  2.000E+04 -5.246E-02
   1   16    7     1     7    1.0841E+05 -1.0308E+03   1.0944E+05  0.000E+00  0.000E+00  0.000E+00  4.55500E+01  1.523E-01  2.000E+01  2.000E+04 -5.154E-02
   1   16    8     1     8    1.0944E+05 -1.0240E+03   1.1046E+05  0.000E+00  0.000E+00  0.000E+00  4.50736E+01  1.531E-01  2.000E+01  2.000E+04 -5.120E-02
   1   16    9     1     9    1.1046E+05 -1.0105E+03   1.1147E+05  0.000E+00  0.000E+00  0.000E+00  4.45972E+01  1.540E-01  2.000E+01  2.000E+04 -5.053E-02
   1   16   10     1    10    1.1147E+05 -9.8844E+02   1.1246E+05  0.000E+00  0.000E+00  0.000E+00  4.41207E+01  1.548E-01  2.000E+01  2.000E+04 -4.942E-02
   1   16   11     1    11    1.1246E+05 -9.7219E+02   1.1343E+05  0.000E+00  0.000E+00  0.000E+00  4.36443E+01  1.556E-01  2.000E+01  2.000E+04 -4.861E-02
   1   16   12     1    12    1.1343E+05 -1.5872E+03   1.1502E+05  0.000E+00  0.000E+00  0.000E+00  4.31680E+01  1.567E-01  2.000E+01  2.000E+04 -7.936E-02
   1   15   13     1    13    1.1502E+05 -1.5177E+03   1.1654E+05  0.000E+00  0.000E+00  0.000E+00  4.26920E+01  1.579E-01  2.000E+01  2.000E+04 -7.588E-02
   1   14   14     1    14    1.1654E+05 -1.7807E+03   1.1832E+05  0.000E+00  0.000E+00  0.000E+00  4.22161E+01  1.593E-01  2.000E+01  2.000E+04 -8.904E-02
   1   13   15     1    15    1.1832E+05 -2.1056E+03   1.2042E+05  0.000E+00  0.000E+00  0.000E+00  4.17404E+01  1.609E-01  2.000E+01  2.000E+04 -1.053E-01
   1   12   16     1    16    1.2042E+05 -2.9016E+03   1.2333E+05  0.000E+00  0.000E+00  0.000E+00  4.12652E+01  1.629E-01  2.000E+01  2.000E+04 -1.451E-01
   1   12   17     1    17    1.2333E+05 -1.7791E+03   1.2510E+05  0.000E+00  0.000E+00  0.000E+00  4.07898E+01  1.648E-01  2.000E+01  2.000E+04 -8.896E-02
   1   12   18     1    18    1.2510E+05 -1.6286E+03   1.2673E+05  0.000E+00  0.000E+00  0.000E+00  4.03138E+01  1.661E-01  2.000E+01  2.000E+04 -8.143E-02
   1   12   19     1    19    1.2673E+05 -2.1897E+03   1.2892E+05  0.000E+00  0.000E+00  0.000E+00  3.98381E+01  1.676E-01  2.000E+01  2.000E+04 -1.095E-01
   1   13   20     1    20    1.2892E+05 -7.4706E+02   1.2967E+05  0.000E+00  0.000E+00  0.000E+00  3.93619E+01  1.688E-01  2.000E+01  2.000E+04 -3.735E-02
   1   14   21     1    21    1.2967E+05  4.0771E+03   1.2559E+05  0.000E+00  0.000E+00  0.000E+00  3.88834E+01  1.675E-01  2.000E+01  2.000E+04  2.039E-01
   1   14   22     1    22    1.2559E+05  5.6673E+03   1.1993E+05  0.000E+00  0.000E+00  0.000E+00  3.84022E+01  1.636E-01  2.000E+01  2.000E+04  2.834E-01
   1    9   30     2     1    5.0000E+04 -4.7394E+02   5.0474E+04  0.000E+00  0.000E+00  0.000E+00  4.02412E+01  1.162E-01  2.000E+01  2.000E+04 -2.370E-02
   1    9   29     2     2    5.0474E+04 -7.9337E+02   5.1267E+04  0.000E+00  0.000E+00  0.000E+00  3.99921E+01  1.171E-01  2.000E+01  2.000E+04 -3.967E-02
   1    9   28     2     3    5.1267E+04 -1.0899E+03   5.2357E+04  0.000E+00  0.000E+00  0.000E+00  3.97434E+01  1.184E-01  2.000E+01  2.000E+04 -5.450E-02
   1    9   27     2     4    5.2357E+04 -2.4281E+03   5.4785E+04  0.000E+00  0.000E+00  0.000E+00  3.94958E+01  1.208E-01  2.000E+01  2.000E+04 -1.214E-01
   1   10   26     2     5    5.4785E+04 -1.5494E+03   5.6335E+04  0.000E+00  0.000E+00  0.000E+00  3.92484E+01  1.234E-01  2.000E+01  2.000E+04 -7.747E-02
   1   11   25     2     6    5.6335E+04 -1.3816E+03   5.7716E+04  0.000E+00  0.000E+00  0.000E+00  3.90004E+01  1.254E-01  2.000E+01  2.000E+04 -6.908E-02
   1   12   24     2     7    5.7716E+04 -1.5313E+03   5.9248E+04  0.000E+00  0.000E+00  0.000E+00  3.87523E+01  1.273E-01  2.000E+01  2.000E+04 -7.656E-02
   1   13   23     2     8    5.9248E+04 -2.6374E+02   5.9511E+04  0.000E+00  0.000E+00  0.000E+00  3.85035E+01  1.285E-01  2.000E+01  2.000E+04 -1.319E-02
   1   14   22     2     9    5.9511E+04  2.6607E+03   5.6851E+04  0.000E+00  0.000E+00  0.000E+00  3.82519E+01  1.269E-01  2.000E+01  2.000E+04  1.330E-01
   1   14   22     3     1    1.7678E+05 -7.8423E+03   1.8462E+05  0.000E+00  0.000E+00  0.000E+00  3.77267E+01  1.712E-01  2.000E+01  2.000E+04 -3.921E-01
   1   15   23     3     2    1.8462E+05  5.9495E+01   1.8456E+05  0.000E+00  0.000E+00  0.000E+00  3.68401E+01  1.734E-01  2.000E+01  2.000E+04  2.975E-03
   1   15   24     3     3    1.8456E+05 -1.8914E+02   1.8475E+05  0.000E+00  0.000E+00  0.000E+00  3.59512E+01  1.734E-01  2.000E+01  2.000E+04 -9.457E-03
   1   15   25     3     4    1.8475E+05 -2.0034E+02   1.8495E+05  0.000E+00  0.000E+00  0.000E+00  3.50624E+01  1.735E-01  2.000E+01  2.000E+04 -1.002E-02
   1   15   26     3     5    1.8495E+05 -1.8764E+02   1.8514E+05  0.000E+00  0.000E+00  0.000E+00  3.41736E+01  1.736E-01  2.000E+01  2.000E+04 -9.382E-03
   1   16   27     3     6    1.8514E+05  1.0325E+02   1.8503E+05  0.000E+00  0.000E+00  0.000E+00  3.32848E+01  1.737E-01  2.000E+01  2.000E+04  5.162E-03
   1   17   28     3     7    1.8503E+05  9.6466E+03   1.7539E+05  0.000E+00  0.000E+00  0.000E+00  3.23931E+01  1.709E-01  2.000E+01  2.000E+04  4.823E-01
   1   18   29     3     8    1.7539E+05  8.2793E+03   1.6711E+05  0.000E+00  0.000E+00  0.000E+00  3.14991E+01  1.658E-01  2.000E+01  2.000E+04  4.140E-01
   1   18   30     3     9    1.6711E+05  5.8868E+02   1.6652E+05  0.000E+00  0.000E+00  0.000E+00  3.06076E+01  1.632E-01  2.000E+01  2.000E+04  2.943E-02



1
              HEAD IN LAYER   1 AT END OF TIME STEP   1 IN STRESS PERIOD    8
  ---------------------------------------------------------------------------

          1      2      3      4      5      6      7      8      9     10
         11     12     13     14     15     16     17     18     19     20
         21     22     23     24     25     26     27     28     29     30
 .........................................................................
   1  ****** ****** ****** ****** ****** ****** ****** ****** ****** ******
      ****** ****** ****** ****** ****** ****** ****** ****** ****** ******
      ****** ****** ****** ****** ****** ****** ****** ****** ****** ******
   2  ****** ****** ****** ****** ****** ****** ****** ****** ****** ******
      ****** ****** ****** ****** ****** ****** ****** ****** ****** ******
      ****** ****** ****** ****** ****** ****** ****** ****** ****** ******
   3  ****** ****** ****** ****** ****** ****** ****** ****** ****** ******
      ****** ****** ****** ****** ****** ****** ****** ****** ****** ******
      ****** ****** ****** ****** ****** ****** ****** ****** ****** ******
   4  ****** ****** ****** ****** ****** ****** ****** ****** ****** ******
      ****** ****** ****** ****** ****** ****** ****** ****** ****** ******
      ****** ****** ****** ****** ****** ****** ****** ****** ****** ******
   5  ****** ****** ****** ****** ****** ****** ****** ****** ****** ******
      ****** ****** ****** ****** ****** ****** ****** ****** ****** ******
      ****** ****** ****** ****** ****** ****** ****** ****** ****** ******
   6  ****** ****** ****** ****** ****** ****** ****** ****** ****** ******
      ****** ****** ****** ****** ****** ****** ****** ****** ****** ******
      ****** ****** ****** ****** ****** ****** ****** ****** ****** ******
   7  ****** ****** ****** ****** ****** ****** ****** ****** ****** ******
      ****** ****** ****** ****** ****** ****** ****** ****** ****** ******
      ****** ****** ****** ****** ****** ****** ****** ****** ****** ******
   8  ****** ****** ****** ****** ****** ****** ****** ****** ****** ******
      ****** ****** ****** ****** ****** ****** ****** ****** ****** ******
      ****** ****** ****** ****** ****** ****** ****** ****** ****** ******
   9  ****** ****** ****** ****** ****** ****** ****** ****** ****** ******
      ****** ****** ****** ****** ****** ****** ****** ****** ****** ******
      ****** ****** ****** ****** ****** ****** ****** ****** ****** ******
  10  ****** ****** ****** ****** ****** ****** ****** ****** ****** ******
      ****** ****** ****** ****** ****** ****** ****** ****** ****** ******
      ****** ****** ****** ****** ****** ****** ****** ****** ****** ******
  11  ****** ****** ****** ****** ****** ****** ****** ****** ****** ******
      ****** ****** ****** ****** ****** ****** ****** ****** ****** ******
      ****** ****** ****** ****** ****** ****** ****** ****** ****** ******
  12  ****** ****** ****** ****** ****** ****** ****** ****** ****** ******
      ****** ****** ****** ****** ****** ****** ****** ****** ****** ******
      ****** ****** ****** ****** ****** ****** ****** ****** ****** ******
  13  ****** ****** ****** ****** ****** ****** ****** ****** ****** ******
      ****** ****** ****** ****** ****** ****** ****** ****** ****** ******
      ****** ****** ****** ****** ****** ****** ****** ****** ****** ******
  14  ****** ****** ****** ****** ****** ****** ****** ****** ****** ******
      ****** ****** ****** ****** ****** ****** ****** ****** ****** ******
      ****** ****** ****** ****** ****** ****** ****** ****** ****** ******
  15  ****** ****** ****** ****** ****** ****** ****** ****** ****** ******
      ****** ****** ****** ****** ****** ****** ****** ****** ****** ******
      ****** ****** ****** ****** ****** ****** ****** ****** ****** ******
  16  ****** ****** ****** ****** ****** ****** ****** ****** ****** ******
      ****** ****** ****** ****** ****** ****** ****** ****** ****** ******
      ****** ****** ****** ****** ****** ****** ****** ****** ****** ******
  17  ****** ****** ****** ****** ****** ****** ****** ****** ****** ******
      ****** ****** ****** ****** ****** ****** ****** ****** ****** ******
      ****** ****** ****** ****** ****** ****** ****** ****** ****** ******
  18  ****** ****** ****** ****** ****** ****** ****** ****** ****** ******
      ****** ****** ****** ****** ****** ****** ****** ****** ****** ******
      ****** ****** ****** ****** ****** ****** ****** ****** ****** ******
  19  ****** ****** ****** ****** ****** ****** ****** ****** ****** ******
      ****** ****** ****** ****** ****** ****** ****** ****** ****** ******
      ****** ****** ****** ****** ****** ****** ****** ****** ****** ******
  20  ****** ****** ****** ****** ****** ****** ****** ****** ****** ******
      ****** ****** ****** ****** ****** ****** ****** ****** ****** ******
      ****** ****** ****** ****** ****** ****** ****** ****** ****** ******
  21  ****** ****** ****** ****** ****** ****** ****** ****** ****** ******
      ****** ****** ****** ****** ****** ****** ****** ****** ****** ******
      ****** ****** ****** ****** ****** ****** ****** ****** ****** ******
  22  ****** ****** ****** ****** ****** ****** ****** ****** ****** ******
      ****** ****** ****** ****** ****** ****** ****** ****** ****** ******
      ****** ****** ****** ****** ****** ****** ****** ****** ****** ******
  23  ****** ****** ****** ****** ****** ****** ****** ****** ****** ******
      ****** ****** ****** ****** ****** ****** ****** ****** ****** ******
      ****** ****** ****** ****** ****** ****** ****** ****** ****** ******
  24  ****** ****** ****** ****** ****** ****** ****** ****** ****** ******
      ****** ****** ****** ****** ****** ****** ****** ****** ****** ******
      ****** ****** ****** ****** ****** ****** ****** ****** ****** ******
  25  ****** ****** ****** ****** ****** ****** ****** ****** ****** ******
      ****** ****** ****** ****** ****** ****** ****** ****** ****** ******
      ****** ****** ****** ****** ****** ****** ****** ****** ****** ******

 HEAD WILL BE SAVED ON UNIT   51 AT END OF TIME STEP    1, STRESS PERIOD    8
1
  VOLUMETRIC BUDGET FOR ENTIRE MODEL AT END OF TIME STEP    1, STRESS PERIOD   8
  ------------------------------------------------------------------------------

     CUMULATIVE VOLUMES      L**3       RATES FOR THIS TIME STEP      L**3/T
     ------------------                 ------------------------

           IN:                                      IN:
           ---                                      ---
             STORAGE =    31976121.1361               STORAGE =        1270.7615
       CONSTANT HEAD =    18571367.9689         CONSTANT HEAD =       31788.5403
               WELLS =           0.0000                 WELLS =           0.0000
            RECHARGE =    17608800.0000              RECHARGE =       27600.0000
      STREAM LEAKAGE =    19507631.5181        STREAM LEAKAGE =       31082.4521

            TOTAL IN =    87663920.6231              TOTAL IN =       91741.7539

          OUT:                                     OUT:
          ----                                     ----
             STORAGE =      989037.1771               STORAGE =        1593.4307
       CONSTANT HEAD =           0.0000         CONSTANT HEAD =           0.0000
               WELLS =    31059538.4838                 WELLS =       42547.3130
            RECHARGE =           0.0000              RECHARGE =           0.0000
      STREAM LEAKAGE =    55615346.6031        STREAM LEAKAGE =       47601.0020

           TOTAL OUT =    87663922.2640             TOTAL OUT =       91741.7457

            IN - OUT =          -1.6409              IN - OUT =       8.2310E-03

 PERCENT DISCREPANCY =          -0.00     PERCENT DISCREPANCY =           0.00






         TIME SUMMARY AT END OF TIME STEP    1 IN STRESS PERIOD    8
                    SECONDS     MINUTES      HOURS       DAYS        YEARS
                    -----------------------------------------------------------
   TIME STEP LENGTH 7.86240E+06 1.31040E+05  2184.0      91.000     0.24914    
 STRESS PERIOD TIME 7.86240E+06 1.31040E+05  2184.0      91.000     0.24914    
         TOTAL TIME 6.30720E+07 1.05120E+06  17520.      730.00      1.9986    
1
1
                            STRESS PERIOD NO.    9, LENGTH =   92.00000    
                            -----------------------------------------------

                              NUMBER OF TIME STEPS =     1

                               MULTIPLIER FOR DELT =     1.500

                            INITIAL TIME STEP SIZE =   92.00000    

 WELL NO.  LAYER   ROW   COL   STRESS RATE         
 --------------------------------------------------
      1      1     23     29      -1803.    
      2      1     18     28     -0.1266E+05
      3      1     15     21     -0.1318E+05
      4      1     17     29     -0.1491E+05

      4 WELLS

                 RECHARGE =  5.000000E-04

 REUSING STREAM SEGMENT DATA FROM LAST STRESS PERIOD
 
 SOLVING FOR HEAD 


     7 CALLS TO PCG ROUTINE FOR TIME STEP   1 IN STRESS PERIOD    9
    24 TOTAL ITERATIONS

 OUTPUT CONTROL FOR STRESS PERIOD    9   TIME STEP    1
    SAVE BUDGET
    SAVE HEAD FOR ALL LAYERS
    PRINT HEAD FOR ALL LAYERS
 UBDSV2 SAVING "STREAMFLOW OUT  " ON UNIT  50 AT TIME STEP  1, STRESS PERIOD   9



 STREAM LISTING     PERIOD      9   STEP        1

 LAYER ROW COL. STREAM  RCH.  FLOW INTO     FLOW TO   FLOW OUT OF   OVRLND.     DIRECT     STREAM       STREAM     STREAM     STREAM   STREAMBED  STREAMBED
                SEG.NO.  NO.  STRM. RCH.    AQUIFER    STRM. RCH.    RUNOFF     PRECIP       ET          HEAD       DEPTH      WIDTH   CONDCTNC.   GRADIENT

   1   13    1     1     1    1.0000E+05 -1.6936E+03   1.0169E+05  0.000E+00  0.000E+00  0.000E+00  4.84067E+01  1.454E-01  2.000E+01  2.000E+04 -8.468E-02
   1   13    2     1     2    1.0169E+05 -2.6415E+03   1.0434E+05  0.000E+00  0.000E+00  0.000E+00  4.79313E+01  1.473E-01  2.000E+01  2.000E+04 -1.321E-01
   1   14    3     1     3    1.0434E+05 -4.1091E+02   1.0475E+05  0.000E+00  0.000E+00  0.000E+00  4.74554E+01  1.486E-01  2.000E+01  2.000E+04 -2.055E-02
   1   15    4     1     4    1.0475E+05 -3.7987E+02   1.0513E+05  0.000E+00  0.000E+00  0.000E+00  4.69784E+01  1.489E-01  2.000E+01  2.000E+04 -1.899E-02
   1   16    5     1     5    1.0513E+05 -1.4529E+03   1.0658E+05  0.000E+00  0.000E+00  0.000E+00  4.65019E+01  1.497E-01  2.000E+01  2.000E+04 -7.265E-02
   1   16    6     1     6    1.0658E+05 -9.2984E+02   1.0751E+05  0.000E+00  0.000E+00  0.000E+00  4.60257E+01  1.507E-01  2.000E+01  2.000E+04 -4.649E-02
   1   16    7     1     7    1.0751E+05 -9.1524E+02   1.0842E+05  0.000E+00  0.000E+00  0.000E+00  4.55492E+01  1.515E-01  2.000E+01  2.000E+04 -4.576E-02
   1   16    8     1     8    1.0842E+05 -9.0999E+02   1.0933E+05  0.000E+00  0.000E+00  0.000E+00  4.50727E+01  1.522E-01  2.000E+01  2.000E+04 -4.550E-02
   1   16    9     1     9    1.0933E+05 -8.9799E+02   1.1023E+05  0.000E+00  0.000E+00  0.000E+00  4.45962E+01  1.530E-01  2.000E+01  2.000E+04 -4.490E-02
   1   16   10     1    10    1.1023E+05 -8.7778E+02   1.1111E+05  0.000E+00  0.000E+00  0.000E+00  4.41196E+01  1.537E-01  2.000E+01  2.000E+04 -4.389E-02
   1   16   11     1    11    1.1111E+05 -8.6233E+02   1.1197E+05  0.000E+00  0.000E+00  0.000E+00  4.36431E+01  1.544E-01  2.000E+01  2.000E+04 -4.312E-02
   1   16   12     1    12    1.1197E+05 -1.3994E+03   1.1337E+05  0.000E+00  0.000E+00  0.000E+00  4.31668E+01  1.554E-01  2.000E+01  2.000E+04 -6.997E-02
   1   15   13     1    13    1.1337E+05 -1.3099E+03   1.1468E+05  0.000E+00  0.000E+00  0.000E+00  4.26906E+01  1.565E-01  2.000E+01  2.000E+04 -6.549E-02
   1   14   14     1    14    1.1468E+05 -1.5604E+03   1.1624E+05  0.000E+00  0.000E+00  0.000E+00  4.22145E+01  1.577E-01  2.000E+01  2.000E+04 -7.802E-02
   1   13   15     1    15    1.1624E+05 -1.8803E+03   1.1812E+05  0.000E+00  0.000E+00  0.000E+00  4.17386E+01  1.591E-01  2.000E+01  2.000E+04 -9.402E-02
   1   12   16     1    16    1.1812E+05 -2.6696E+03   1.2079E+05  0.000E+00  0.000E+00  0.000E+00  4.12632E+01  1.609E-01  2.000E+01  2.000E+04 -1.335E-01
   1   12   17     1    17    1.2079E+05 -1.6189E+03   1.2241E+05  0.000E+00  0.000E+00  0.000E+00  4.07877E+01  1.627E-01  2.000E+01  2.000E+04 -8.094E-02
   1   12   18     1    18    1.2241E+05 -1.4755E+03   1.2389E+05  0.000E+00  0.000E+00  0.000E+00  4.03116E+01  1.639E-01  2.000E+01  2.000E+04 -7.377E-02
   1   12   19     1    19    1.2389E+05 -2.0053E+03   1.2589E+05  0.000E+00  0.000E+00  0.000E+00  3.98357E+01  1.653E-01  2.000E+01  2.000E+04 -1.003E-01
   1   13   20     1    20    1.2589E+05 -5.7443E+02   1.2647E+05  0.000E+00  0.000E+00  0.000E+00  3.93595E+01  1.663E-01  2.000E+01  2.000E+04 -2.872E-02
   1   14   21     1    21    1.2647E+05  4.2488E+03   1.2222E+05  0.000E+00  0.000E+00  0.000E+00  3.88808E+01  1.649E-01  2.000E+01  2.000E+04  2.124E-01
   1   14   22     1    22    1.2222E+05  5.7055E+03   1.1651E+05  0.000E+00  0.000E+00  0.000E+00  3.83995E+01  1.609E-01  2.000E+01  2.000E+04  2.853E-01
   1    9   30     2     1    5.0000E+04 -3.5135E+02   5.0351E+04  0.000E+00  0.000E+00  0.000E+00  4.02411E+01  1.161E-01  2.000E+01  2.000E+04 -1.757E-02
   1    9   29     2     2    5.0351E+04 -6.7060E+02   5.1022E+04  0.000E+00  0.000E+00  0.000E+00  3.99918E+01  1.168E-01  2.000E+01  2.000E+04 -3.353E-02
   1    9   28     2     3    5.1022E+04 -9.6542E+02   5.1987E+04  0.000E+00  0.000E+00  0.000E+00  3.97429E+01  1.179E-01  2.000E+01  2.000E+04 -4.827E-02
   1    9   27     2     4    5.1987E+04 -2.2534E+03   5.4241E+04  0.000E+00  0.000E+00  0.000E+00  3.94951E+01  1.201E-01  2.000E+01  2.000E+04 -1.127E-01
   1   10   26     2     5    5.4241E+04 -1.3773E+03   5.5618E+04  0.000E+00  0.000E+00  0.000E+00  3.92476E+01  1.226E-01  2.000E+01  2.000E+04 -6.887E-02
   1   11   25     2     6    5.5618E+04 -1.2168E+03   5.6835E+04  0.000E+00  0.000E+00  0.000E+00  3.89993E+01  1.243E-01  2.000E+01  2.000E+04 -6.084E-02
   1   12   24     2     7    5.6835E+04 -1.3798E+03   5.8215E+04  0.000E+00  0.000E+00  0.000E+00  3.87510E+01  1.260E-01  2.000E+01  2.000E+04 -6.899E-02
   1   13   23     2     8    5.8215E+04 -2.1684E+02   5.8432E+04  0.000E+00  0.000E+00  0.000E+00  3.85021E+01  1.271E-01  2.000E+01  2.000E+04 -1.084E-02
   1   14   22     2     9    5.8432E+04  2.7243E+03   5.5707E+04  0.000E+00  0.000E+00  0.000E+00  3.82504E+01  1.254E-01  2.000E+01  2.000E+04  1.362E-01
   1   14   22     3     1    1.7222E+05 -7.8019E+03   1.8002E+05  0.000E+00  0.000E+00  0.000E+00  3.77241E+01  1.686E-01  2.000E+01  2.000E+04 -3.901E-01
   1   15   23     3     2    1.8002E+05  1.1220E+02   1.7991E+05  0.000E+00  0.000E+00  0.000E+00  3.68374E+01  1.708E-01  2.000E+01  2.000E+04  5.610E-03
   1   15   24     3     3    1.7991E+05 -1.4603E+02   1.8005E+05  0.000E+00  0.000E+00  0.000E+00  3.59486E+01  1.708E-01  2.000E+01  2.000E+04 -7.302E-03
   1   15   25     3     4    1.8005E+05 -1.5698E+02   1.8021E+05  0.000E+00  0.000E+00  0.000E+00  3.50598E+01  1.709E-01  2.000E+01  2.000E+04 -7.849E-03
   1   15   26     3     5    1.8021E+05 -1.3998E+02   1.8035E+05  0.000E+00  0.000E+00  0.000E+00  3.41710E+01  1.710E-01  2.000E+01  2.000E+04 -6.999E-03
   1   16   27     3     6    1.8035E+05  1.5937E+02   1.8019E+05  0.000E+00  0.000E+00  0.000E+00  3.32821E+01  1.709E-01  2.000E+01  2.000E+04  7.968E-03
   1   17   28     3     7    1.8019E+05  9.8006E+03   1.7039E+05  0.000E+00  0.000E+00  0.000E+00  3.23903E+01  1.681E-01  2.000E+01  2.000E+04  4.900E-01
   1   18   29     3     8    1.7039E+05  8.4560E+03   1.6194E+05  0.000E+00  0.000E+00  0.000E+00  3.14961E+01  1.628E-01  2.000E+01  2.000E+04  4.228E-01
   1   18   30     3     9    1.6194E+05  7.2133E+02   1.6121E+05  0.000E+00  0.000E+00  0.000E+00  3.06045E+01  1.601E-01  2.000E+01  2.000E+04  3.607E-02



1
              HEAD IN LAYER   1 AT END OF TIME STEP   1 IN STRESS PERIOD    9
  ---------------------------------------------------------------------------

          1      2      3      4      5      6      7      8      9     10
         11     12     13     14     15     16     17     18     19     20
         21     22     23     24     25     26     27     28     29     30
 .........................................................................
   1  ****** ****** ****** ****** ****** ****** ****** ****** ****** ******
      ****** ****** ****** ****** ****** ****** ****** ****** ****** ******
      ****** ****** ****** ****** ****** ****** ****** ****** ****** ******
   2  ****** ****** ****** ****** ****** ****** ****** ****** ****** ******
      ****** ****** ****** ****** ****** ****** ****** ****** ****** ******
      ****** ****** ****** ****** ****** ****** ****** ****** ****** ******
   3  ****** ****** ****** ****** ****** ****** ****** ****** ****** ******
      ****** ****** ****** ****** ****** ****** ****** ****** ****** ******
      ****** ****** ****** ****** ****** ****** ****** ****** ****** ******
   4  ****** ****** ****** ****** ****** ****** ****** ****** ****** ******
      ****** ****** ****** ****** ****** ****** ****** ****** ****** ******
      ****** ****** ****** ****** ****** ****** ****** ****** ****** ******
   5  ****** ****** ****** ****** ****** ****** ****** ****** ****** ******
      ****** ****** ****** ****** ****** ****** ****** ****** ****** ******
      ****** ****** ****** ****** ****** ****** ****** ****** ****** ******
   6  ****** ****** ****** ****** ****** ****** ****** ****** ****** ******
      ****** ****** ****** ****** ****** ****** ****** ****** ****** ******
      ****** ****** ****** ****** ****** ****** ****** ****** ****** ******
   7  ****** ****** ****** ****** ****** ****** ****** ****** ****** ******
      ****** ****** ****** ****** ****** ****** ****** ****** ****** ******
      ****** ****** ****** ****** ****** ****** ****** ****** ****** ******
   8  ****** ****** ****** ****** ****** ****** ****** ****** ****** ******
      ****** ****** ****** ****** ****** ****** ****** ****** ****** ******
      ****** ****** ****** ****** ****** ****** ****** ****** ****** ******
   9  ****** ****** ****** ****** ****** ****** ****** ****** ****** ******
      ****** ****** ****** ****** ****** ****** ****** ****** ****** ******
      ****** ****** ****** ****** ****** ****** ****** ****** ****** ******
  10  ****** ****** ****** ****** ****** ****** ****** ****** ****** ******
      ****** ****** ****** ****** ****** ****** ****** ****** ****** ******
      ****** ****** ****** ****** ****** ****** ****** ****** ****** ******
  11  ****** ****** ****** ****** ****** ****** ****** ****** ****** ******
      ****** ****** ****** ****** ****** ****** ****** ****** ****** ******
      ****** ****** ****** ****** ****** ****** ****** ****** ****** ******
  12  ****** ****** ****** ****** ****** ****** ****** ****** ****** ******
      ****** ****** ****** ****** ****** ****** ****** ****** ****** ******
      ****** ****** ****** ****** ****** ****** ****** ****** ****** ******
  13  ****** ****** ****** ****** ****** ****** ****** ****** ****** ******
      ****** ****** ****** ****** ****** ****** ****** ****** ****** ******
      ****** ****** ****** ****** ****** ****** ****** ****** ****** ******
  14  ****** ****** ****** ****** ****** ****** ****** ****** ****** ******
      ****** ****** ****** ****** ****** ****** ****** ****** ****** ******
      ****** ****** ****** ****** ****** ****** ****** ****** ****** ******
  15  ****** ****** ****** ****** ****** ****** ****** ****** ****** ******
      ****** ****** ****** ****** ****** ****** ****** ****** ****** ******
      ****** ****** ****** ****** ****** ****** ****** ****** ****** ******
  16  ****** ****** ****** ****** ****** ****** ****** ****** ****** ******
      ****** ****** ****** ****** ****** ****** ****** ****** ****** ******
      ****** ****** ****** ****** ****** ****** ****** ****** ****** ******
  17  ****** ****** ****** ****** ****** ****** ****** ****** ****** ******
      ****** ****** ****** ****** ****** ****** ****** ****** ****** ******
      ****** ****** ****** ****** ****** ****** ****** ****** ****** ******
  18  ****** ****** ****** ****** ****** ****** ****** ****** ****** ******
      ****** ****** ****** ****** ****** ****** ****** ****** ****** ******
      ****** ****** ****** ****** ****** ****** ****** ****** ****** ******
  19  ****** ****** ****** ****** ****** ****** ****** ****** ****** ******
      ****** ****** ****** ****** ****** ****** ****** ****** ****** ******
      ****** ****** ****** ****** ****** ****** ****** ****** ****** ******
  20  ****** ****** ****** ****** ****** ****** ****** ****** ****** ******
      ****** ****** ****** ****** ****** ****** ****** ****** ****** ******
      ****** ****** ****** ****** ****** ****** ****** ****** ****** ******
  21  ****** ****** ****** ****** ****** ****** ****** ****** ****** ******
      ****** ****** ****** ****** ****** ****** ****** ****** ****** ******
      ****** ****** ****** ****** ****** ****** ****** ****** ****** ******
  22  ****** ****** ****** ****** ****** ****** ****** ****** ****** ******
      ****** ****** ****** ****** ****** ****** ****** ****** ****** ******
      ****** ****** ****** ****** ****** ****** ****** ****** ****** ******
  23  ****** ****** ****** ****** ****** ****** ****** ****** ****** ******
      ****** ****** ****** ****** ****** ****** ****** ****** ****** ******
      ****** ****** ****** ****** ****** ****** ****** ****** ****** ******
  24  ****** ****** ****** ****** ****** ****** ****** ****** ****** ******
      ****** ****** ****** ****** ****** ****** ****** ****** ****** ******
      ****** ****** ****** ****** ****** ****** ****** ****** ****** ******
  25  ****** ****** ****** ****** ****** ****** ****** ****** ****** ******
      ****** ****** ****** ****** ****** ****** ****** ****** ****** ******
      ****** ****** ****** ****** ****** ****** ****** ****** ****** ******

 HEAD WILL BE SAVED ON UNIT   51 AT END OF TIME STEP    1, STRESS PERIOD    9
1
  VOLUMETRIC BUDGET FOR ENTIRE MODEL AT END OF TIME STEP    1, STRESS PERIOD   9
  ------------------------------------------------------------------------------

     CUMULATIVE VOLUMES      L**3       RATES FOR THIS TIME STEP      L**3/T
     ------------------                 ------------------------

           IN:                                      IN:
           ---                                      ---
             STORAGE =    32622603.5392               STORAGE =        7026.9826
       CONSTANT HEAD =    21601333.3181         CONSTANT HEAD =       32934.4060
               WELLS =           0.0000                 WELLS =           0.0000
            RECHARGE =    18878400.0000              RECHARGE =       13800.0000
      STREAM LEAKAGE =    22445015.7074        STREAM LEAKAGE =       31928.0890

            TOTAL IN =    95547352.5647              TOTAL IN =       85689.4776

          OUT:                                     OUT:
          ----                                     ----
             STORAGE =      989037.1771               STORAGE =           0.0000
       CONSTANT HEAD =           0.0000         CONSTANT HEAD =           0.0000
               WELLS =    34973891.2790                 WELLS =       42547.3130
            RECHARGE =           0.0000              RECHARGE =           0.0000
      STREAM LEAKAGE =    59584425.8519        STREAM LEAKAGE =       43142.1657

           TOTAL OUT =    95547354.3080             TOTAL OUT =       85689.4787

            IN - OUT =          -1.7434              IN - OUT =      -1.1138E-03

 PERCENT DISCREPANCY =          -0.00     PERCENT DISCREPANCY =          -0.00






         TIME SUMMARY AT END OF TIME STEP    1 IN STRESS PERIOD    9
                    SECONDS     MINUTES      HOURS       DAYS        YEARS
                    -----------------------------------------------------------
   TIME STEP LENGTH 7.94880E+06 1.32480E+05  2208.0      92.000     0.25188    
 STRESS PERIOD TIME 7.94880E+06 1.32480E+05  2208.0      92.000     0.25188    
         TOTAL TIME 7.10208E+07 1.18368E+06  19728.      822.00      2.2505    
1
1
                            STRESS PERIOD NO.   10, LENGTH =   91.00000    
                            -----------------------------------------------

                              NUMBER OF TIME STEPS =     1

                               MULTIPLIER FOR DELT =     1.500

                            INITIAL TIME STEP SIZE =   91.00000    

 WELL NO.  LAYER   ROW   COL   STRESS RATE         
 --------------------------------------------------
      1      1     23     29      -1803.    
      2      1     18     28     -0.1266E+05
      3      1     15     21     -0.1318E+05
      4      1     17     29     -0.1491E+05

      4 WELLS

                 RECHARGE =  2.000000E-03

 REUSING STREAM SEGMENT DATA FROM LAST STRESS PERIOD
 
 SOLVING FOR HEAD 


     7 CALLS TO PCG ROUTINE FOR TIME STEP   1 IN STRESS PERIOD   10
    26 TOTAL ITERATIONS

 OUTPUT CONTROL FOR STRESS PERIOD   10   TIME STEP    1
    SAVE BUDGET
    SAVE HEAD FOR ALL LAYERS
    PRINT HEAD FOR ALL LAYERS
 UBDSV2 SAVING "STREAMFLOW OUT  " ON UNIT  50 AT TIME STEP  1, STRESS PERIOD  10



 STREAM LISTING     PERIOD     10   STEP        1

 LAYER ROW COL. STREAM  RCH.  FLOW INTO     FLOW TO   FLOW OUT OF   OVRLND.     DIRECT     STREAM       STREAM     STREAM     STREAM   STREAMBED  STREAMBED
                SEG.NO.  NO.  STRM. RCH.    AQUIFER    STRM. RCH.    RUNOFF     PRECIP       ET          HEAD       DEPTH      WIDTH   CONDCTNC.   GRADIENT

   1   13    1     1     1    1.0000E+05 -2.1499E+03   1.0215E+05  0.000E+00  0.000E+00  0.000E+00  4.84069E+01  1.456E-01  2.000E+01  2.000E+04 -1.075E-01
   1   13    2     1     2    1.0215E+05 -3.1475E+03   1.0530E+05  0.000E+00  0.000E+00  0.000E+00  4.79320E+01  1.479E-01  2.000E+01  2.000E+04 -1.574E-01
   1   14    3     1     3    1.0530E+05 -5.9809E+02   1.0590E+05  0.000E+00  0.000E+00  0.000E+00  4.74563E+01  1.495E-01  2.000E+01  2.000E+04 -2.990E-02
   1   15    4     1     4    1.0590E+05 -5.7982E+02   1.0648E+05  0.000E+00  0.000E+00  0.000E+00  4.69795E+01  1.500E-01  2.000E+01  2.000E+04 -2.899E-02
   1   16    5     1     5    1.0648E+05 -2.0724E+03   1.0855E+05  0.000E+00  0.000E+00  0.000E+00  4.65033E+01  1.511E-01  2.000E+01  2.000E+04 -1.036E-01
   1   16    6     1     6    1.0855E+05 -1.2926E+03   1.0984E+05  0.000E+00  0.000E+00  0.000E+00  4.60275E+01  1.525E-01  2.000E+01  2.000E+04 -6.463E-02
   1   16    7     1     7    1.0984E+05 -1.2602E+03   1.1110E+05  0.000E+00  0.000E+00  0.000E+00  4.55513E+01  1.536E-01  2.000E+01  2.000E+04 -6.301E-02
   1   16    8     1     8    1.1110E+05 -1.2495E+03   1.1235E+05  0.000E+00  0.000E+00  0.000E+00  4.50751E+01  1.546E-01  2.000E+01  2.000E+04 -6.247E-02
   1   16    9     1     9    1.1235E+05 -1.2359E+03   1.1359E+05  0.000E+00  0.000E+00  0.000E+00  4.45988E+01  1.556E-01  2.000E+01  2.000E+04 -6.179E-02
   1   16   10     1    10    1.1359E+05 -1.2157E+03   1.1480E+05  0.000E+00  0.000E+00  0.000E+00  4.41226E+01  1.566E-01  2.000E+01  2.000E+04 -6.079E-02
   1   16   11     1    11    1.1480E+05 -1.2036E+03   1.1601E+05  0.000E+00  0.000E+00  0.000E+00  4.36463E+01  1.576E-01  2.000E+01  2.000E+04 -6.018E-02
   1   16   12     1    12    1.1601E+05 -1.9692E+03   1.1797E+05  0.000E+00  0.000E+00  0.000E+00  4.31703E+01  1.589E-01  2.000E+01  2.000E+04 -9.846E-02
   1   15   13     1    13    1.1797E+05 -1.8977E+03   1.1987E+05  0.000E+00  0.000E+00  0.000E+00  4.26946E+01  1.605E-01  2.000E+01  2.000E+04 -9.488E-02
   1   14   14     1    14    1.1987E+05 -2.1561E+03   1.2203E+05  0.000E+00  0.000E+00  0.000E+00  4.22190E+01  1.621E-01  2.000E+01  2.000E+04 -1.078E-01
   1   13   15     1    15    1.2203E+05 -2.4666E+03   1.2449E+05  0.000E+00  0.000E+00  0.000E+00  4.17435E+01  1.640E-01  2.000E+01  2.000E+04 -1.233E-01
   1   12   16     1    16    1.2449E+05 -3.2354E+03   1.2773E+05  0.000E+00  0.000E+00  0.000E+00  4.12685E+01  1.663E-01  2.000E+01  2.000E+04 -1.618E-01
   1   12   17     1    17    1.2773E+05 -2.0464E+03   1.2978E+05  0.000E+00  0.000E+00  0.000E+00  4.07933E+01  1.683E-01  2.000E+01  2.000E+04 -1.023E-01
   1   12   18     1    18    1.2978E+05 -1.8985E+03   1.3168E+05  0.000E+00  0.000E+00  0.000E+00  4.03176E+01  1.699E-01  2.000E+01  2.000E+04 -9.493E-02
   1   12   19     1    19    1.3168E+05 -2.5259E+03   1.3420E+05  0.000E+00  0.000E+00  0.000E+00  3.98421E+01  1.716E-01  2.000E+01  2.000E+04 -1.263E-01
   1   13   20     1    20    1.3420E+05 -1.0965E+03   1.3530E+05  0.000E+00  0.000E+00  0.000E+00  3.93662E+01  1.730E-01  2.000E+01  2.000E+04 -5.483E-02
   1   14   21     1    21    1.3530E+05  3.7236E+03   1.3157E+05  0.000E+00  0.000E+00  0.000E+00  3.88879E+01  1.720E-01  2.000E+01  2.000E+04  1.862E-01
   1   14   22     1    22    1.3157E+05  5.5792E+03   1.2599E+05  0.000E+00  0.000E+00  0.000E+00  3.84070E+01  1.684E-01  2.000E+01  2.000E+04  2.790E-01
   1    9   30     2     1    5.0000E+04 -7.6606E+02   5.0766E+04  0.000E+00  0.000E+00  0.000E+00  4.02414E+01  1.164E-01  2.000E+01  2.000E+04 -3.830E-02
   1    9   29     2     2    5.0766E+04 -1.0831E+03   5.1849E+04  0.000E+00  0.000E+00  0.000E+00  3.99927E+01  1.177E-01  2.000E+01  2.000E+04 -5.415E-02
   1    9   28     2     3    5.1849E+04 -1.3772E+03   5.3226E+04  0.000E+00  0.000E+00  0.000E+00  3.97444E+01  1.194E-01  2.000E+01  2.000E+04 -6.886E-02
   1    9   27     2     4    5.3226E+04 -2.8077E+03   5.6034E+04  0.000E+00  0.000E+00  0.000E+00  3.94972E+01  1.222E-01  2.000E+01  2.000E+04 -1.404E-01
   1   10   26     2     5    5.6034E+04 -1.9313E+03   5.7965E+04  0.000E+00  0.000E+00  0.000E+00  3.92503E+01  1.253E-01  2.000E+01  2.000E+04 -9.657E-02
   1   11   25     2     6    5.7965E+04 -1.7463E+03   5.9712E+04  0.000E+00  0.000E+00  0.000E+00  3.90028E+01  1.278E-01  2.000E+01  2.000E+04 -8.731E-02
   1   12   24     2     7    5.9712E+04 -1.8591E+03   6.1571E+04  0.000E+00  0.000E+00  0.000E+00  3.87551E+01  1.301E-01  2.000E+01  2.000E+04 -9.296E-02
   1   13   23     2     8    6.1571E+04 -3.6571E+02   6.1936E+04  0.000E+00  0.000E+00  0.000E+00  3.85065E+01  1.315E-01  2.000E+01  2.000E+04 -1.829E-02
   1   14   22     2     9    6.1936E+04  2.5416E+03   5.9395E+04  0.000E+00  0.000E+00  0.000E+00  3.82551E+01  1.301E-01  2.000E+01  2.000E+04  1.271E-01
   1   14   22     3     1    1.8539E+05 -7.9284E+03   1.9332E+05  0.000E+00  0.000E+00  0.000E+00  3.77316E+01  1.761E-01  2.000E+01  2.000E+04 -3.964E-01
   1   15   23     3     2    1.9332E+05 -5.0283E+01   1.9337E+05  0.000E+00  0.000E+00  0.000E+00  3.68449E+01  1.783E-01  2.000E+01  2.000E+04 -2.514E-03
   1   15   24     3     3    1.9337E+05 -2.8317E+02   1.9365E+05  0.000E+00  0.000E+00  0.000E+00  3.59561E+01  1.784E-01  2.000E+01  2.000E+04 -1.416E-02
   1   15   25     3     4    1.9365E+05 -2.9753E+02   1.9395E+05  0.000E+00  0.000E+00  0.000E+00  3.50674E+01  1.785E-01  2.000E+01  2.000E+04 -1.488E-02
   1   15   26     3     5    1.9395E+05 -3.0221E+02   1.9425E+05  0.000E+00  0.000E+00  0.000E+00  3.41787E+01  1.787E-01  2.000E+01  2.000E+04 -1.511E-02
   1   16   27     3     6    1.9425E+05 -2.6460E+01   1.9428E+05  0.000E+00  0.000E+00  0.000E+00  3.32899E+01  1.788E-01  2.000E+01  2.000E+04 -1.323E-03
   1   17   28     3     7    1.9428E+05  9.2800E+03   1.8500E+05  0.000E+00  0.000E+00  0.000E+00  3.23984E+01  1.762E-01  2.000E+01  2.000E+04  4.640E-01
   1   18   29     3     8    1.8500E+05  7.9051E+03   1.7709E+05  0.000E+00  0.000E+00  0.000E+00  3.15047E+01  1.714E-01  2.000E+01  2.000E+04  3.953E-01
   1   18   30     3     9    1.7709E+05  2.9642E+02   1.7680E+05  0.000E+00  0.000E+00  0.000E+00  3.06135E+01  1.690E-01  2.000E+01  2.000E+04  1.482E-02



1
              HEAD IN LAYER   1 AT END OF TIME STEP   1 IN STRESS PERIOD   10
  ---------------------------------------------------------------------------

          1      2      3      4      5      6      7      8      9     10
         11     12     13     14     15     16     17     18     19     20
         21     22     23     24     25     26     27     28     29     30
 .........................................................................
   1  ****** ****** ****** ****** ****** ****** ****** ****** ****** ******
      ****** ****** ****** ****** ****** ****** ****** ****** ****** ******
      ****** ****** ****** ****** ****** ****** ****** ****** ****** ******
   2  ****** ****** ****** ****** ****** ****** ****** ****** ****** ******
      ****** ****** ****** ****** ****** ****** ****** ****** ****** ******
      ****** ****** ****** ****** ****** ****** ****** ****** ****** ******
   3  ****** ****** ****** ****** ****** ****** ****** ****** ****** ******
      ****** ****** ****** ****** ****** ****** ****** ****** ****** ******
      ****** ****** ****** ****** ****** ****** ****** ****** ****** ******
   4  ****** ****** ****** ****** ****** ****** ****** ****** ****** ******
      ****** ****** ****** ****** ****** ****** ****** ****** ****** ******
      ****** ****** ****** ****** ****** ****** ****** ****** ****** ******
   5  ****** ****** ****** ****** ****** ****** ****** ****** ****** ******
      ****** ****** ****** ****** ****** ****** ****** ****** ****** ******
      ****** ****** ****** ****** ****** ****** ****** ****** ****** ******
   6  ****** ****** ****** ****** ****** ****** ****** ****** ****** ******
      ****** ****** ****** ****** ****** ****** ****** ****** ****** ******
      ****** ****** ****** ****** ****** ****** ****** ****** ****** ******
   7  ****** ****** ****** ****** ****** ****** ****** ****** ****** ******
      ****** ****** ****** ****** ****** ****** ****** ****** ****** ******
      ****** ****** ****** ****** ****** ****** ****** ****** ****** ******
   8  ****** ****** ****** ****** ****** ****** ****** ****** ****** ******
      ****** ****** ****** ****** ****** ****** ****** ****** ****** ******
      ****** ****** ****** ****** ****** ****** ****** ****** ****** ******
   9  ****** ****** ****** ****** ****** ****** ****** ****** ****** ******
      ****** ****** ****** ****** ****** ****** ****** ****** ****** ******
      ****** ****** ****** ****** ****** ****** ****** ****** ****** ******
  10  ****** ****** ****** ****** ****** ****** ****** ****** ****** ******
      ****** ****** ****** ****** ****** ****** ****** ****** ****** ******
      ****** ****** ****** ****** ****** ****** ****** ****** ****** ******
  11  ****** ****** ****** ****** ****** ****** ****** ****** ****** ******
      ****** ****** ****** ****** ****** ****** ****** ****** ****** ******
      ****** ****** ****** ****** ****** ****** ****** ****** ****** ******
  12  ****** ****** ****** ****** ****** ****** ****** ****** ****** ******
      ****** ****** ****** ****** ****** ****** ****** ****** ****** ******
      ****** ****** ****** ****** ****** ****** ****** ****** ****** ******
  13  ****** ****** ****** ****** ****** ****** ****** ****** ****** ******
      ****** ****** ****** ****** ****** ****** ****** ****** ****** ******
      ****** ****** ****** ****** ****** ****** ****** ****** ****** ******
  14  ****** ****** ****** ****** ****** ****** ****** ****** ****** ******
      ****** ****** ****** ****** ****** ****** ****** ****** ****** ******
      ****** ****** ****** ****** ****** ****** ****** ****** ****** ******
  15  ****** ****** ****** ****** ****** ****** ****** ****** ****** ******
      ****** ****** ****** ****** ****** ****** ****** ****** ****** ******
      ****** ****** ****** ****** ****** ****** ****** ****** ****** ******
  16  ****** ****** ****** ****** ****** ****** ****** ****** ****** ******
      ****** ****** ****** ****** ****** ****** ****** ****** ****** ******
      ****** ****** ****** ****** ****** ****** ****** ****** ****** ******
  17  ****** ****** ****** ****** ****** ****** ****** ****** ****** ******
      ****** ****** ****** ****** ****** ****** ****** ****** ****** ******
      ****** ****** ****** ****** ****** ****** ****** ****** ****** ******
  18  ****** ****** ****** ****** ****** ****** ****** ****** ****** ******
      ****** ****** ****** ****** ****** ****** ****** ****** ****** ******
      ****** ****** ****** ****** ****** ****** ****** ****** ****** ******
  19  ****** ****** ****** ****** ****** ****** ****** ****** ****** ******
      ****** ****** ****** ****** ****** ****** ****** ****** ****** ******
      ****** ****** ****** ****** ****** ****** ****** ****** ****** ******
  20  ****** ****** ****** ****** ****** ****** ****** ****** ****** ******
      ****** ****** ****** ****** ****** ****** ****** ****** ****** ******
      ****** ****** ****** ****** ****** ****** ****** ****** ****** ******
  21  ****** ****** ****** ****** ****** ****** ****** ****** ****** ******
      ****** ****** ****** ****** ****** ****** ****** ****** ****** ******
      ****** ****** ****** ****** ****** ****** ****** ****** ****** ******
  22  ****** ****** ****** ****** ****** ****** ****** ****** ****** ******
      ****** ****** ****** ****** ****** ****** ****** ****** ****** ******
      ****** ****** ****** ****** ****** ****** ****** ****** ****** ******
  23  ****** ****** ****** ****** ****** ****** ****** ****** ****** ******
      ****** ****** ****** ****** ****** ****** ****** ****** ****** ******
      ****** ****** ****** ****** ****** ****** ****** ****** ****** ******
  24  ****** ****** ****** ****** ****** ****** ****** ****** ****** ******
      ****** ****** ****** ****** ****** ****** ****** ****** ****** ******
      ****** ****** ****** ****** ****** ****** ****** ****** ****** ******
  25  ****** ****** ****** ****** ****** ****** ****** ****** ****** ******
      ****** ****** ****** ****** ****** ****** ****** ****** ****** ******
      ****** ****** ****** ****** ****** ****** ****** ****** ****** ******

 HEAD WILL BE SAVED ON UNIT   51 AT END OF TIME STEP    1, STRESS PERIOD   10
1
  VOLUMETRIC BUDGET FOR ENTIRE MODEL AT END OF TIME STEP    1, STRESS PERIOD  10
  ------------------------------------------------------------------------------

     CUMULATIVE VOLUMES      L**3       RATES FOR THIS TIME STEP      L**3/T
     ------------------                 ------------------------

           IN:                                      IN:
           ---                                      ---
             STORAGE =    32622603.5392               STORAGE =           0.0000
       CONSTANT HEAD =    24328267.8447         CONSTANT HEAD =       29966.3135
               WELLS =           0.0000                 WELLS =           0.0000
            RECHARGE =    23901600.0000              RECHARGE =       55200.0000
      STREAM LEAKAGE =    25113678.0387        STREAM LEAKAGE =       29325.9597

            TOTAL IN =   105966149.4226              TOTAL IN =      114492.2732

          OUT:                                     OUT:
          ----                                     ----
             STORAGE =     2428928.1726               STORAGE =       15822.9780
       CONSTANT HEAD =           0.0000         CONSTANT HEAD =           0.0000
               WELLS =    38845696.7612                 WELLS =       42547.3130
            RECHARGE =           0.0000              RECHARGE =           0.0000
      STREAM LEAKAGE =    64691525.9538        STREAM LEAKAGE =       56121.9791

           TOTAL OUT =   105966150.8876             TOTAL OUT =      114492.2701

            IN - OUT =          -1.4650              IN - OUT =       3.0590E-03

 PERCENT DISCREPANCY =          -0.00     PERCENT DISCREPANCY =           0.00






         TIME SUMMARY AT END OF TIME STEP    1 IN STRESS PERIOD   10
                    SECONDS     MINUTES      HOURS       DAYS        YEARS
                    -----------------------------------------------------------
   TIME STEP LENGTH 7.86240E+06 1.31040E+05  2184.0      91.000     0.24914    
 STRESS PERIOD TIME 7.86240E+06 1.31040E+05  2184.0      91.000     0.24914    
         TOTAL TIME 7.88832E+07 1.31472E+06  21912.      913.00      2.4997    
1
1
                            STRESS PERIOD NO.   11, LENGTH =   91.00000    
                            -----------------------------------------------

                              NUMBER OF TIME STEPS =     1

                               MULTIPLIER FOR DELT =     1.500

                            INITIAL TIME STEP SIZE =   91.00000    

 WELL NO.  LAYER   ROW   COL   STRESS RATE         
 --------------------------------------------------
      1      1     23     29      -1803.    
      2      1     18     28     -0.1266E+05
      3      1     15     21     -0.1318E+05
      4      1     17     29     -0.1491E+05

      4 WELLS

                 RECHARGE =   0.00000    

 REUSING STREAM SEGMENT DATA FROM LAST STRESS PERIOD
 
 SOLVING FOR HEAD 


     7 CALLS TO PCG ROUTINE FOR TIME STEP   1 IN STRESS PERIOD   11
    26 TOTAL ITERATIONS

 OUTPUT CONTROL FOR STRESS PERIOD   11   TIME STEP    1
    SAVE BUDGET
    SAVE HEAD FOR ALL LAYERS
    PRINT HEAD FOR ALL LAYERS
 UBDSV2 SAVING "STREAMFLOW OUT  " ON UNIT  50 AT TIME STEP  1, STRESS PERIOD  11



 STREAM LISTING     PERIOD     11   STEP        1

 LAYER ROW COL. STREAM  RCH.  FLOW INTO     FLOW TO   FLOW OUT OF   OVRLND.     DIRECT     STREAM       STREAM     STREAM     STREAM   STREAMBED  STREAMBED
                SEG.NO.  NO.  STRM. RCH.    AQUIFER    STRM. RCH.    RUNOFF     PRECIP       ET          HEAD       DEPTH      WIDTH   CONDCTNC.   GRADIENT

   1   13    1     1     1    1.0000E+05 -1.5850E+03   1.0158E+05  0.000E+00  0.000E+00  0.000E+00  4.84067E+01  1.453E-01  2.000E+01  2.000E+04 -7.925E-02
   1   13    2     1     2    1.0158E+05 -2.5186E+03   1.0410E+05  0.000E+00  0.000E+00  0.000E+00  4.79312E+01  1.471E-01  2.000E+01  2.000E+04 -1.259E-01
   1   14    3     1     3    1.0410E+05 -3.6770E+02   1.0447E+05  0.000E+00  0.000E+00  0.000E+00  4.74552E+01  1.483E-01  2.000E+01  2.000E+04 -1.838E-02
   1   15    4     1     4    1.0447E+05 -3.3833E+02   1.0481E+05  0.000E+00  0.000E+00  0.000E+00  4.69782E+01  1.486E-01  2.000E+01  2.000E+04 -1.692E-02
   1   16    5     1     5    1.0481E+05 -1.3849E+03   1.0619E+05  0.000E+00  0.000E+00  0.000E+00  4.65016E+01  1.494E-01  2.000E+01  2.000E+04 -6.924E-02
   1   16    6     1     6    1.0619E+05 -8.7866E+02   1.0707E+05  0.000E+00  0.000E+00  0.000E+00  4.60253E+01  1.503E-01  2.000E+01  2.000E+04 -4.393E-02
   1   16    7     1     7    1.0707E+05 -8.6393E+02   1.0794E+05  0.000E+00  0.000E+00  0.000E+00  4.55488E+01  1.511E-01  2.000E+01  2.000E+04 -4.320E-02
   1   16    8     1     8    1.0794E+05 -8.5872E+02   1.0880E+05  0.000E+00  0.000E+00  0.000E+00  4.50723E+01  1.518E-01  2.000E+01  2.000E+04 -4.294E-02
   1   16    9     1     9    1.0880E+05 -8.4729E+02   1.0964E+05  0.000E+00  0.000E+00  0.000E+00  4.45957E+01  1.525E-01  2.000E+01  2.000E+04 -4.236E-02
   1   16   10     1    10    1.0964E+05 -8.2814E+02   1.1047E+05  0.000E+00  0.000E+00  0.000E+00  4.41191E+01  1.532E-01  2.000E+01  2.000E+04 -4.141E-02
   1   16   11     1    11    1.1047E+05 -8.1408E+02   1.1129E+05  0.000E+00  0.000E+00  0.000E+00  4.36425E+01  1.539E-01  2.000E+01  2.000E+04 -4.070E-02
   1   16   12     1    12    1.1129E+05 -1.3239E+03   1.1261E+05  0.000E+00  0.000E+00  0.000E+00  4.31661E+01  1.548E-01  2.000E+01  2.000E+04 -6.620E-02
   1   15   13     1    13    1.1261E+05 -1.2102E+03   1.1382E+05  0.000E+00  0.000E+00  0.000E+00  4.26899E+01  1.558E-01  2.000E+01  2.000E+04 -6.051E-02
   1   14   14     1    14    1.1382E+05 -1.4513E+03   1.1527E+05  0.000E+00  0.000E+00  0.000E+00  4.22137E+01  1.569E-01  2.000E+01  2.000E+04 -7.257E-02
   1   13   15     1    15    1.1527E+05 -1.7678E+03   1.1704E+05  0.000E+00  0.000E+00  0.000E+00  4.17378E+01  1.583E-01  2.000E+01  2.000E+04 -8.839E-02
   1   12   16     1    16    1.1704E+05 -2.5608E+03   1.1960E+05  0.000E+00  0.000E+00  0.000E+00  4.12623E+01  1.600E-01  2.000E+01  2.000E+04 -1.280E-01
   1   12   17     1    17    1.1960E+05 -1.5410E+03   1.2114E+05  0.000E+00  0.000E+00  0.000E+00  4.07867E+01  1.617E-01  2.000E+01  2.000E+04 -7.705E-02
   1   12   18     1    18    1.2114E+05 -1.4005E+03   1.2254E+05  0.000E+00  0.000E+00  0.000E+00  4.03106E+01  1.629E-01  2.000E+01  2.000E+04 -7.003E-02
   1   12   19     1    19    1.2254E+05 -1.9146E+03   1.2446E+05  0.000E+00  0.000E+00  0.000E+00  3.98346E+01  1.642E-01  2.000E+01  2.000E+04 -9.573E-02
   1   13   20     1    20    1.2446E+05 -4.8467E+02   1.2494E+05  0.000E+00  0.000E+00  0.000E+00  3.93583E+01  1.651E-01  2.000E+01  2.000E+04 -2.423E-02
   1   14   21     1    21    1.2494E+05  4.3205E+03   1.2062E+05  0.000E+00  0.000E+00  0.000E+00  3.88795E+01  1.636E-01  2.000E+01  2.000E+04  2.160E-01
   1   14   22     1    22    1.2062E+05  5.7252E+03   1.1489E+05  0.000E+00  0.000E+00  0.000E+00  3.83982E+01  1.596E-01  2.000E+01  2.000E+04  2.863E-01
   1    9   30     2     1    5.0000E+04 -2.7836E+02   5.0278E+04  0.000E+00  0.000E+00  0.000E+00  4.02411E+01  1.161E-01  2.000E+01  2.000E+04 -1.392E-02
   1    9   29     2     2    5.0278E+04 -5.9844E+02   5.0877E+04  0.000E+00  0.000E+00  0.000E+00  3.99917E+01  1.167E-01  2.000E+01  2.000E+04 -2.992E-02
   1    9   28     2     3    5.0877E+04 -8.9480E+02   5.1772E+04  0.000E+00  0.000E+00  0.000E+00  3.97427E+01  1.177E-01  2.000E+01  2.000E+04 -4.474E-02
   1    9   27     2     4    5.1772E+04 -2.1688E+03   5.3940E+04  0.000E+00  0.000E+00  0.000E+00  3.94948E+01  1.198E-01  2.000E+01  2.000E+04 -1.084E-01
   1   10   26     2     5    5.3940E+04 -1.2780E+03   5.5218E+04  0.000E+00  0.000E+00  0.000E+00  3.92471E+01  1.221E-01  2.000E+01  2.000E+04 -6.390E-02
   1   11   25     2     6    5.5218E+04 -1.1166E+03   5.6335E+04  0.000E+00  0.000E+00  0.000E+00  3.89987E+01  1.237E-01  2.000E+01  2.000E+04 -5.583E-02
   1   12   24     2     7    5.6335E+04 -1.2865E+03   5.7621E+04  0.000E+00  0.000E+00  0.000E+00  3.87503E+01  1.253E-01  2.000E+01  2.000E+04 -6.432E-02
   1   13   23     2     8    5.7621E+04 -1.7995E+02   5.7801E+04  0.000E+00  0.000E+00  0.000E+00  3.85013E+01  1.263E-01  2.000E+01  2.000E+04 -8.997E-03
   1   14   22     2     9    5.7801E+04  2.7529E+03   5.5048E+04  0.000E+00  0.000E+00  0.000E+00  3.82496E+01  1.246E-01  2.000E+01  2.000E+04  1.376E-01
   1   14   22     3     1    1.6994E+05 -7.7825E+03   1.7773E+05  0.000E+00  0.000E+00  0.000E+00  3.77228E+01  1.673E-01  2.000E+01  2.000E+04 -3.891E-01
   1   15   23     3     2    1.7773E+05  1.4179E+02   1.7758E+05  0.000E+00  0.000E+00  0.000E+00  3.68361E+01  1.695E-01  2.000E+01  2.000E+04  7.090E-03
   1   15   24     3     3    1.7758E+05 -1.1802E+02   1.7770E+05  0.000E+00  0.000E+00  0.000E+00  3.59472E+01  1.694E-01  2.000E+01  2.000E+04 -5.901E-03
   1   15   25     3     4    1.7770E+05 -1.2855E+02   1.7783E+05  0.000E+00  0.000E+00  0.000E+00  3.50584E+01  1.695E-01  2.000E+01  2.000E+04 -6.427E-03
   1   15   26     3     5    1.7783E+05 -1.0650E+02   1.7794E+05  0.000E+00  0.000E+00  0.000E+00  3.41696E+01  1.696E-01  2.000E+01  2.000E+04 -5.325E-03
   1   16   27     3     6    1.7794E+05  1.9660E+02   1.7774E+05  0.000E+00  0.000E+00  0.000E+00  3.32807E+01  1.696E-01  2.000E+01  2.000E+04  9.830E-03
   1   17   28     3     7    1.7774E+05  9.8899E+03   1.6785E+05  0.000E+00  0.000E+00  0.000E+00  3.23889E+01  1.667E-01  2.000E+01  2.000E+04  4.945E-01
   1   18   29     3     8    1.6785E+05  8.5270E+03   1.5932E+05  0.000E+00  0.000E+00  0.000E+00  3.14946E+01  1.613E-01  2.000E+01  2.000E+04  4.264E-01
   1   18   30     3     9    1.5932E+05  7.8542E+02   1.5854E+05  0.000E+00  0.000E+00  0.000E+00  3.06029E+01  1.585E-01  2.000E+01  2.000E+04  3.927E-02



1
              HEAD IN LAYER   1 AT END OF TIME STEP   1 IN STRESS PERIOD   11
  ---------------------------------------------------------------------------

          1      2      3      4      5      6      7      8      9     10
         11     12     13     14     15     16     17     18     19     20
         21     22     23     24     25     26     27     28     29     30
 .........................................................................
   1  ****** ****** ****** ****** ****** ****** ****** ****** ****** ******
      ****** ****** ****** ****** ****** ****** ****** ****** ****** ******
      ****** ****** ****** ****** ****** ****** ****** ****** ****** ******
   2  ****** ****** ****** ****** ****** ****** ****** ****** ****** ******
      ****** ****** ****** ****** ****** ****** ****** ****** ****** ******
      ****** ****** ****** ****** ****** ****** ****** ****** ****** ******
   3  ****** ****** ****** ****** ****** ****** ****** ****** ****** ******
      ****** ****** ****** ****** ****** ****** ****** ****** ****** ******
      ****** ****** ****** ****** ****** ****** ****** ****** ****** ******
   4  ****** ****** ****** ****** ****** ****** ****** ****** ****** ******
      ****** ****** ****** ****** ****** ****** ****** ****** ****** ******
      ****** ****** ****** ****** ****** ****** ****** ****** ****** ******
   5  ****** ****** ****** ****** ****** ****** ****** ****** ****** ******
      ****** ****** ****** ****** ****** ****** ****** ****** ****** ******
      ****** ****** ****** ****** ****** ****** ****** ****** ****** ******
   6  ****** ****** ****** ****** ****** ****** ****** ****** ****** ******
      ****** ****** ****** ****** ****** ****** ****** ****** ****** ******
      ****** ****** ****** ****** ****** ****** ****** ****** ****** ******
   7  ****** ****** ****** ****** ****** ****** ****** ****** ****** ******
      ****** ****** ****** ****** ****** ****** ****** ****** ****** ******
      ****** ****** ****** ****** ****** ****** ****** ****** ****** ******
   8  ****** ****** ****** ****** ****** ****** ****** ****** ****** ******
      ****** ****** ****** ****** ****** ****** ****** ****** ****** ******
      ****** ****** ****** ****** ****** ****** ****** ****** ****** ******
   9  ****** ****** ****** ****** ****** ****** ****** ****** ****** ******
      ****** ****** ****** ****** ****** ****** ****** ****** ****** ******
      ****** ****** ****** ****** ****** ****** ****** ****** ****** ******
  10  ****** ****** ****** ****** ****** ****** ****** ****** ****** ******
      ****** ****** ****** ****** ****** ****** ****** ****** ****** ******
      ****** ****** ****** ****** ****** ****** ****** ****** ****** ******
  11  ****** ****** ****** ****** ****** ****** ****** ****** ****** ******
      ****** ****** ****** ****** ****** ****** ****** ****** ****** ******
      ****** ****** ****** ****** ****** ****** ****** ****** ****** ******
  12  ****** ****** ****** ****** ****** ****** ****** ****** ****** ******
      ****** ****** ****** ****** ****** ****** ****** ****** ****** ******
      ****** ****** ****** ****** ****** ****** ****** ****** ****** ******
  13  ****** ****** ****** ****** ****** ****** ****** ****** ****** ******
      ****** ****** ****** ****** ****** ****** ****** ****** ****** ******
      ****** ****** ****** ****** ****** ****** ****** ****** ****** ******
  14  ****** ****** ****** ****** ****** ****** ****** ****** ****** ******
      ****** ****** ****** ****** ****** ****** ****** ****** ****** ******
      ****** ****** ****** ****** ****** ****** ****** ****** ****** ******
  15  ****** ****** ****** ****** ****** ****** ****** ****** ****** ******
      ****** ****** ****** ****** ****** ****** ****** ****** ****** ******
      ****** ****** ****** ****** ****** ****** ****** ****** ****** ******
  16  ****** ****** ****** ****** ****** ****** ****** ****** ****** ******
      ****** ****** ****** ****** ****** ****** ****** ****** ****** ******
      ****** ****** ****** ****** ****** ****** ****** ****** ****** ******
  17  ****** ****** ****** ****** ****** ****** ****** ****** ****** ******
      ****** ****** ****** ****** ****** ****** ****** ****** ****** ******
      ****** ****** ****** ****** ****** ****** ****** ****** ****** ******
  18  ****** ****** ****** ****** ****** ****** ****** ****** ****** ******
      ****** ****** ****** ****** ****** ****** ****** ****** ****** ******
      ****** ****** ****** ****** ****** ****** ****** ****** ****** ******
  19  ****** ****** ****** ****** ****** ****** ****** ****** ****** ******
      ****** ****** ****** ****** ****** ****** ****** ****** ****** ******
      ****** ****** ****** ****** ****** ****** ****** ****** ****** ******
  20  ****** ****** ****** ****** ****** ****** ****** ****** ****** ******
      ****** ****** ****** ****** ****** ****** ****** ****** ****** ******
      ****** ****** ****** ****** ****** ****** ****** ****** ****** ******
  21  ****** ****** ****** ****** ****** ****** ****** ****** ****** ******
      ****** ****** ****** ****** ****** ****** ****** ****** ****** ******
      ****** ****** ****** ****** ****** ****** ****** ****** ****** ******
  22  ****** ****** ****** ****** ****** ****** ****** ****** ****** ******
      ****** ****** ****** ****** ****** ****** ****** ****** ****** ******
      ****** ****** ****** ****** ****** ****** ****** ****** ****** ******
  23  ****** ****** ****** ****** ****** ****** ****** ****** ****** ******
      ****** ****** ****** ****** ****** ****** ****** ****** ****** ******
      ****** ****** ****** ****** ****** ****** ****** ****** ****** ******
  24  ****** ****** ****** ****** ****** ****** ****** ****** ****** ******
      ****** ****** ****** ****** ****** ****** ****** ****** ****** ******
      ****** ****** ****** ****** ****** ****** ****** ****** ****** ******
  25  ****** ****** ****** ****** ****** ****** ****** ****** ****** ******
      ****** ****** ****** ****** ****** ****** ****** ****** ****** ******
      ****** ****** ****** ****** ****** ****** ****** ****** ****** ******

 HEAD WILL BE SAVED ON UNIT   51 AT END OF TIME STEP    1, STRESS PERIOD   11
1
  VOLUMETRIC BUDGET FOR ENTIRE MODEL AT END OF TIME STEP    1, STRESS PERIOD  11
  ------------------------------------------------------------------------------

     CUMULATIVE VOLUMES      L**3       RATES FOR THIS TIME STEP      L**3/T
     ------------------                 ------------------------

           IN:                                      IN:
           ---                                      ---
             STORAGE =    34246373.1373               STORAGE =       17843.6220
       CONSTANT HEAD =    27353226.5445         CONSTANT HEAD =       33241.3044
               WELLS =           0.0000                 WELLS =           0.0000
            RECHARGE =    23901600.0000              RECHARGE =           0.0000
      STREAM LEAKAGE =    28056558.6917        STREAM LEAKAGE =       32339.3478

            TOTAL IN =   113557758.3736              TOTAL IN =       83424.2742

          OUT:                                     OUT:
          ----                                     ----
             STORAGE =     2428928.1726               STORAGE =           0.0000
       CONSTANT HEAD =           0.0000         CONSTANT HEAD =           0.0000
               WELLS =    42717502.2434                 WELLS =       42547.3130
            RECHARGE =           0.0000              RECHARGE =           0.0000
      STREAM LEAKAGE =    68411329.8349        STREAM LEAKAGE =       40876.9657

           TOTAL OUT =   113557760.2509             TOTAL OUT =       83424.2787

            IN - OUT =          -1.8774              IN - OUT =      -4.5319E-03

 PERCENT DISCREPANCY =          -0.00     PERCENT DISCREPANCY =          -0.00






         TIME SUMMARY AT END OF TIME STEP    1 IN STRESS PERIOD   11
                    SECONDS     MINUTES      HOURS       DAYS        YEARS
                    -----------------------------------------------------------
   TIME STEP LENGTH 7.86240E+06 1.31040E+05  2184.0      91.000     0.24914    
 STRESS PERIOD TIME 7.86240E+06 1.31040E+05  2184.0      91.000     0.24914    
         TOTAL TIME 8.67456E+07 1.44576E+06  24096.      1004.0      2.7488    
1
1
                            STRESS PERIOD NO.   12, LENGTH =   91.00000    
                            -----------------------------------------------

                              NUMBER OF TIME STEPS =     1

                               MULTIPLIER FOR DELT =     1.500

                            INITIAL TIME STEP SIZE =   91.00000    

 WELL NO.  LAYER   ROW   COL   STRESS RATE         
 --------------------------------------------------
      1      1     23     29      -1803.    
      2      1     18     28     -0.1266E+05
      3      1     15     21     -0.1318E+05
      4      1     17     29     -0.1491E+05

      4 WELLS

                 RECHARGE =  1.000000E-03

 REUSING STREAM SEGMENT DATA FROM LAST STRESS PERIOD
 
 SOLVING FOR HEAD 


     7 CALLS TO PCG ROUTINE FOR TIME STEP   1 IN STRESS PERIOD   12
    24 TOTAL ITERATIONS

 OUTPUT CONTROL FOR STRESS PERIOD   12   TIME STEP    1
    SAVE BUDGET
    SAVE HEAD FOR ALL LAYERS
    PRINT HEAD FOR ALL LAYERS
 UBDSV2 SAVING "STREAMFLOW OUT  " ON UNIT  50 AT TIME STEP  1, STRESS PERIOD  12



 STREAM LISTING     PERIOD     12   STEP        1

 LAYER ROW COL. STREAM  RCH.  FLOW INTO     FLOW TO   FLOW OUT OF   OVRLND.     DIRECT     STREAM       STREAM     STREAM     STREAM   STREAMBED  STREAMBED
                SEG.NO.  NO.  STRM. RCH.    AQUIFER    STRM. RCH.    RUNOFF     PRECIP       ET          HEAD       DEPTH      WIDTH   CONDCTNC.   GRADIENT

   1   13    1     1     1    1.0000E+05 -1.7313E+03   1.0173E+05  0.000E+00  0.000E+00  0.000E+00  4.84068E+01  1.454E-01  2.000E+01  2.000E+04 -8.656E-02
   1   13    2     1     2    1.0173E+05 -2.6761E+03   1.0441E+05  0.000E+00  0.000E+00  0.000E+00  4.79314E+01  1.473E-01  2.000E+01  2.000E+04 -1.338E-01
   1   14    3     1     3    1.0441E+05 -4.4663E+02   1.0485E+05  0.000E+00  0.000E+00  0.000E+00  4.74555E+01  1.486E-01  2.000E+01  2.000E+04 -2.233E-02
   1   15    4     1     4    1.0485E+05 -4.2099E+02   1.0528E+05  0.000E+00  0.000E+00  0.000E+00  4.69785E+01  1.490E-01  2.000E+01  2.000E+04 -2.105E-02
   1   16    5     1     5    1.0528E+05 -1.5949E+03   1.0687E+05  0.000E+00  0.000E+00  0.000E+00  4.65021E+01  1.499E-01  2.000E+01  2.000E+04 -7.974E-02
   1   16    6     1     6    1.0687E+05 -1.0094E+03   1.0788E+05  0.000E+00  0.000E+00  0.000E+00  4.60260E+01  1.510E-01  2.000E+01  2.000E+04 -5.047E-02
   1   16    7     1     7    1.0788E+05 -9.8962E+02   1.0887E+05  0.000E+00  0.000E+00  0.000E+00  4.55495E+01  1.518E-01  2.000E+01  2.000E+04 -4.948E-02
   1   16    8     1     8    1.0887E+05 -9.8335E+02   1.0985E+05  0.000E+00  0.000E+00  0.000E+00  4.50731E+01  1.526E-01  2.000E+01  2.000E+04 -4.917E-02
   1   16    9     1     9    1.0985E+05 -9.7231E+02   1.1082E+05  0.000E+00  0.000E+00  0.000E+00  4.45966E+01  1.534E-01  2.000E+01  2.000E+04 -4.862E-02
   1   16   10     1    10    1.1082E+05 -9.5441E+02   1.1178E+05  0.000E+00  0.000E+00  0.000E+00  4.41202E+01  1.543E-01  2.000E+01  2.000E+04 -4.772E-02
   1   16   11     1    11    1.1178E+05 -9.4249E+02   1.1272E+05  0.000E+00  0.000E+00  0.000E+00  4.36437E+01  1.550E-01  2.000E+01  2.000E+04 -4.712E-02
   1   16   12     1    12    1.1272E+05 -1.5259E+03   1.1425E+05  0.000E+00  0.000E+00  0.000E+00  4.31674E+01  1.561E-01  2.000E+01  2.000E+04 -7.629E-02
   1   15   13     1    13    1.1425E+05 -1.4279E+03   1.1568E+05  0.000E+00  0.000E+00  0.000E+00  4.26914E+01  1.573E-01  2.000E+01  2.000E+04 -7.139E-02
   1   14   14     1    14    1.1568E+05 -1.6700E+03   1.1735E+05  0.000E+00  0.000E+00  0.000E+00  4.22154E+01  1.585E-01  2.000E+01  2.000E+04 -8.350E-02
   1   13   15     1    15    1.1735E+05 -1.9794E+03   1.1932E+05  0.000E+00  0.000E+00  0.000E+00  4.17396E+01  1.600E-01  2.000E+01  2.000E+04 -9.897E-02
   1   12   16     1    16    1.1932E+05 -2.7465E+03   1.2207E+05  0.000E+00  0.000E+00  0.000E+00  4.12642E+01  1.619E-01  2.000E+01  2.000E+04 -1.373E-01
   1   12   17     1    17    1.2207E+05 -1.6955E+03   1.2377E+05  0.000E+00  0.000E+00  0.000E+00  4.07887E+01  1.637E-01  2.000E+01  2.000E+04 -8.478E-02
   1   12   18     1    18    1.2377E+05 -1.5571E+03   1.2532E+05  0.000E+00  0.000E+00  0.000E+00  4.03127E+01  1.650E-01  2.000E+01  2.000E+04 -7.786E-02
   1   12   19     1    19    1.2532E+05 -2.1081E+03   1.2743E+05  0.000E+00  0.000E+00  0.000E+00  3.98369E+01  1.665E-01  2.000E+01  2.000E+04 -1.054E-01
   1   13   20     1    20    1.2743E+05 -6.9553E+02   1.2813E+05  0.000E+00  0.000E+00  0.000E+00  3.93608E+01  1.676E-01  2.000E+01  2.000E+04 -3.478E-02
   1   14   21     1    21    1.2813E+05  4.1263E+03   1.2400E+05  0.000E+00  0.000E+00  0.000E+00  3.88821E+01  1.662E-01  2.000E+01  2.000E+04  2.063E-01
   1   14   22     1    22    1.2400E+05  5.6724E+03   1.1833E+05  0.000E+00  0.000E+00  0.000E+00  3.84009E+01  1.623E-01  2.000E+01  2.000E+04  2.836E-01
   1    9   30     2     1    5.0000E+04 -4.5501E+02   5.0455E+04  0.000E+00  0.000E+00  0.000E+00  4.02412E+01  1.162E-01  2.000E+01  2.000E+04 -2.275E-02
   1    9   29     2     2    5.0455E+04 -7.7306E+02   5.1228E+04  0.000E+00  0.000E+00  0.000E+00  3.99920E+01  1.170E-01  2.000E+01  2.000E+04 -3.865E-02
   1    9   28     2     3    5.1228E+04 -1.0660E+03   5.2294E+04  0.000E+00  0.000E+00  0.000E+00  3.97433E+01  1.183E-01  2.000E+01  2.000E+04 -5.330E-02
   1    9   27     2     4    5.2294E+04 -2.3786E+03   5.4673E+04  0.000E+00  0.000E+00  0.000E+00  3.94956E+01  1.206E-01  2.000E+01  2.000E+04 -1.189E-01
   1   10   26     2     5    5.4673E+04 -1.5083E+03   5.6181E+04  0.000E+00  0.000E+00  0.000E+00  3.92483E+01  1.233E-01  2.000E+01  2.000E+04 -7.542E-02
   1   11   25     2     6    5.6181E+04 -1.3431E+03   5.7524E+04  0.000E+00  0.000E+00  0.000E+00  3.90001E+01  1.251E-01  2.000E+01  2.000E+04 -6.715E-02
   1   12   24     2     7    5.7524E+04 -1.4932E+03   5.9017E+04  0.000E+00  0.000E+00  0.000E+00  3.87520E+01  1.270E-01  2.000E+01  2.000E+04 -7.466E-02
   1   13   23     2     8    5.9017E+04 -2.5767E+02   5.9275E+04  0.000E+00  0.000E+00  0.000E+00  3.85032E+01  1.282E-01  2.000E+01  2.000E+04 -1.288E-02
   1   14   22     2     9    5.9275E+04  2.6848E+03   5.6590E+04  0.000E+00  0.000E+00  0.000E+00  3.82516E+01  1.266E-01  2.000E+01  2.000E+04  1.342E-01
   1   14   22     3     1    1.7492E+05 -7.8329E+03   1.8275E+05  0.000E+00  0.000E+00  0.000E+00  3.77257E+01  1.701E-01  2.000E+01  2.000E+04 -3.916E-01
   1   15   23     3     2    1.8275E+05  6.9763E+01   1.8268E+05  0.000E+00  0.000E+00  0.000E+00  3.68390E+01  1.723E-01  2.000E+01  2.000E+04  3.488E-03
   1   15   24     3     3    1.8268E+05 -1.8310E+02   1.8287E+05  0.000E+00  0.000E+00  0.000E+00  3.59501E+01  1.724E-01  2.000E+01  2.000E+04 -9.155E-03
   1   15   25     3     4    1.8287E+05 -1.9491E+02   1.8306E+05  0.000E+00  0.000E+00  0.000E+00  3.50614E+01  1.725E-01  2.000E+01  2.000E+04 -9.745E-03
   1   15   26     3     5    1.8306E+05 -1.8399E+02   1.8324E+05  0.000E+00  0.000E+00  0.000E+00  3.41726E+01  1.726E-01  2.000E+01  2.000E+04 -9.199E-03
   1   16   27     3     6    1.8324E+05  1.0981E+02   1.8313E+05  0.000E+00  0.000E+00  0.000E+00  3.32837E+01  1.726E-01  2.000E+01  2.000E+04  5.490E-03
   1   17   28     3     7    1.8313E+05  9.6692E+03   1.7347E+05  0.000E+00  0.000E+00  0.000E+00  3.23920E+01  1.698E-01  2.000E+01  2.000E+04  4.835E-01
   1   18   29     3     8    1.7347E+05  8.3265E+03   1.6514E+05  0.000E+00  0.000E+00  0.000E+00  3.14980E+01  1.646E-01  2.000E+01  2.000E+04  4.163E-01
   1   18   30     3     9    1.6514E+05  6.1741E+02   1.6452E+05  0.000E+00  0.000E+00  0.000E+00  3.06064E+01  1.620E-01  2.000E+01  2.000E+04  3.087E-02



1
              HEAD IN LAYER   1 AT END OF TIME STEP   1 IN STRESS PERIOD   12
  ---------------------------------------------------------------------------

          1      2      3      4      5      6      7      8      9     10
         11     12     13     14     15     16     17     18     19     20
         21     22     23     24     25     26     27     28     29     30
 .........................................................................
   1  ****** ****** ****** ****** ****** ****** ****** ****** ****** ******
      ****** ****** ****** ****** ****** ****** ****** ****** ****** ******
      ****** ****** ****** ****** ****** ****** ****** ****** ****** ******
   2  ****** ****** ****** ****** ****** ****** ****** ****** ****** ******
      ****** ****** ****** ****** ****** ****** ****** ****** ****** ******
      ****** ****** ****** ****** ****** ****** ****** ****** ****** ******
   3  ****** ****** ****** ****** ****** ****** ****** ****** ****** ******
      ****** ****** ****** ****** ****** ****** ****** ****** ****** ******
      ****** ****** ****** ****** ****** ****** ****** ****** ****** ******
   4  ****** ****** ****** ****** ****** ****** ****** ****** ****** ******
      ****** ****** ****** ****** ****** ****** ****** ****** ****** ******
      ****** ****** ****** ****** ****** ****** ****** ****** ****** ******
   5  ****** ****** ****** ****** ****** ****** ****** ****** ****** ******
      ****** ****** ****** ****** ****** ****** ****** ****** ****** ******
      ****** ****** ****** ****** ****** ****** ****** ****** ****** ******
   6  ****** ****** ****** ****** ****** ****** ****** ****** ****** ******
      ****** ****** ****** ****** ****** ****** ****** ****** ****** ******
      ****** ****** ****** ****** ****** ****** ****** ****** ****** ******
   7  ****** ****** ****** ****** ****** ****** ****** ****** ****** ******
      ****** ****** ****** ****** ****** ****** ****** ****** ****** ******
      ****** ****** ****** ****** ****** ****** ****** ****** ****** ******
   8  ****** ****** ****** ****** ****** ****** ****** ****** ****** ******
      ****** ****** ****** ****** ****** ****** ****** ****** ****** ******
      ****** ****** ****** ****** ****** ****** ****** ****** ****** ******
   9  ****** ****** ****** ****** ****** ****** ****** ****** ****** ******
      ****** ****** ****** ****** ****** ****** ****** ****** ****** ******
      ****** ****** ****** ****** ****** ****** ****** ****** ****** ******
  10  ****** ****** ****** ****** ****** ****** ****** ****** ****** ******
      ****** ****** ****** ****** ****** ****** ****** ****** ****** ******
      ****** ****** ****** ****** ****** ****** ****** ****** ****** ******
  11  ****** ****** ****** ****** ****** ****** ****** ****** ****** ******
      ****** ****** ****** ****** ****** ****** ****** ****** ****** ******
      ****** ****** ****** ****** ****** ****** ****** ****** ****** ******
  12  ****** ****** ****** ****** ****** ****** ****** ****** ****** ******
      ****** ****** ****** ****** ****** ****** ****** ****** ****** ******
      ****** ****** ****** ****** ****** ****** ****** ****** ****** ******
  13  ****** ****** ****** ****** ****** ****** ****** ****** ****** ******
      ****** ****** ****** ****** ****** ****** ****** ****** ****** ******
      ****** ****** ****** ****** ****** ****** ****** ****** ****** ******
  14  ****** ****** ****** ****** ****** ****** ****** ****** ****** ******
      ****** ****** ****** ****** ****** ****** ****** ****** ****** ******
      ****** ****** ****** ****** ****** ****** ****** ****** ****** ******
  15  ****** ****** ****** ****** ****** ****** ****** ****** ****** ******
      ****** ****** ****** ****** ****** ****** ****** ****** ****** ******
      ****** ****** ****** ****** ****** ****** ****** ****** ****** ******
  16  ****** ****** ****** ****** ****** ****** ****** ****** ****** ******
      ****** ****** ****** ****** ****** ****** ****** ****** ****** ******
      ****** ****** ****** ****** ****** ****** ****** ****** ****** ******
  17  ****** ****** ****** ****** ****** ****** ****** ****** ****** ******
      ****** ****** ****** ****** ****** ****** ****** ****** ****** ******
      ****** ****** ****** ****** ****** ****** ****** ****** ****** ******
  18  ****** ****** ****** ****** ****** ****** ****** ****** ****** ******
      ****** ****** ****** ****** ****** ****** ****** ****** ****** ******
      ****** ****** ****** ****** ****** ****** ****** ****** ****** ******
  19  ****** ****** ****** ****** ****** ****** ****** ****** ****** ******
      ****** ****** ****** ****** ****** ****** ****** ****** ****** ******
      ****** ****** ****** ****** ****** ****** ****** ****** ****** ******
  20  ****** ****** ****** ****** ****** ****** ****** ****** ****** ******
      ****** ****** ****** ****** ****** ****** ****** ****** ****** ******
      ****** ****** ****** ****** ****** ****** ****** ****** ****** ******
  21  ****** ****** ****** ****** ****** ****** ****** ****** ****** ******
      ****** ****** ****** ****** ****** ****** ****** ****** ****** ******
      ****** ****** ****** ****** ****** ****** ****** ****** ****** ******
  22  ****** ****** ****** ****** ****** ****** ****** ****** ****** ******
      ****** ****** ****** ****** ****** ****** ****** ****** ****** ******
      ****** ****** ****** ****** ****** ****** ****** ****** ****** ******
  23  ****** ****** ****** ****** ****** ****** ****** ****** ****** ******
      ****** ****** ****** ****** ****** ****** ****** ****** ****** ******
      ****** ****** ****** ****** ****** ****** ****** ****** ****** ******
  24  ****** ****** ****** ****** ****** ****** ****** ****** ****** ******
      ****** ****** ****** ****** ****** ****** ****** ****** ****** ******
      ****** ****** ****** ****** ****** ****** ****** ****** ****** ******
  25  ****** ****** ****** ****** ****** ****** ****** ****** ****** ******
      ****** ****** ****** ****** ****** ****** ****** ****** ****** ******
      ****** ****** ****** ****** ****** ****** ****** ****** ****** ******

 HEAD WILL BE SAVED ON UNIT   51 AT END OF TIME STEP    1, STRESS PERIOD   12
1
  VOLUMETRIC BUDGET FOR ENTIRE MODEL AT END OF TIME STEP    1, STRESS PERIOD  12
  ------------------------------------------------------------------------------

     CUMULATIVE VOLUMES      L**3       RATES FOR THIS TIME STEP      L**3/T
     ------------------                 ------------------------

           IN:                                      IN:
           ---                                      ---
             STORAGE =    34246808.2632               STORAGE =           4.7816
       CONSTANT HEAD =    30314140.0995         CONSTANT HEAD =       32537.5116
               WELLS =           0.0000                 WELLS =           0.0000
            RECHARGE =    26413200.0000              RECHARGE =       27600.0000
      STREAM LEAKAGE =    30902690.7765        STREAM LEAKAGE =       31276.1768

            TOTAL IN =   121876839.1392              TOTAL IN =       91418.4700

          OUT:                                     OUT:
          ----                                     ----
             STORAGE =     2708646.5997               STORAGE =        3073.8289
       CONSTANT HEAD =           0.0000         CONSTANT HEAD =           0.0000
               WELLS =    46589307.7257                 WELLS =       42547.3130
            RECHARGE =           0.0000              RECHARGE =           0.0000
      STREAM LEAKAGE =    72578886.6060        STREAM LEAKAGE =       45797.3272

           TOTAL OUT =   121876840.9314             TOTAL OUT =       91418.4690

            IN - OUT =          -1.7922              IN - OUT =       9.3604E-04

 PERCENT DISCREPANCY =          -0.00     PERCENT DISCREPANCY =           0.00






         TIME SUMMARY AT END OF TIME STEP    1 IN STRESS PERIOD   12
                    SECONDS     MINUTES      HOURS       DAYS        YEARS
                    -----------------------------------------------------------
   TIME STEP LENGTH 7.86240E+06 1.31040E+05  2184.0      91.000     0.24914    
 STRESS PERIOD TIME 7.86240E+06 1.31040E+05  2184.0      91.000     0.24914    
         TOTAL TIME 9.46080E+07 1.57680E+06  26280.      1095.0      2.9979    
1

 Run end date and time (yyyy/mm/dd hh:mm:ss): 2019/03/14  3:15:33
 Elapsed run time:  0.100 Seconds

