                                  MODFLOW-2005     
      U.S. GEOLOGICAL SURVEY MODULAR FINITE-DIFFERENCE GROUND-WATER FLOW MODEL
                            VERSION 1.11.00 8/8/2013

 LIST FILE: supply2.lst
                         UNIT   10

 OPENING ..\data\supply.dis
 FILE TYPE:DIS   UNIT   11   STATUS:OLD    
 FORMAT:FORMATTED              ACCESS:SEQUENTIAL          

 OPENING ..\data\supply.ba6
 FILE TYPE:BAS6   UNIT   12   STATUS:OLD    
 FORMAT:FORMATTED              ACCESS:SEQUENTIAL          

 OPENING ..\data\supply_het.bc6
 FILE TYPE:BCF6   UNIT   13   STATUS:OLD    
 FORMAT:FORMATTED              ACCESS:SEQUENTIAL          

 OPENING ..\data\supply.rch
 FILE TYPE:RCH   UNIT   15   STATUS:OLD    
 FORMAT:FORMATTED              ACCESS:SEQUENTIAL          

 OPENING ..\data\supply2.sfr
 FILE TYPE:SFR   UNIT   16   STATUS:OLD    
 FORMAT:FORMATTED              ACCESS:SEQUENTIAL          

 OPENING ..\data\supply.oc
 FILE TYPE:OC   UNIT   17   STATUS:OLD    
 FORMAT:FORMATTED              ACCESS:SEQUENTIAL          

 OPENING ..\data\supply.pcg
 FILE TYPE:PCG   UNIT   18   STATUS:OLD    
 FORMAT:FORMATTED              ACCESS:SEQUENTIAL          

 OPENING supply2.wel
 FILE TYPE:WEL   UNIT   19   STATUS:OLD    
 FORMAT:FORMATTED              ACCESS:SEQUENTIAL          

 OPENING supply2sf.cbc
 FILE TYPE:DATA(BINARY)   UNIT   50   STATUS:UNKNOWN
 FORMAT:BINARY                 ACCESS:SEQUENTIAL          

 OPENING supply2hd.bhd
 FILE TYPE:DATA(BINARY)   UNIT   51   STATUS:UNKNOWN
 FORMAT:BINARY                 ACCESS:SEQUENTIAL          

 BAS -- BASIC PACKAGE, VERSION 7, 5/2/2005 INPUT READ FROM UNIT   12
 
 MODFLOW was compiled using uniform precision
 Precision of REAL and DOUBLE PRECISION variables:          15

 DISCRETIZATION INPUT DATA READ FROM UNIT   11
    1 LAYERS        25 ROWS        30 COLUMNS
   12 STRESS PERIOD(S) IN SIMULATION
 MODEL TIME UNIT IS DAYS
 MODEL LENGTH UNIT IS UNDEFINED
  Confining bed flag for each layer:
   0

                     DELR =   200.000    

                     DELC =   200.000    

 TOP ELEVATION OF LAYER 1 =  100.0000    

   MODEL LAYER BOTTOM EL. =   0.00000     FOR LAYER   1


 STRESS PERIOD     LENGTH       TIME STEPS     MULTIPLIER FOR DELT    SS FLAG
 ----------------------------------------------------------------------------
        1         92.00000          1                    1.500         TR
        2         91.00000          1                    1.500         TR
        3         91.00000          1                    1.500         TR
        4         91.00000          1                    1.500         TR
        5         92.00000          1                    1.500         TR
        6         91.00000          1                    1.500         TR
        7         91.00000          1                    1.500         TR
        8         91.00000          1                    1.500         TR
        9         92.00000          1                    1.500         TR
       10         91.00000          1                    1.500         TR
       11         91.00000          1                    1.500         TR
       12         91.00000          1                    1.500         TR

 TRANSIENT SIMULATION



 
 #MODOFC transient water supply sample problem                                   
 #                                                                               
 THE FREE FORMAT OPTION HAS BEEN SELECTED



                     BOUNDARY ARRAY FOR LAYER   1
 READING ON UNIT   12 WITH FORMAT: (20I4)              

 AQUIFER HEAD WILL BE SET TO   0.0000     AT ALL NO-FLOW NODES (IBOUND=0).



                       INITIAL HEAD FOR LAYER   1
 READING ON UNIT   12 WITH FORMAT: (10F13.0)           

 OUTPUT CONTROL IS SPECIFIED ONLY AT TIME STEPS FOR WHICH OUTPUT IS DESIRED
 COMPACT CELL-BY-CELL BUDGET FILES WILL BE WRITTEN
 HEAD PRINT FORMAT CODE IS  18    DRAWDOWN PRINT FORMAT CODE IS   0
 HEADS WILL BE SAVED ON UNIT   51    DRAWDOWNS WILL BE SAVED ON UNIT    0

 BCF -- BLOCK-CENTERED FLOW PACKAGE, VERSION 7, 5/2/2005
         INPUT READ FROM UNIT 13
 TRANSIENT SIMULATION
 HEAD AT CELLS THAT CONVERT TO DRY=   0.0000    
 WETTING CAPABILITY IS NOT ACTIVE
      LAYER  LAYER-TYPE CODE     INTERBLOCK T
      --------------------------------------------
         1            0          0 -- HARMONIC    

 COLUMN TO ROW ANISOTROPY =  1.000000    

     PRIMARY STORAGE COEF =  5.000000E-02 FOR LAYER   1



               TRANSMIS. ALONG ROWS FOR LAYER   1
 READING ON UNIT   13 WITH FORMAT: (FREE)              

 WEL -- WELL PACKAGE, VERSION 7, 5/2/2005 INPUT READ FROM UNIT   19
 # Well package input file written by MMProc
 No named parameters
 MAXIMUM OF      4 ACTIVE WELLS AT ONE TIME


     0 Well parameters

 RCH -- RECHARGE PACKAGE, VERSION 7, 5/2/2005 INPUT READ FROM UNIT   15
 No named parameters
 OPTION 1 -- RECHARGE TO TOP LAYER


     0 Recharge parameters

 SFR7 -- STREAMFLOW ROUTING PACKAGE, VERSION 1.0.7, 2013-01-15
         INPUT READ FROM UNIT  16
 #  Supply2 test problem for GWM-VI
 #  The eighth entry in the first data line is ISTCB2 -
 #    Setting this to a negative number indicates that
 #    streamflows out of the reach will be saved to a
 #    binary file.  The absolute value of ISTCB2 is the
 #    unit to which unformatted flows will be written.
 #
 No named parameters
 Segment information will not be 
 read by reach
 No named parameters
 No specifed inflow files


 NUMBER OF STREAM REACHES IS   40

 NUMBER OF STREAM SEGMENTS IS    3

 NUMBER OF STREAM PARAMETERS IS    0

 NUMBER OF STREAM SEGMENTS DEFINED USING PARAMETERS IS              0

 MAXIMUM ERROR FOR STREAM LEAKAGE RATES IS  1.00E-04

 CONSTANT FOR MANNINGS EQUATION IS  1.2839E+05





   STREAM NETWORK DESCRIPTION: 

   LAYER    ROW    COL   SEGMENT   REACH     LENGTH
                          NUMBER   NUMBER    IN CELL        
   --------------------------------------------------
      1     13      1       1        1    2.0000E+02
      1     13      2       1        2    2.0000E+02
      1     14      3       1        3    2.0000E+02
      1     15      4       1        4    2.0000E+02
      1     16      5       1        5    2.0000E+02
      1     16      6       1        6    2.0000E+02
      1     16      7       1        7    2.0000E+02
      1     16      8       1        8    2.0000E+02
      1     16      9       1        9    2.0000E+02
      1     16     10       1       10    2.0000E+02
      1     16     11       1       11    2.0000E+02
      1     16     12       1       12    2.0000E+02
      1     15     13       1       13    2.0000E+02
      1     14     14       1       14    2.0000E+02
      1     13     15       1       15    2.0000E+02
      1     12     16       1       16    2.0000E+02
      1     12     17       1       17    2.0000E+02
      1     12     18       1       18    2.0000E+02
      1     12     19       1       19    2.0000E+02
      1     13     20       1       20    2.0000E+02
      1     14     21       1       21    2.0000E+02
      1     14     22       1       22    2.0000E+02
      1      9     30       2        1    2.0000E+02
      1      9     29       2        2    2.0000E+02
      1      9     28       2        3    2.0000E+02
      1      9     27       2        4    2.0000E+02
      1     10     26       2        5    2.0000E+02
      1     11     25       2        6    2.0000E+02
      1     12     24       2        7    2.0000E+02
      1     13     23       2        8    2.0000E+02
      1     14     22       2        9    2.0000E+02
      1     14     22       3        1    2.0000E+02
      1     15     23       3        2    2.0000E+02
      1     15     24       3        3    2.0000E+02
      1     15     25       3        4    2.0000E+02
      1     15     26       3        5    2.0000E+02
      1     16     27       3        6    2.0000E+02
      1     17     28       3        7    2.0000E+02
      1     18     29       3        8    2.0000E+02
      1     18     30       3        9    2.0000E+02




 PCG -- CONJUGATE-GRADIENT SOLUTION PACKAGE, VERSION 7, 5/2/2005
 MAXIMUM OF    500 CALLS OF SOLUTION ROUTINE
 MAXIMUM OF      5 INTERNAL ITERATIONS PER CALL TO SOLUTION ROUTINE
 MATRIX PRECONDITIONING TYPE :    1



                                    SOLUTION BY THE CONJUGATE-GRADIENT METHOD
                                   -------------------------------------------
                    MAXIMUM NUMBER OF CALLS TO PCG ROUTINE =      500
                        MAXIMUM ITERATIONS PER CALL TO PCG =        5
                               MATRIX PRECONDITIONING TYPE =        1
        RELAXATION FACTOR (ONLY USED WITH PRECOND. TYPE 1) =    0.10000E+01
 PARAMETER OF POLYNOMIAL PRECOND. = 2 (2) OR IS CALCULATED :        0
                         HEAD CHANGE CRITERION FOR CLOSURE =    0.10000E-05
                     RESIDUAL CHANGE CRITERION FOR CLOSURE =    0.10000E+01
            PCG HEAD AND RESIDUAL CHANGE PRINTOUT INTERVAL =        1
     PRINTING FROM SOLVER IS LIMITED(1) OR SUPPRESSED (>1) =        1
                            STEADY-STATE DAMPING PARAMETER =    0.10000E+01
                               TRANSIENT DAMPING PARAMETER =    0.10000E+01
1
                            STRESS PERIOD NO.    1, LENGTH =   92.00000    
                            -----------------------------------------------

                              NUMBER OF TIME STEPS =     1

                               MULTIPLIER FOR DELT =     1.500

                            INITIAL TIME STEP SIZE =   92.00000    

 WELL NO.  LAYER   ROW   COL   STRESS RATE         
 --------------------------------------------------
      1      1      5     20      -7739.    
      2      1      9     24     -0.1035E+05
      3      1     15     20     -0.1191E+05
      4      1     16     28     -0.1082E+05

      4 WELLS

                 RECHARGE =  5.000000E-04



 CLASSIFICATION & COUNT OF STREAM SEGMENTS BASED ON SOURCE OF INFLOW:

                HEADWATER     DIVERSION     RECEIVES TRIBUTARY FLOW
                ---------     ---------     -----------------------
                     2              0               1



                    INPUT DATA FOR EACH STREAM SEGMENT
 ---------------------------------------------------------------------------------------------

 SEGMENT    SEG.     INFLOW   OVERLAND   STREAM    STREAM   ICALC  OUTFLOW  DIVERSION PRIORITY
    NO.    LENGTH     RATE     RUNOFF      ET       PPT.    METH.  TO SEG.  FROM SEG.    NO.

      1  4.400E+03 1.000E+05 0.000E+00 0.000E+00 0.000E+00    1        3        0        0
      2  1.800E+03 5.000E+04 0.000E+00 0.000E+00 0.000E+00    1        3        0        0
      3  1.800E+03 0.000E+00 0.000E+00 0.000E+00 0.000E+00    1        0        0        0


         STREAMBED PROPERTIES AND STREAM DIMENSIONS

 SEGMENT     BED HYD. COND.      BED THICKNESS     ELEV.-TOP OF BED     WIDTH OF STREAM     DEPTH OF STREAM    STREAM ROUGHNESS
    No.     UPPER     LOWER     UPPER     LOWER     UPPER     LOWER     UPPER     LOWER     UPPER     LOWER   CHANNEL      BANK

     1  5.000E+00 5.000E+00 1.000E+00 1.000E+00 4.850E+01 3.800E+01 2.000E+01 2.000E+01                     5.000E-02
     2  5.000E+00 5.000E+00 1.000E+00 1.000E+00 4.025E+01 3.800E+01 2.000E+01 2.000E+01                     5.000E-02
     3  5.000E+00 5.000E+00 1.000E+00 1.000E+00 3.800E+01 3.000E+01 2.000E+01 2.000E+01                     5.000E-02



 
 SOLVING FOR HEAD 


     9 CALLS TO PCG ROUTINE FOR TIME STEP   1 IN STRESS PERIOD    1
    36 TOTAL ITERATIONS

 OUTPUT CONTROL FOR STRESS PERIOD    1   TIME STEP    1
    SAVE BUDGET
    SAVE HEAD FOR ALL LAYERS
    PRINT HEAD FOR ALL LAYERS
 UBDSV2 SAVING "STREAMFLOW OUT  " ON UNIT  50 AT TIME STEP  1, STRESS PERIOD   1



 STREAM LISTING     PERIOD      1   STEP        1

 LAYER ROW COL. STREAM  RCH.  FLOW INTO     FLOW TO   FLOW OUT OF   OVRLND.     DIRECT     STREAM       STREAM     STREAM     STREAM   STREAMBED  STREAMBED
                SEG.NO.  NO.  STRM. RCH.    AQUIFER    STRM. RCH.    RUNOFF     PRECIP       ET          HEAD       DEPTH      WIDTH   CONDCTNC.   GRADIENT

   1   13    1     1     1    1.0000E+05 -6.1202E+03   1.0612E+05  0.000E+00  0.000E+00  0.000E+00  4.84087E+01  1.473E-01  2.000E+01  2.000E+04 -3.060E-01
   1   13    2     1     2    1.0612E+05 -7.5897E+03   1.1371E+05  0.000E+00  0.000E+00  0.000E+00  4.79372E+01  1.531E-01  2.000E+01  2.000E+04 -3.795E-01
   1   14    3     1     3    1.1371E+05 -2.1988E+03   1.1591E+05  0.000E+00  0.000E+00  0.000E+00  4.74640E+01  1.571E-01  2.000E+01  2.000E+04 -1.099E-01
   1   15    4     1     4    1.1591E+05 -2.2700E+03   1.1818E+05  0.000E+00  0.000E+00  0.000E+00  4.69885E+01  1.590E-01  2.000E+01  2.000E+04 -1.135E-01
   1   16    5     1     5    1.1818E+05 -7.1817E+03   1.2536E+05  0.000E+00  0.000E+00  0.000E+00  4.65151E+01  1.628E-01  2.000E+01  2.000E+04 -3.591E-01
   1   16    6     1     6    1.2536E+05 -4.3005E+03   1.2966E+05  0.000E+00  0.000E+00  0.000E+00  4.60424E+01  1.674E-01  2.000E+01  2.000E+04 -2.150E-01
   1   16    7     1     7    1.2966E+05 -4.1341E+03   1.3380E+05  0.000E+00  0.000E+00  0.000E+00  4.55684E+01  1.707E-01  2.000E+01  2.000E+04 -2.067E-01
   1   16    8     1     8    1.3380E+05 -4.0911E+03   1.3789E+05  0.000E+00  0.000E+00  0.000E+00  4.50943E+01  1.738E-01  2.000E+01  2.000E+04 -2.046E-01
   1   16    9     1     9    1.3789E+05 -4.0769E+03   1.4196E+05  0.000E+00  0.000E+00  0.000E+00  4.46201E+01  1.770E-01  2.000E+01  2.000E+04 -2.038E-01
   1   16   10     1    10    1.4196E+05 -4.0682E+03   1.4603E+05  0.000E+00  0.000E+00  0.000E+00  4.41459E+01  1.800E-01  2.000E+01  2.000E+04 -2.034E-01
   1   16   11     1    11    1.4603E+05 -4.0911E+03   1.5012E+05  0.000E+00  0.000E+00  0.000E+00  4.36717E+01  1.831E-01  2.000E+01  2.000E+04 -2.046E-01
   1   16   12     1    12    1.5012E+05 -6.8903E+03   1.5701E+05  0.000E+00  0.000E+00  0.000E+00  4.31985E+01  1.871E-01  2.000E+01  2.000E+04 -3.445E-01
   1   15   13     1    13    1.5701E+05 -7.1548E+03   1.6417E+05  0.000E+00  0.000E+00  0.000E+00  4.27263E+01  1.922E-01  2.000E+01  2.000E+04 -3.577E-01
   1   14   14     1    14    1.6417E+05 -7.5720E+03   1.7174E+05  0.000E+00  0.000E+00  0.000E+00  4.22543E+01  1.974E-01  2.000E+01  2.000E+04 -3.786E-01
   1   13   15     1    15    1.7174E+05 -7.8444E+03   1.7958E+05  0.000E+00  0.000E+00  0.000E+00  4.17824E+01  2.028E-01  2.000E+01  2.000E+04 -3.922E-01
   1   12   16     1    16    1.7958E+05 -8.4992E+03   1.8808E+05  0.000E+00  0.000E+00  0.000E+00  4.13107E+01  2.084E-01  2.000E+01  2.000E+04 -4.250E-01
   1   12   17     1    17    1.8808E+05 -5.8429E+03   1.9393E+05  0.000E+00  0.000E+00  0.000E+00  4.08383E+01  2.133E-01  2.000E+01  2.000E+04 -2.921E-01
   1   12   18     1    18    1.9393E+05 -5.5124E+03   1.9944E+05  0.000E+00  0.000E+00  0.000E+00  4.03648E+01  2.171E-01  2.000E+01  2.000E+04 -2.756E-01
   1   12   19     1    19    1.9944E+05 -6.7634E+03   2.0620E+05  0.000E+00  0.000E+00  0.000E+00  3.98916E+01  2.211E-01  2.000E+01  2.000E+04 -3.382E-01
   1   13   20     1    20    2.0620E+05 -4.6272E+03   2.1083E+05  0.000E+00  0.000E+00  0.000E+00  3.94180E+01  2.248E-01  2.000E+01  2.000E+04 -2.314E-01
   1   14   21     1    21    2.1083E+05 -3.0884E+03   2.1392E+05  0.000E+00  0.000E+00  0.000E+00  3.89432E+01  2.273E-01  2.000E+01  2.000E+04 -1.544E-01
   1   14   22     1    22    2.1392E+05  4.0809E+03   2.0984E+05  0.000E+00  0.000E+00  0.000E+00  3.84656E+01  2.270E-01  2.000E+01  2.000E+04  2.040E-01
   1    9   30     2     1    5.0000E+04 -4.4876E+03   5.4488E+04  0.000E+00  0.000E+00  0.000E+00  4.02440E+01  1.190E-01  2.000E+01  2.000E+04 -2.244E-01
   1    9   29     2     2    5.4488E+04 -4.7611E+03   5.9249E+04  0.000E+00  0.000E+00  0.000E+00  4.00002E+01  1.252E-01  2.000E+01  2.000E+04 -2.381E-01
   1    9   28     2     3    5.9249E+04 -4.9702E+03   6.4219E+04  0.000E+00  0.000E+00  0.000E+00  3.97565E+01  1.315E-01  2.000E+01  2.000E+04 -2.485E-01
   1    9   27     2     4    6.4219E+04 -6.9673E+03   7.1186E+04  0.000E+00  0.000E+00  0.000E+00  3.95140E+01  1.390E-01  2.000E+01  2.000E+04 -3.484E-01
   1   10   26     2     5    7.1186E+04 -5.3709E+03   7.6557E+04  0.000E+00  0.000E+00  0.000E+00  3.92714E+01  1.464E-01  2.000E+01  2.000E+04 -2.685E-01
   1   11   25     2     6    7.6557E+04 -4.8854E+03   8.1443E+04  0.000E+00  0.000E+00  0.000E+00  3.90275E+01  1.525E-01  2.000E+01  2.000E+04 -2.443E-01
   1   12   24     2     7    8.1443E+04 -5.0655E+03   8.6508E+04  0.000E+00  0.000E+00  0.000E+00  3.87831E+01  1.581E-01  2.000E+01  2.000E+04 -2.533E-01
   1   13   23     2     8    8.6508E+04 -1.5303E+03   8.8038E+04  0.000E+00  0.000E+00  0.000E+00  3.85368E+01  1.618E-01  2.000E+01  2.000E+04 -7.651E-02
   1   14   22     2     9    8.8038E+04  5.1689E+02   8.7521E+04  0.000E+00  0.000E+00  0.000E+00  3.82874E+01  1.624E-01  2.000E+01  2.000E+04  2.584E-02
   1   14   22     3     1    2.9736E+05 -9.4599E+03   3.0682E+05  0.000E+00  0.000E+00  0.000E+00  3.77886E+01  2.330E-01  2.000E+01  2.000E+04 -4.730E-01
   1   15   23     3     2    3.0682E+05 -1.7572E+03   3.0857E+05  0.000E+00  0.000E+00  0.000E+00  3.69023E+01  2.356E-01  2.000E+01  2.000E+04 -8.786E-02
   1   15   24     3     3    3.0857E+05 -1.5047E+03   3.1008E+05  0.000E+00  0.000E+00  0.000E+00  3.60141E+01  2.363E-01  2.000E+01  2.000E+04 -7.524E-02
   1   15   25     3     4    3.1008E+05 -1.5600E+03   3.1164E+05  0.000E+00  0.000E+00  0.000E+00  3.51259E+01  2.370E-01  2.000E+01  2.000E+04 -7.800E-02
   1   15   26     3     5    3.1164E+05 -1.7313E+03   3.1337E+05  0.000E+00  0.000E+00  0.000E+00  3.42378E+01  2.378E-01  2.000E+01  2.000E+04 -8.656E-02
   1   16   27     3     6    3.1337E+05 -1.1400E+03   3.1451E+05  0.000E+00  0.000E+00  0.000E+00  3.33496E+01  2.385E-01  2.000E+01  2.000E+04 -5.700E-02
   1   17   28     3     7    3.1451E+05 -1.1235E+03   3.1563E+05  0.000E+00  0.000E+00  0.000E+00  3.24612E+01  2.390E-01  2.000E+01  2.000E+04 -5.617E-02
   1   18   29     3     8    3.1563E+05 -7.1317E+03   3.2277E+05  0.000E+00  0.000E+00  0.000E+00  3.15742E+01  2.408E-01  2.000E+01  2.000E+04 -3.566E-01
   1   18   30     3     9    3.2277E+05 -6.3853E+03   3.2915E+05  0.000E+00  0.000E+00  0.000E+00  3.06883E+01  2.439E-01  2.000E+01  2.000E+04 -3.193E-01



1
              HEAD IN LAYER   1 AT END OF TIME STEP   1 IN STRESS PERIOD    1
  ---------------------------------------------------------------------------

          1      2      3      4      5      6      7      8      9     10
         11     12     13     14     15     16     17     18     19     20
         21     22     23     24     25     26     27     28     29     30
 .........................................................................
   1  ****** ****** ****** ****** ****** ****** ****** ****** ****** ******
      ****** ****** ****** ****** ****** ****** ****** ****** ****** ******
      ****** ****** ****** ****** ****** ****** ****** ****** ****** ******
   2  ****** ****** ****** ****** ****** ****** ****** ****** ****** ******
      ****** ****** ****** ****** ****** ****** ****** ****** ****** ******
      ****** ****** ****** ****** ****** ****** ****** ****** ****** ******
   3  ****** ****** ****** ****** ****** ****** ****** ****** ****** ******
      ****** ****** ****** ****** ****** ****** ****** ****** ****** ******
      ****** ****** ****** ****** ****** ****** ****** ****** ****** ******
   4  ****** ****** ****** ****** ****** ****** ****** ****** ****** ******
      ****** ****** ****** ****** ****** ****** ****** ****** ****** ******
      ****** ****** ****** ****** ****** ****** ****** ****** ****** ******
   5  ****** ****** ****** ****** ****** ****** ****** ****** ****** ******
      ****** ****** ****** ****** ****** ****** ****** ****** ****** ******
      ****** ****** ****** ****** ****** ****** ****** ****** ****** ******
   6  ****** ****** ****** ****** ****** ****** ****** ****** ****** ******
      ****** ****** ****** ****** ****** ****** ****** ****** ****** ******
      ****** ****** ****** ****** ****** ****** ****** ****** ****** ******
   7  ****** ****** ****** ****** ****** ****** ****** ****** ****** ******
      ****** ****** ****** ****** ****** ****** ****** ****** ****** ******
      ****** ****** ****** ****** ****** ****** ****** ****** ****** ******
   8  ****** ****** ****** ****** ****** ****** ****** ****** ****** ******
      ****** ****** ****** ****** ****** ****** ****** ****** ****** ******
      ****** ****** ****** ****** ****** ****** ****** ****** ****** ******
   9  ****** ****** ****** ****** ****** ****** ****** ****** ****** ******
      ****** ****** ****** ****** ****** ****** ****** ****** ****** ******
      ****** ****** ****** ****** ****** ****** ****** ****** ****** ******
  10  ****** ****** ****** ****** ****** ****** ****** ****** ****** ******
      ****** ****** ****** ****** ****** ****** ****** ****** ****** ******
      ****** ****** ****** ****** ****** ****** ****** ****** ****** ******
  11  ****** ****** ****** ****** ****** ****** ****** ****** ****** ******
      ****** ****** ****** ****** ****** ****** ****** ****** ****** ******
      ****** ****** ****** ****** ****** ****** ****** ****** ****** ******
  12  ****** ****** ****** ****** ****** ****** ****** ****** ****** ******
      ****** ****** ****** ****** ****** ****** ****** ****** ****** ******
      ****** ****** ****** ****** ****** ****** ****** ****** ****** ******
  13  ****** ****** ****** ****** ****** ****** ****** ****** ****** ******
      ****** ****** ****** ****** ****** ****** ****** ****** ****** ******
      ****** ****** ****** ****** ****** ****** ****** ****** ****** ******
  14  ****** ****** ****** ****** ****** ****** ****** ****** ****** ******
      ****** ****** ****** ****** ****** ****** ****** ****** ****** ******
      ****** ****** ****** ****** ****** ****** ****** ****** ****** ******
  15  ****** ****** ****** ****** ****** ****** ****** ****** ****** ******
      ****** ****** ****** ****** ****** ****** ****** ****** ****** ******
      ****** ****** ****** ****** ****** ****** ****** ****** ****** ******
  16  ****** ****** ****** ****** ****** ****** ****** ****** ****** ******
      ****** ****** ****** ****** ****** ****** ****** ****** ****** ******
      ****** ****** ****** ****** ****** ****** ****** ****** ****** ******
  17  ****** ****** ****** ****** ****** ****** ****** ****** ****** ******
      ****** ****** ****** ****** ****** ****** ****** ****** ****** ******
      ****** ****** ****** ****** ****** ****** ****** ****** ****** ******
  18  ****** ****** ****** ****** ****** ****** ****** ****** ****** ******
      ****** ****** ****** ****** ****** ****** ****** ****** ****** ******
      ****** ****** ****** ****** ****** ****** ****** ****** ****** ******
  19  ****** ****** ****** ****** ****** ****** ****** ****** ****** ******
      ****** ****** ****** ****** ****** ****** ****** ****** ****** ******
      ****** ****** ****** ****** ****** ****** ****** ****** ****** ******
  20  ****** ****** ****** ****** ****** ****** ****** ****** ****** ******
      ****** ****** ****** ****** ****** ****** ****** ****** ****** ******
      ****** ****** ****** ****** ****** ****** ****** ****** ****** ******
  21  ****** ****** ****** ****** ****** ****** ****** ****** ****** ******
      ****** ****** ****** ****** ****** ****** ****** ****** ****** ******
      ****** ****** ****** ****** ****** ****** ****** ****** ****** ******
  22  ****** ****** ****** ****** ****** ****** ****** ****** ****** ******
      ****** ****** ****** ****** ****** ****** ****** ****** ****** ******
      ****** ****** ****** ****** ****** ****** ****** ****** ****** ******
  23  ****** ****** ****** ****** ****** ****** ****** ****** ****** ******
      ****** ****** ****** ****** ****** ****** ****** ****** ****** ******
      ****** ****** ****** ****** ****** ****** ****** ****** ****** ******
  24  ****** ****** ****** ****** ****** ****** ****** ****** ****** ******
      ****** ****** ****** ****** ****** ****** ****** ****** ****** ******
      ****** ****** ****** ****** ****** ****** ****** ****** ****** ******
  25  ****** ****** ****** ****** ****** ****** ****** ****** ****** ******
      ****** ****** ****** ****** ****** ****** ****** ****** ****** ******
      ****** ****** ****** ****** ****** ****** ****** ****** ****** ******

 HEAD WILL BE SAVED ON UNIT   51 AT END OF TIME STEP    1, STRESS PERIOD    1
1
  VOLUMETRIC BUDGET FOR ENTIRE MODEL AT END OF TIME STEP    1, STRESS PERIOD   1
  ------------------------------------------------------------------------------

     CUMULATIVE VOLUMES      L**3       RATES FOR THIS TIME STEP      L**3/T
     ------------------                 ------------------------

           IN:                                      IN:
           ---                                      ---
             STORAGE =    17807649.4320               STORAGE =      193561.4069
       CONSTANT HEAD =     1160410.7915         CONSTANT HEAD =       12613.1608
               WELLS =           0.0000                 WELLS =           0.0000
            RECHARGE =     1269600.0000              RECHARGE =       13800.0000
      STREAM LEAKAGE =      422997.2093        STREAM LEAKAGE =        4597.7958

            TOTAL IN =    20660657.4328              TOTAL IN =      224572.3634

          OUT:                                     OUT:
          ----                                     ----
             STORAGE =           0.0000               STORAGE =           0.0000
       CONSTANT HEAD =           0.0000         CONSTANT HEAD =           0.0000
               WELLS =     3755726.6793                 WELLS =       40823.1161
            RECHARGE =           0.0000              RECHARGE =           0.0000
      STREAM LEAKAGE =    16904931.0472        STREAM LEAKAGE =      183749.2505

           TOTAL OUT =    20660657.7266             TOTAL OUT =      224572.3666

            IN - OUT =          -0.2938              IN - OUT =      -3.1931E-03

 PERCENT DISCREPANCY =          -0.00     PERCENT DISCREPANCY =          -0.00






         TIME SUMMARY AT END OF TIME STEP    1 IN STRESS PERIOD    1
                    SECONDS     MINUTES      HOURS       DAYS        YEARS
                    -----------------------------------------------------------
   TIME STEP LENGTH 7.94880E+06 1.32480E+05  2208.0      92.000     0.25188    
 STRESS PERIOD TIME 7.94880E+06 1.32480E+05  2208.0      92.000     0.25188    
         TOTAL TIME 7.94880E+06 1.32480E+05  2208.0      92.000     0.25188    
1
1
                            STRESS PERIOD NO.    2, LENGTH =   91.00000    
                            -----------------------------------------------

                              NUMBER OF TIME STEPS =     1

                               MULTIPLIER FOR DELT =     1.500

                            INITIAL TIME STEP SIZE =   91.00000    

 WELL NO.  LAYER   ROW   COL   STRESS RATE         
 --------------------------------------------------
      1      1      5     20      -7739.    
      2      1      9     24     -0.1035E+05
      3      1     15     20     -0.1191E+05
      4      1     16     28     -0.1082E+05

      4 WELLS

                 RECHARGE =  2.000000E-03

 REUSING STREAM SEGMENT DATA FROM LAST STRESS PERIOD
 
 SOLVING FOR HEAD 


     7 CALLS TO PCG ROUTINE FOR TIME STEP   1 IN STRESS PERIOD    2
    27 TOTAL ITERATIONS

 OUTPUT CONTROL FOR STRESS PERIOD    2   TIME STEP    1
    SAVE BUDGET
    SAVE HEAD FOR ALL LAYERS
    PRINT HEAD FOR ALL LAYERS
 UBDSV2 SAVING "STREAMFLOW OUT  " ON UNIT  50 AT TIME STEP  1, STRESS PERIOD   2



 STREAM LISTING     PERIOD      2   STEP        1

 LAYER ROW COL. STREAM  RCH.  FLOW INTO     FLOW TO   FLOW OUT OF   OVRLND.     DIRECT     STREAM       STREAM     STREAM     STREAM   STREAMBED  STREAMBED
                SEG.NO.  NO.  STRM. RCH.    AQUIFER    STRM. RCH.    RUNOFF     PRECIP       ET          HEAD       DEPTH      WIDTH   CONDCTNC.   GRADIENT

   1   13    1     1     1    1.0000E+05 -4.0020E+03   1.0400E+05  0.000E+00  0.000E+00  0.000E+00  4.84077E+01  1.464E-01  2.000E+01  2.000E+04 -2.001E-01
   1   13    2     1     2    1.0400E+05 -5.2639E+03   1.0927E+05  0.000E+00  0.000E+00  0.000E+00  4.79344E+01  1.503E-01  2.000E+01  2.000E+04 -2.632E-01
   1   14    3     1     3    1.0927E+05 -1.1158E+03   1.1038E+05  0.000E+00  0.000E+00  0.000E+00  4.74598E+01  1.530E-01  2.000E+01  2.000E+04 -5.579E-02
   1   15    4     1     4    1.1038E+05 -1.1434E+03   1.1153E+05  0.000E+00  0.000E+00  0.000E+00  4.69835E+01  1.540E-01  2.000E+01  2.000E+04 -5.717E-02
   1   16    5     1     5    1.1153E+05 -4.2470E+03   1.1577E+05  0.000E+00  0.000E+00  0.000E+00  4.65085E+01  1.562E-01  2.000E+01  2.000E+04 -2.124E-01
   1   16    6     1     6    1.1577E+05 -2.5016E+03   1.1827E+05  0.000E+00  0.000E+00  0.000E+00  4.60340E+01  1.590E-01  2.000E+01  2.000E+04 -1.251E-01
   1   16    7     1     7    1.1827E+05 -2.4050E+03   1.2068E+05  0.000E+00  0.000E+00  0.000E+00  4.55587E+01  1.610E-01  2.000E+01  2.000E+04 -1.203E-01
   1   16    8     1     8    1.2068E+05 -2.3720E+03   1.2305E+05  0.000E+00  0.000E+00  0.000E+00  4.50833E+01  1.629E-01  2.000E+01  2.000E+04 -1.186E-01
   1   16    9     1     9    1.2305E+05 -2.3452E+03   1.2540E+05  0.000E+00  0.000E+00  0.000E+00  4.46079E+01  1.648E-01  2.000E+01  2.000E+04 -1.173E-01
   1   16   10     1    10    1.2540E+05 -2.3106E+03   1.2771E+05  0.000E+00  0.000E+00  0.000E+00  4.41325E+01  1.666E-01  2.000E+01  2.000E+04 -1.155E-01
   1   16   11     1    11    1.2771E+05 -2.2966E+03   1.3000E+05  0.000E+00  0.000E+00  0.000E+00  4.36571E+01  1.684E-01  2.000E+01  2.000E+04 -1.148E-01
   1   16   12     1    12    1.3000E+05 -3.9509E+03   1.3395E+05  0.000E+00  0.000E+00  0.000E+00  4.31822E+01  1.709E-01  2.000E+01  2.000E+04 -1.975E-01
   1   15   13     1    13    1.3395E+05 -3.8575E+03   1.3781E+05  0.000E+00  0.000E+00  0.000E+00  4.27080E+01  1.739E-01  2.000E+01  2.000E+04 -1.929E-01
   1   14   14     1    14    1.3781E+05 -4.1376E+03   1.4195E+05  0.000E+00  0.000E+00  0.000E+00  4.22337E+01  1.769E-01  2.000E+01  2.000E+04 -2.069E-01
   1   13   15     1    15    1.4195E+05 -4.3953E+03   1.4634E+05  0.000E+00  0.000E+00  0.000E+00  4.17597E+01  1.801E-01  2.000E+01  2.000E+04 -2.198E-01
   1   12   16     1    16    1.4634E+05 -5.2113E+03   1.5156E+05  0.000E+00  0.000E+00  0.000E+00  4.12860E+01  1.837E-01  2.000E+01  2.000E+04 -2.606E-01
   1   12   17     1    17    1.5156E+05 -3.1966E+03   1.5475E+05  0.000E+00  0.000E+00  0.000E+00  4.08118E+01  1.868E-01  2.000E+01  2.000E+04 -1.598E-01
   1   12   18     1    18    1.5475E+05 -2.8277E+03   1.5758E+05  0.000E+00  0.000E+00  0.000E+00  4.03367E+01  1.890E-01  2.000E+01  2.000E+04 -1.414E-01
   1   12   19     1    19    1.5758E+05 -3.3631E+03   1.6094E+05  0.000E+00  0.000E+00  0.000E+00  3.98617E+01  1.912E-01  2.000E+01  2.000E+04 -1.682E-01
   1   13   20     1    20    1.6094E+05 -1.2221E+03   1.6217E+05  0.000E+00  0.000E+00  0.000E+00  3.93861E+01  1.929E-01  2.000E+01  2.000E+04 -6.110E-02
   1   14   21     1    21    1.6217E+05 -2.9254E+01   1.6219E+05  0.000E+00  0.000E+00  0.000E+00  3.89092E+01  1.933E-01  2.000E+01  2.000E+04 -1.463E-03
   1   14   22     1    22    1.6219E+05  4.9249E+03   1.5727E+05  0.000E+00  0.000E+00  0.000E+00  3.84302E+01  1.916E-01  2.000E+01  2.000E+04  2.462E-01
   1    9   30     2     1    5.0000E+04 -1.5916E+03   5.1592E+04  0.000E+00  0.000E+00  0.000E+00  4.02420E+01  1.170E-01  2.000E+01  2.000E+04 -7.958E-02
   1    9   29     2     2    5.1592E+04 -1.8731E+03   5.3465E+04  0.000E+00  0.000E+00  0.000E+00  3.99943E+01  1.193E-01  2.000E+01  2.000E+04 -9.365E-02
   1    9   28     2     3    5.3465E+04 -2.0819E+03   5.5547E+04  0.000E+00  0.000E+00  0.000E+00  3.97470E+01  1.220E-01  2.000E+01  2.000E+04 -1.041E-01
   1    9   27     2     4    5.5547E+04 -3.1261E+03   5.8673E+04  0.000E+00  0.000E+00  0.000E+00  3.95005E+01  1.255E-01  2.000E+01  2.000E+04 -1.563E-01
   1   10   26     2     5    5.8673E+04 -1.3710E+03   6.0044E+04  0.000E+00  0.000E+00  0.000E+00  3.92534E+01  1.284E-01  2.000E+01  2.000E+04 -6.855E-02
   1   11   25     2     6    6.0044E+04 -1.0774E+03   6.1121E+04  0.000E+00  0.000E+00  0.000E+00  3.90050E+01  1.300E-01  2.000E+01  2.000E+04 -5.387E-02
   1   12   24     2     7    6.1121E+04 -1.6940E+03   6.2815E+04  0.000E+00  0.000E+00  0.000E+00  3.87568E+01  1.318E-01  2.000E+01  2.000E+04 -8.470E-02
   1   13   23     2     8    6.2815E+04 -4.5159E+02   6.3267E+04  0.000E+00  0.000E+00  0.000E+00  3.85082E+01  1.332E-01  2.000E+01  2.000E+04 -2.258E-02
   1   14   22     2     9    6.3267E+04  1.4706E+03   6.1796E+04  0.000E+00  0.000E+00  0.000E+00  3.82575E+01  1.325E-01  2.000E+01  2.000E+04  7.353E-02
   1   14   22     3     1    2.1907E+05 -8.6799E+03   2.2775E+05  0.000E+00  0.000E+00  0.000E+00  3.77500E+01  1.944E-01  2.000E+01  2.000E+04 -4.340E-01
   1   15   23     3     2    2.2775E+05 -7.6909E+02   2.2851E+05  0.000E+00  0.000E+00  0.000E+00  3.68636E+01  1.969E-01  2.000E+01  2.000E+04 -3.845E-02
   1   15   24     3     3    2.2851E+05 -6.2367E+02   2.2914E+05  0.000E+00  0.000E+00  0.000E+00  3.59750E+01  1.972E-01  2.000E+01  2.000E+04 -3.118E-02
   1   15   25     3     4    2.2914E+05 -6.3741E+02   2.2978E+05  0.000E+00  0.000E+00  0.000E+00  3.50865E+01  1.976E-01  2.000E+01  2.000E+04 -3.187E-02
   1   15   26     3     5    2.2978E+05 -5.7369E+02   2.3035E+05  0.000E+00  0.000E+00  0.000E+00  3.41979E+01  1.979E-01  2.000E+01  2.000E+04 -2.868E-02
   1   16   27     3     6    2.3035E+05  2.1025E+02   2.3014E+05  0.000E+00  0.000E+00  0.000E+00  3.33091E+01  1.980E-01  2.000E+01  2.000E+04  1.051E-02
   1   17   28     3     7    2.3014E+05  2.5805E+03   2.2756E+05  0.000E+00  0.000E+00  0.000E+00  3.24195E+01  1.973E-01  2.000E+01  2.000E+04  1.290E-01
   1   18   29     3     8    2.2756E+05 -4.0363E+03   2.3159E+05  0.000E+00  0.000E+00  0.000E+00  3.15310E+01  1.976E-01  2.000E+01  2.000E+04 -2.018E-01
   1   18   30     3     9    2.3159E+05 -3.7361E+03   2.3533E+05  0.000E+00  0.000E+00  0.000E+00  3.06441E+01  1.996E-01  2.000E+01  2.000E+04 -1.868E-01



1
              HEAD IN LAYER   1 AT END OF TIME STEP   1 IN STRESS PERIOD    2
  ---------------------------------------------------------------------------

          1      2      3      4      5      6      7      8      9     10
         11     12     13     14     15     16     17     18     19     20
         21     22     23     24     25     26     27     28     29     30
 .........................................................................
   1  ****** ****** ****** ****** ****** ****** ****** ****** ****** ******
      ****** ****** ****** ****** ****** ****** ****** ****** ****** ******
      ****** ****** ****** ****** ****** ****** ****** ****** ****** ******
   2  ****** ****** ****** ****** ****** ****** ****** ****** ****** ******
      ****** ****** ****** ****** ****** ****** ****** ****** ****** ******
      ****** ****** ****** ****** ****** ****** ****** ****** ****** ******
   3  ****** ****** ****** ****** ****** ****** ****** ****** ****** ******
      ****** ****** ****** ****** ****** ****** ****** ****** ****** ******
      ****** ****** ****** ****** ****** ****** ****** ****** ****** ******
   4  ****** ****** ****** ****** ****** ****** ****** ****** ****** ******
      ****** ****** ****** ****** ****** ****** ****** ****** ****** ******
      ****** ****** ****** ****** ****** ****** ****** ****** ****** ******
   5  ****** ****** ****** ****** ****** ****** ****** ****** ****** ******
      ****** ****** ****** ****** ****** ****** ****** ****** ****** ******
      ****** ****** ****** ****** ****** ****** ****** ****** ****** ******
   6  ****** ****** ****** ****** ****** ****** ****** ****** ****** ******
      ****** ****** ****** ****** ****** ****** ****** ****** ****** ******
      ****** ****** ****** ****** ****** ****** ****** ****** ****** ******
   7  ****** ****** ****** ****** ****** ****** ****** ****** ****** ******
      ****** ****** ****** ****** ****** ****** ****** ****** ****** ******
      ****** ****** ****** ****** ****** ****** ****** ****** ****** ******
   8  ****** ****** ****** ****** ****** ****** ****** ****** ****** ******
      ****** ****** ****** ****** ****** ****** ****** ****** ****** ******
      ****** ****** ****** ****** ****** ****** ****** ****** ****** ******
   9  ****** ****** ****** ****** ****** ****** ****** ****** ****** ******
      ****** ****** ****** ****** ****** ****** ****** ****** ****** ******
      ****** ****** ****** ****** ****** ****** ****** ****** ****** ******
  10  ****** ****** ****** ****** ****** ****** ****** ****** ****** ******
      ****** ****** ****** ****** ****** ****** ****** ****** ****** ******
      ****** ****** ****** ****** ****** ****** ****** ****** ****** ******
  11  ****** ****** ****** ****** ****** ****** ****** ****** ****** ******
      ****** ****** ****** ****** ****** ****** ****** ****** ****** ******
      ****** ****** ****** ****** ****** ****** ****** ****** ****** ******
  12  ****** ****** ****** ****** ****** ****** ****** ****** ****** ******
      ****** ****** ****** ****** ****** ****** ****** ****** ****** ******
      ****** ****** ****** ****** ****** ****** ****** ****** ****** ******
  13  ****** ****** ****** ****** ****** ****** ****** ****** ****** ******
      ****** ****** ****** ****** ****** ****** ****** ****** ****** ******
      ****** ****** ****** ****** ****** ****** ****** ****** ****** ******
  14  ****** ****** ****** ****** ****** ****** ****** ****** ****** ******
      ****** ****** ****** ****** ****** ****** ****** ****** ****** ******
      ****** ****** ****** ****** ****** ****** ****** ****** ****** ******
  15  ****** ****** ****** ****** ****** ****** ****** ****** ****** ******
      ****** ****** ****** ****** ****** ****** ****** ****** ****** ******
      ****** ****** ****** ****** ****** ****** ****** ****** ****** ******
  16  ****** ****** ****** ****** ****** ****** ****** ****** ****** ******
      ****** ****** ****** ****** ****** ****** ****** ****** ****** ******
      ****** ****** ****** ****** ****** ****** ****** ****** ****** ******
  17  ****** ****** ****** ****** ****** ****** ****** ****** ****** ******
      ****** ****** ****** ****** ****** ****** ****** ****** ****** ******
      ****** ****** ****** ****** ****** ****** ****** ****** ****** ******
  18  ****** ****** ****** ****** ****** ****** ****** ****** ****** ******
      ****** ****** ****** ****** ****** ****** ****** ****** ****** ******
      ****** ****** ****** ****** ****** ****** ****** ****** ****** ******
  19  ****** ****** ****** ****** ****** ****** ****** ****** ****** ******
      ****** ****** ****** ****** ****** ****** ****** ****** ****** ******
      ****** ****** ****** ****** ****** ****** ****** ****** ****** ******
  20  ****** ****** ****** ****** ****** ****** ****** ****** ****** ******
      ****** ****** ****** ****** ****** ****** ****** ****** ****** ******
      ****** ****** ****** ****** ****** ****** ****** ****** ****** ******
  21  ****** ****** ****** ****** ****** ****** ****** ****** ****** ******
      ****** ****** ****** ****** ****** ****** ****** ****** ****** ******
      ****** ****** ****** ****** ****** ****** ****** ****** ****** ******
  22  ****** ****** ****** ****** ****** ****** ****** ****** ****** ******
      ****** ****** ****** ****** ****** ****** ****** ****** ****** ******
      ****** ****** ****** ****** ****** ****** ****** ****** ****** ******
  23  ****** ****** ****** ****** ****** ****** ****** ****** ****** ******
      ****** ****** ****** ****** ****** ****** ****** ****** ****** ******
      ****** ****** ****** ****** ****** ****** ****** ****** ****** ******
  24  ****** ****** ****** ****** ****** ****** ****** ****** ****** ******
      ****** ****** ****** ****** ****** ****** ****** ****** ****** ******
      ****** ****** ****** ****** ****** ****** ****** ****** ****** ******
  25  ****** ****** ****** ****** ****** ****** ****** ****** ****** ******
      ****** ****** ****** ****** ****** ****** ****** ****** ****** ******
      ****** ****** ****** ****** ****** ****** ****** ****** ****** ******

 HEAD WILL BE SAVED ON UNIT   51 AT END OF TIME STEP    1, STRESS PERIOD    2
1
  VOLUMETRIC BUDGET FOR ENTIRE MODEL AT END OF TIME STEP    1, STRESS PERIOD   2
  ------------------------------------------------------------------------------

     CUMULATIVE VOLUMES      L**3       RATES FOR THIS TIME STEP      L**3/T
     ------------------                 ------------------------

           IN:                                      IN:
           ---                                      ---
             STORAGE =    22702153.8511               STORAGE =       53785.7628
       CONSTANT HEAD =     2722734.5247         CONSTANT HEAD =       17168.3927
               WELLS =           0.0000                 WELLS =           0.0000
            RECHARGE =     6292800.0000              RECHARGE =       55200.0000
      STREAM LEAKAGE =     1258939.7707        STREAM LEAKAGE =        9186.1820

            TOTAL IN =    32976628.1465              TOTAL IN =      135340.3375

          OUT:                                     OUT:
          ----                                     ----
             STORAGE =           0.0000               STORAGE =           0.0000
       CONSTANT HEAD =           0.0000         CONSTANT HEAD =           0.0000
               WELLS =     7470630.2426                 WELLS =       40823.1161
            RECHARGE =           0.0000              RECHARGE =           0.0000
      STREAM LEAKAGE =    25505999.1225        STREAM LEAKAGE =       94517.2316

           TOTAL OUT =    32976629.3650             TOTAL OUT =      135340.3477

            IN - OUT =          -1.2186              IN - OUT =      -1.0163E-02

 PERCENT DISCREPANCY =          -0.00     PERCENT DISCREPANCY =          -0.00






         TIME SUMMARY AT END OF TIME STEP    1 IN STRESS PERIOD    2
                    SECONDS     MINUTES      HOURS       DAYS        YEARS
                    -----------------------------------------------------------
   TIME STEP LENGTH 7.86240E+06 1.31040E+05  2184.0      91.000     0.24914    
 STRESS PERIOD TIME 7.86240E+06 1.31040E+05  2184.0      91.000     0.24914    
         TOTAL TIME 1.58112E+07 2.63520E+05  4392.0      183.00     0.50103    
1
1
                            STRESS PERIOD NO.    3, LENGTH =   91.00000    
                            -----------------------------------------------

                              NUMBER OF TIME STEPS =     1

                               MULTIPLIER FOR DELT =     1.500

                            INITIAL TIME STEP SIZE =   91.00000    

 WELL NO.  LAYER   ROW   COL   STRESS RATE         
 --------------------------------------------------
      1      1      5     20      -7739.    
      2      1      9     24     -0.1035E+05
      3      1     15     20     -0.1191E+05
      4      1     16     28     -0.1082E+05

      4 WELLS

                 RECHARGE =   0.00000    

 REUSING STREAM SEGMENT DATA FROM LAST STRESS PERIOD
 
 SOLVING FOR HEAD 


     7 CALLS TO PCG ROUTINE FOR TIME STEP   1 IN STRESS PERIOD    3
    27 TOTAL ITERATIONS

 OUTPUT CONTROL FOR STRESS PERIOD    3   TIME STEP    1
    SAVE BUDGET
    SAVE HEAD FOR ALL LAYERS
    PRINT HEAD FOR ALL LAYERS
 UBDSV2 SAVING "STREAMFLOW OUT  " ON UNIT  50 AT TIME STEP  1, STRESS PERIOD   3



 STREAM LISTING     PERIOD      3   STEP        1

 LAYER ROW COL. STREAM  RCH.  FLOW INTO     FLOW TO   FLOW OUT OF   OVRLND.     DIRECT     STREAM       STREAM     STREAM     STREAM   STREAMBED  STREAMBED
                SEG.NO.  NO.  STRM. RCH.    AQUIFER    STRM. RCH.    RUNOFF     PRECIP       ET          HEAD       DEPTH      WIDTH   CONDCTNC.   GRADIENT

   1   13    1     1     1    1.0000E+05 -2.7517E+03   1.0275E+05  0.000E+00  0.000E+00  0.000E+00  4.84072E+01  1.458E-01  2.000E+01  2.000E+04 -1.376E-01
   1   13    2     1     2    1.0275E+05 -3.8602E+03   1.0661E+05  0.000E+00  0.000E+00  0.000E+00  4.79328E+01  1.487E-01  2.000E+01  2.000E+04 -1.930E-01
   1   14    3     1     3    1.0661E+05 -6.5510E+02   1.0727E+05  0.000E+00  0.000E+00  0.000E+00  4.74574E+01  1.506E-01  2.000E+01  2.000E+04 -3.276E-02
   1   15    4     1     4    1.0727E+05 -6.3847E+02   1.0791E+05  0.000E+00  0.000E+00  0.000E+00  4.69807E+01  1.511E-01  2.000E+01  2.000E+04 -3.192E-02
   1   16    5     1     5    1.0791E+05 -2.4513E+03   1.1036E+05  0.000E+00  0.000E+00  0.000E+00  4.65047E+01  1.524E-01  2.000E+01  2.000E+04 -1.226E-01
   1   16    6     1     6    1.1036E+05 -1.4976E+03   1.1185E+05  0.000E+00  0.000E+00  0.000E+00  4.60291E+01  1.541E-01  2.000E+01  2.000E+04 -7.488E-02
   1   16    7     1     7    1.1185E+05 -1.4585E+03   1.1331E+05  0.000E+00  0.000E+00  0.000E+00  4.55530E+01  1.553E-01  2.000E+01  2.000E+04 -7.293E-02
   1   16    8     1     8    1.1331E+05 -1.4426E+03   1.1476E+05  0.000E+00  0.000E+00  0.000E+00  4.50770E+01  1.565E-01  2.000E+01  2.000E+04 -7.213E-02
   1   16    9     1     9    1.1476E+05 -1.4188E+03   1.1617E+05  0.000E+00  0.000E+00  0.000E+00  4.46009E+01  1.577E-01  2.000E+01  2.000E+04 -7.094E-02
   1   16   10     1    10    1.1617E+05 -1.3827E+03   1.1756E+05  0.000E+00  0.000E+00  0.000E+00  4.41247E+01  1.588E-01  2.000E+01  2.000E+04 -6.914E-02
   1   16   11     1    11    1.1756E+05 -1.3596E+03   1.1892E+05  0.000E+00  0.000E+00  0.000E+00  4.36486E+01  1.599E-01  2.000E+01  2.000E+04 -6.798E-02
   1   16   12     1    12    1.1892E+05 -2.3134E+03   1.2123E+05  0.000E+00  0.000E+00  0.000E+00  4.31728E+01  1.614E-01  2.000E+01  2.000E+04 -1.157E-01
   1   15   13     1    13    1.2123E+05 -2.1760E+03   1.2341E+05  0.000E+00  0.000E+00  0.000E+00  4.26973E+01  1.632E-01  2.000E+01  2.000E+04 -1.088E-01
   1   14   14     1    14    1.2341E+05 -2.4016E+03   1.2581E+05  0.000E+00  0.000E+00  0.000E+00  4.22219E+01  1.651E-01  2.000E+01  2.000E+04 -1.201E-01
   1   13   15     1    15    1.2581E+05 -2.6447E+03   1.2845E+05  0.000E+00  0.000E+00  0.000E+00  4.17466E+01  1.671E-01  2.000E+01  2.000E+04 -1.322E-01
   1   12   16     1    16    1.2845E+05 -3.3748E+03   1.3183E+05  0.000E+00  0.000E+00  0.000E+00  4.12717E+01  1.694E-01  2.000E+01  2.000E+04 -1.687E-01
   1   12   17     1    17    1.3183E+05 -1.8592E+03   1.3369E+05  0.000E+00  0.000E+00  0.000E+00  4.07965E+01  1.715E-01  2.000E+01  2.000E+04 -9.296E-02
   1   12   18     1    18    1.3369E+05 -1.5019E+03   1.3519E+05  0.000E+00  0.000E+00  0.000E+00  4.03205E+01  1.728E-01  2.000E+01  2.000E+04 -7.509E-02
   1   12   19     1    19    1.3519E+05 -1.6796E+03   1.3687E+05  0.000E+00  0.000E+00  0.000E+00  3.98444E+01  1.740E-01  2.000E+01  2.000E+04 -8.398E-02
   1   13   20     1    20    1.3687E+05  3.0261E+02   1.3657E+05  0.000E+00  0.000E+00  0.000E+00  3.93677E+01  1.745E-01  2.000E+01  2.000E+04  1.513E-02
   1   14   21     1    21    1.3657E+05  1.5079E+03   1.3506E+05  0.000E+00  0.000E+00  0.000E+00  3.88897E+01  1.738E-01  2.000E+01  2.000E+04  7.540E-02
   1   14   22     1    22    1.3506E+05  5.3050E+03   1.2975E+05  0.000E+00  0.000E+00  0.000E+00  3.84098E+01  1.712E-01  2.000E+01  2.000E+04  2.653E-01
   1    9   30     2     1    5.0000E+04 -3.2157E+02   5.0322E+04  0.000E+00  0.000E+00  0.000E+00  4.02411E+01  1.161E-01  2.000E+01  2.000E+04 -1.608E-02
   1    9   29     2     2    5.0322E+04 -6.0264E+02   5.0924E+04  0.000E+00  0.000E+00  0.000E+00  3.99917E+01  1.167E-01  2.000E+01  2.000E+04 -3.013E-02
   1    9   28     2     3    5.0924E+04 -7.9191E+02   5.1716E+04  0.000E+00  0.000E+00  0.000E+00  3.97427E+01  1.177E-01  2.000E+01  2.000E+04 -3.960E-02
   1    9   27     2     4    5.1716E+04 -1.2447E+03   5.2961E+04  0.000E+00  0.000E+00  0.000E+00  3.94941E+01  1.191E-01  2.000E+01  2.000E+04 -6.223E-02
   1   10   26     2     5    5.2961E+04  3.7751E+02   5.2583E+04  0.000E+00  0.000E+00  0.000E+00  3.92447E+01  1.197E-01  2.000E+01  2.000E+04  1.888E-02
   1   11   25     2     6    5.2583E+04  5.4459E+02   5.2039E+04  0.000E+00  0.000E+00  0.000E+00  3.89940E+01  1.190E-01  2.000E+01  2.000E+04  2.723E-02
   1   12   24     2     7    5.2039E+04 -2.5034E+02   5.2289E+04  0.000E+00  0.000E+00  0.000E+00  3.87438E+01  1.188E-01  2.000E+01  2.000E+04 -1.252E-02
   1   13   23     2     8    5.2289E+04 -1.0323E+02   5.2392E+04  0.000E+00  0.000E+00  0.000E+00  3.84941E+01  1.191E-01  2.000E+01  2.000E+04 -5.162E-03
   1   14   22     2     9    5.2392E+04  1.9649E+03   5.0427E+04  0.000E+00  0.000E+00  0.000E+00  3.82428E+01  1.178E-01  2.000E+01  2.000E+04  9.824E-02
   1   14   22     3     1    1.8018E+05 -8.3153E+03   1.8849E+05  0.000E+00  0.000E+00  0.000E+00  3.77288E+01  1.732E-01  2.000E+01  2.000E+04 -4.158E-01
   1   15   23     3     2    1.8849E+05 -3.6562E+02   1.8886E+05  0.000E+00  0.000E+00  0.000E+00  3.68424E+01  1.757E-01  2.000E+01  2.000E+04 -1.828E-02
   1   15   24     3     3    1.8886E+05 -2.9525E+02   1.8916E+05  0.000E+00  0.000E+00  0.000E+00  3.59536E+01  1.759E-01  2.000E+01  2.000E+04 -1.476E-02
   1   15   25     3     4    1.8916E+05 -2.9254E+02   1.8945E+05  0.000E+00  0.000E+00  0.000E+00  3.50649E+01  1.760E-01  2.000E+01  2.000E+04 -1.463E-02
   1   15   26     3     5    1.8945E+05 -1.5674E+02   1.8961E+05  0.000E+00  0.000E+00  0.000E+00  3.41762E+01  1.762E-01  2.000E+01  2.000E+04 -7.837E-03
   1   16   27     3     6    1.8961E+05  6.9204E+02   1.8891E+05  0.000E+00  0.000E+00  0.000E+00  3.32871E+01  1.760E-01  2.000E+01  2.000E+04  3.460E-02
   1   17   28     3     7    1.8891E+05  4.0554E+03   1.8486E+05  0.000E+00  0.000E+00  0.000E+00  3.23969E+01  1.747E-01  2.000E+01  2.000E+04  2.028E-01
   1   18   29     3     8    1.8486E+05 -2.4809E+03   1.8734E+05  0.000E+00  0.000E+00  0.000E+00  3.15076E+01  1.742E-01  2.000E+01  2.000E+04 -1.240E-01
   1   18   30     3     9    1.8734E+05 -2.5646E+03   1.8990E+05  0.000E+00  0.000E+00  0.000E+00  3.06201E+01  1.757E-01  2.000E+01  2.000E+04 -1.282E-01



1
              HEAD IN LAYER   1 AT END OF TIME STEP   1 IN STRESS PERIOD    3
  ---------------------------------------------------------------------------

          1      2      3      4      5      6      7      8      9     10
         11     12     13     14     15     16     17     18     19     20
         21     22     23     24     25     26     27     28     29     30
 .........................................................................
   1  ****** ****** ****** ****** ****** ****** ****** ****** ****** ******
      ****** ****** ****** ****** ****** ****** ****** ****** ****** ******
      ****** ****** ****** ****** ****** ****** ****** ****** ****** ******
   2  ****** ****** ****** ****** ****** ****** ****** ****** ****** ******
      ****** ****** ****** ****** ****** ****** ****** ****** ****** ******
      ****** ****** ****** ****** ****** ****** ****** ****** ****** ******
   3  ****** ****** ****** ****** ****** ****** ****** ****** ****** ******
      ****** ****** ****** ****** ****** ****** ****** ****** ****** ******
      ****** ****** ****** ****** ****** ****** ****** ****** ****** ******
   4  ****** ****** ****** ****** ****** ****** ****** ****** ****** ******
      ****** ****** ****** ****** ****** ****** ****** ****** ****** ******
      ****** ****** ****** ****** ****** ****** ****** ****** ****** ******
   5  ****** ****** ****** ****** ****** ****** ****** ****** ****** ******
      ****** ****** ****** ****** ****** ****** ****** ****** ****** ******
      ****** ****** ****** ****** ****** ****** ****** ****** ****** ******
   6  ****** ****** ****** ****** ****** ****** ****** ****** ****** ******
      ****** ****** ****** ****** ****** ****** ****** ****** ****** ******
      ****** ****** ****** ****** ****** ****** ****** ****** ****** ******
   7  ****** ****** ****** ****** ****** ****** ****** ****** ****** ******
      ****** ****** ****** ****** ****** ****** ****** ****** ****** ******
      ****** ****** ****** ****** ****** ****** ****** ****** ****** ******
   8  ****** ****** ****** ****** ****** ****** ****** ****** ****** ******
      ****** ****** ****** ****** ****** ****** ****** ****** ****** ******
      ****** ****** ****** ****** ****** ****** ****** ****** ****** ******
   9  ****** ****** ****** ****** ****** ****** ****** ****** ****** ******
      ****** ****** ****** ****** ****** ****** ****** ****** ****** ******
      ****** ****** ****** ****** ****** ****** ****** ****** ****** ******
  10  ****** ****** ****** ****** ****** ****** ****** ****** ****** ******
      ****** ****** ****** ****** ****** ****** ****** ****** ****** ******
      ****** ****** ****** ****** ****** ****** ****** ****** ****** ******
  11  ****** ****** ****** ****** ****** ****** ****** ****** ****** ******
      ****** ****** ****** ****** ****** ****** ****** ****** ****** ******
      ****** ****** ****** ****** ****** ****** ****** ****** ****** ******
  12  ****** ****** ****** ****** ****** ****** ****** ****** ****** ******
      ****** ****** ****** ****** ****** ****** ****** ****** ****** ******
      ****** ****** ****** ****** ****** ****** ****** ****** ****** ******
  13  ****** ****** ****** ****** ****** ****** ****** ****** ****** ******
      ****** ****** ****** ****** ****** ****** ****** ****** ****** ******
      ****** ****** ****** ****** ****** ****** ****** ****** ****** ******
  14  ****** ****** ****** ****** ****** ****** ****** ****** ****** ******
      ****** ****** ****** ****** ****** ****** ****** ****** ****** ******
      ****** ****** ****** ****** ****** ****** ****** ****** ****** ******
  15  ****** ****** ****** ****** ****** ****** ****** ****** ****** ******
      ****** ****** ****** ****** ****** ****** ****** ****** ****** ******
      ****** ****** ****** ****** ****** ****** ****** ****** ****** ******
  16  ****** ****** ****** ****** ****** ****** ****** ****** ****** ******
      ****** ****** ****** ****** ****** ****** ****** ****** ****** ******
      ****** ****** ****** ****** ****** ****** ****** ****** ****** ******
  17  ****** ****** ****** ****** ****** ****** ****** ****** ****** ******
      ****** ****** ****** ****** ****** ****** ****** ****** ****** ******
      ****** ****** ****** ****** ****** ****** ****** ****** ****** ******
  18  ****** ****** ****** ****** ****** ****** ****** ****** ****** ******
      ****** ****** ****** ****** ****** ****** ****** ****** ****** ******
      ****** ****** ****** ****** ****** ****** ****** ****** ****** ******
  19  ****** ****** ****** ****** ****** ****** ****** ****** ****** ******
      ****** ****** ****** ****** ****** ****** ****** ****** ****** ******
      ****** ****** ****** ****** ****** ****** ****** ****** ****** ******
  20  ****** ****** ****** ****** ****** ****** ****** ****** ****** ******
      ****** ****** ****** ****** ****** ****** ****** ****** ****** ******
      ****** ****** ****** ****** ****** ****** ****** ****** ****** ******
  21  ****** ****** ****** ****** ****** ****** ****** ****** ****** ******
      ****** ****** ****** ****** ****** ****** ****** ****** ****** ******
      ****** ****** ****** ****** ****** ****** ****** ****** ****** ******
  22  ****** ****** ****** ****** ****** ****** ****** ****** ****** ******
      ****** ****** ****** ****** ****** ****** ****** ****** ****** ******
      ****** ****** ****** ****** ****** ****** ****** ****** ****** ******
  23  ****** ****** ****** ****** ****** ****** ****** ****** ****** ******
      ****** ****** ****** ****** ****** ****** ****** ****** ****** ******
      ****** ****** ****** ****** ****** ****** ****** ****** ****** ******
  24  ****** ****** ****** ****** ****** ****** ****** ****** ****** ******
      ****** ****** ****** ****** ****** ****** ****** ****** ****** ******
      ****** ****** ****** ****** ****** ****** ****** ****** ****** ******
  25  ****** ****** ****** ****** ****** ****** ****** ****** ****** ******
      ****** ****** ****** ****** ****** ****** ****** ****** ****** ******
      ****** ****** ****** ****** ****** ****** ****** ****** ****** ******

 HEAD WILL BE SAVED ON UNIT   51 AT END OF TIME STEP    1, STRESS PERIOD    3
1
  VOLUMETRIC BUDGET FOR ENTIRE MODEL AT END OF TIME STEP    1, STRESS PERIOD   3
  ------------------------------------------------------------------------------

     CUMULATIVE VOLUMES      L**3       RATES FOR THIS TIME STEP      L**3/T
     ------------------                 ------------------------

           IN:                                      IN:
           ---                                      ---
             STORAGE =    27705631.3769               STORAGE =       54983.2695
       CONSTANT HEAD =     5065338.7541         CONSTANT HEAD =       25742.9036
               WELLS =           0.0000                 WELLS =           0.0000
            RECHARGE =     6292800.0000              RECHARGE =           0.0000
      STREAM LEAKAGE =     2601195.1691        STREAM LEAKAGE =       14750.0593

            TOTAL IN =    41664965.3002              TOTAL IN =       95476.2325

          OUT:                                     OUT:
          ----                                     ----
             STORAGE =           0.0000               STORAGE =           0.0000
       CONSTANT HEAD =           0.0000         CONSTANT HEAD =           0.0000
               WELLS =    11185533.8058                 WELLS =       40823.1161
            RECHARGE =           0.0000              RECHARGE =           0.0000
      STREAM LEAKAGE =    30479433.3930        STREAM LEAKAGE =       54653.1239

           TOTAL OUT =    41664967.1988             TOTAL OUT =       95476.2399

            IN - OUT =          -1.8987              IN - OUT =      -7.4737E-03

 PERCENT DISCREPANCY =          -0.00     PERCENT DISCREPANCY =          -0.00






         TIME SUMMARY AT END OF TIME STEP    1 IN STRESS PERIOD    3
                    SECONDS     MINUTES      HOURS       DAYS        YEARS
                    -----------------------------------------------------------
   TIME STEP LENGTH 7.86240E+06 1.31040E+05  2184.0      91.000     0.24914    
 STRESS PERIOD TIME 7.86240E+06 1.31040E+05  2184.0      91.000     0.24914    
         TOTAL TIME 2.36736E+07 3.94560E+05  6576.0      274.00     0.75017    
1
1
                            STRESS PERIOD NO.    4, LENGTH =   91.00000    
                            -----------------------------------------------

                              NUMBER OF TIME STEPS =     1

                               MULTIPLIER FOR DELT =     1.500

                            INITIAL TIME STEP SIZE =   91.00000    

 WELL NO.  LAYER   ROW   COL   STRESS RATE         
 --------------------------------------------------
      1      1      5     20      -7739.    
      2      1      9     24     -0.1035E+05
      3      1     15     20     -0.1191E+05
      4      1     16     28     -0.1082E+05

      4 WELLS

                 RECHARGE =  1.000000E-03

 REUSING STREAM SEGMENT DATA FROM LAST STRESS PERIOD
 
 SOLVING FOR HEAD 


     6 CALLS TO PCG ROUTINE FOR TIME STEP   1 IN STRESS PERIOD    4
    23 TOTAL ITERATIONS

 OUTPUT CONTROL FOR STRESS PERIOD    4   TIME STEP    1
    SAVE BUDGET
    SAVE HEAD FOR ALL LAYERS
    PRINT HEAD FOR ALL LAYERS
 UBDSV2 SAVING "STREAMFLOW OUT  " ON UNIT  50 AT TIME STEP  1, STRESS PERIOD   4



 STREAM LISTING     PERIOD      4   STEP        1

 LAYER ROW COL. STREAM  RCH.  FLOW INTO     FLOW TO   FLOW OUT OF   OVRLND.     DIRECT     STREAM       STREAM     STREAM     STREAM   STREAMBED  STREAMBED
                SEG.NO.  NO.  STRM. RCH.    AQUIFER    STRM. RCH.    RUNOFF     PRECIP       ET          HEAD       DEPTH      WIDTH   CONDCTNC.   GRADIENT

   1   13    1     1     1    1.0000E+05 -2.5169E+03   1.0252E+05  0.000E+00  0.000E+00  0.000E+00  4.84071E+01  1.457E-01  2.000E+01  2.000E+04 -1.258E-01
   1   13    2     1     2    1.0252E+05 -3.5874E+03   1.0610E+05  0.000E+00  0.000E+00  0.000E+00  4.79325E+01  1.484E-01  2.000E+01  2.000E+04 -1.794E-01
   1   14    3     1     3    1.0610E+05 -6.2697E+02   1.0673E+05  0.000E+00  0.000E+00  0.000E+00  4.74570E+01  1.502E-01  2.000E+01  2.000E+04 -3.135E-02
   1   15    4     1     4    1.0673E+05 -6.0056E+02   1.0733E+05  0.000E+00  0.000E+00  0.000E+00  4.69802E+01  1.507E-01  2.000E+01  2.000E+04 -3.003E-02
   1   16    5     1     5    1.0733E+05 -2.1509E+03   1.0948E+05  0.000E+00  0.000E+00  0.000E+00  4.65041E+01  1.518E-01  2.000E+01  2.000E+04 -1.075E-01
   1   16    6     1     6    1.0948E+05 -1.3500E+03   1.1083E+05  0.000E+00  0.000E+00  0.000E+00  4.60283E+01  1.533E-01  2.000E+01  2.000E+04 -6.750E-02
   1   16    7     1     7    1.1083E+05 -1.3220E+03   1.1215E+05  0.000E+00  0.000E+00  0.000E+00  4.55521E+01  1.544E-01  2.000E+01  2.000E+04 -6.610E-02
   1   16    8     1     8    1.1215E+05 -1.3101E+03   1.1346E+05  0.000E+00  0.000E+00  0.000E+00  4.50760E+01  1.555E-01  2.000E+01  2.000E+04 -6.551E-02
   1   16    9     1     9    1.1346E+05 -1.2889E+03   1.1475E+05  0.000E+00  0.000E+00  0.000E+00  4.45998E+01  1.566E-01  2.000E+01  2.000E+04 -6.445E-02
   1   16   10     1    10    1.1475E+05 -1.2558E+03   1.1601E+05  0.000E+00  0.000E+00  0.000E+00  4.41235E+01  1.576E-01  2.000E+01  2.000E+04 -6.279E-02
   1   16   11     1    11    1.1601E+05 -1.2321E+03   1.1724E+05  0.000E+00  0.000E+00  0.000E+00  4.36473E+01  1.586E-01  2.000E+01  2.000E+04 -6.161E-02
   1   16   12     1    12    1.1724E+05 -2.0433E+03   1.1928E+05  0.000E+00  0.000E+00  0.000E+00  4.31713E+01  1.600E-01  2.000E+01  2.000E+04 -1.022E-01
   1   15   13     1    13    1.1928E+05 -1.9222E+03   1.2121E+05  0.000E+00  0.000E+00  0.000E+00  4.26957E+01  1.616E-01  2.000E+01  2.000E+04 -9.611E-02
   1   14   14     1    14    1.2121E+05 -2.1221E+03   1.2333E+05  0.000E+00  0.000E+00  0.000E+00  4.22200E+01  1.632E-01  2.000E+01  2.000E+04 -1.061E-01
   1   13   15     1    15    1.2333E+05 -2.3351E+03   1.2566E+05  0.000E+00  0.000E+00  0.000E+00  4.17445E+01  1.650E-01  2.000E+01  2.000E+04 -1.168E-01
   1   12   16     1    16    1.2566E+05 -2.9564E+03   1.2862E+05  0.000E+00  0.000E+00  0.000E+00  4.12693E+01  1.671E-01  2.000E+01  2.000E+04 -1.478E-01
   1   12   17     1    17    1.2862E+05 -1.6045E+03   1.3023E+05  0.000E+00  0.000E+00  0.000E+00  4.07939E+01  1.689E-01  2.000E+01  2.000E+04 -8.022E-02
   1   12   18     1    18    1.3023E+05 -1.2621E+03   1.3149E+05  0.000E+00  0.000E+00  0.000E+00  4.03177E+01  1.700E-01  2.000E+01  2.000E+04 -6.310E-02
   1   12   19     1    19    1.3149E+05 -1.3742E+03   1.3286E+05  0.000E+00  0.000E+00  0.000E+00  3.98415E+01  1.710E-01  2.000E+01  2.000E+04 -6.871E-02
   1   13   20     1    20    1.3286E+05  4.9540E+02   1.3237E+05  0.000E+00  0.000E+00  0.000E+00  3.93645E+01  1.713E-01  2.000E+01  2.000E+04  2.477E-02
   1   14   21     1    21    1.3237E+05  1.7518E+03   1.3061E+05  0.000E+00  0.000E+00  0.000E+00  3.88864E+01  1.705E-01  2.000E+01  2.000E+04  8.759E-02
   1   14   22     1    22    1.3061E+05  5.3466E+03   1.2527E+05  0.000E+00  0.000E+00  0.000E+00  3.84063E+01  1.677E-01  2.000E+01  2.000E+04  2.673E-01
   1    9   30     2     1    5.0000E+04 -2.0556E+02   5.0206E+04  0.000E+00  0.000E+00  0.000E+00  4.02410E+01  1.160E-01  2.000E+01  2.000E+04 -1.028E-02
   1    9   29     2     2    5.0206E+04 -4.7860E+02   5.0684E+04  0.000E+00  0.000E+00  0.000E+00  3.99915E+01  1.165E-01  2.000E+01  2.000E+04 -2.393E-02
   1    9   28     2     3    5.0684E+04 -6.4473E+02   5.1329E+04  0.000E+00  0.000E+00  0.000E+00  3.97423E+01  1.173E-01  2.000E+01  2.000E+04 -3.224E-02
   1    9   27     2     4    5.1329E+04 -9.2237E+02   5.2251E+04  0.000E+00  0.000E+00  0.000E+00  3.94933E+01  1.183E-01  2.000E+01  2.000E+04 -4.612E-02
   1   10   26     2     5    5.2251E+04  5.7771E+02   5.1674E+04  0.000E+00  0.000E+00  0.000E+00  3.92436E+01  1.186E-01  2.000E+01  2.000E+04  2.889E-02
   1   11   25     2     6    5.1674E+04  6.9843E+02   5.0975E+04  0.000E+00  0.000E+00  0.000E+00  3.89927E+01  1.177E-01  2.000E+01  2.000E+04  3.492E-02
   1   12   24     2     7    5.0975E+04 -1.1882E+02   5.1094E+04  0.000E+00  0.000E+00  0.000E+00  3.87423E+01  1.173E-01  2.000E+01  2.000E+04 -5.941E-03
   1   13   23     2     8    5.1094E+04 -1.2393E+02   5.1218E+04  0.000E+00  0.000E+00  0.000E+00  3.84925E+01  1.175E-01  2.000E+01  2.000E+04 -6.197E-03
   1   14   22     2     9    5.1218E+04  2.0427E+03   4.9175E+04  0.000E+00  0.000E+00  0.000E+00  3.82411E+01  1.161E-01  2.000E+01  2.000E+04  1.021E-01
   1   14   22     3     1    1.7444E+05 -8.2694E+03   1.8271E+05  0.000E+00  0.000E+00  0.000E+00  3.77255E+01  1.700E-01  2.000E+01  2.000E+04 -4.135E-01
   1   15   23     3     2    1.8271E+05 -3.3954E+02   1.8305E+05  0.000E+00  0.000E+00  0.000E+00  3.68391E+01  1.724E-01  2.000E+01  2.000E+04 -1.698E-02
   1   15   24     3     3    1.8305E+05 -2.9269E+02   1.8334E+05  0.000E+00  0.000E+00  0.000E+00  3.59504E+01  1.726E-01  2.000E+01  2.000E+04 -1.463E-02
   1   15   25     3     4    1.8334E+05 -2.8974E+02   1.8363E+05  0.000E+00  0.000E+00  0.000E+00  3.50617E+01  1.728E-01  2.000E+01  2.000E+04 -1.449E-02
   1   15   26     3     5    1.8363E+05 -1.6225E+02   1.8380E+05  0.000E+00  0.000E+00  0.000E+00  3.41729E+01  1.729E-01  2.000E+01  2.000E+04 -8.113E-03
   1   16   27     3     6    1.8380E+05  6.9565E+02   1.8310E+05  0.000E+00  0.000E+00  0.000E+00  3.32839E+01  1.727E-01  2.000E+01  2.000E+04  3.478E-02
   1   17   28     3     7    1.8310E+05  4.1327E+03   1.7897E+05  0.000E+00  0.000E+00  0.000E+00  3.23936E+01  1.714E-01  2.000E+01  2.000E+04  2.066E-01
   1   18   29     3     8    1.7897E+05 -2.2538E+03   1.8122E+05  0.000E+00  0.000E+00  0.000E+00  3.15042E+01  1.708E-01  2.000E+01  2.000E+04 -1.127E-01
   1   18   30     3     9    1.8122E+05 -2.4486E+03   1.8367E+05  0.000E+00  0.000E+00  0.000E+00  3.06166E+01  1.722E-01  2.000E+01  2.000E+04 -1.224E-01



1
              HEAD IN LAYER   1 AT END OF TIME STEP   1 IN STRESS PERIOD    4
  ---------------------------------------------------------------------------

          1      2      3      4      5      6      7      8      9     10
         11     12     13     14     15     16     17     18     19     20
         21     22     23     24     25     26     27     28     29     30
 .........................................................................
   1  ****** ****** ****** ****** ****** ****** ****** ****** ****** ******
      ****** ****** ****** ****** ****** ****** ****** ****** ****** ******
      ****** ****** ****** ****** ****** ****** ****** ****** ****** ******
   2  ****** ****** ****** ****** ****** ****** ****** ****** ****** ******
      ****** ****** ****** ****** ****** ****** ****** ****** ****** ******
      ****** ****** ****** ****** ****** ****** ****** ****** ****** ******
   3  ****** ****** ****** ****** ****** ****** ****** ****** ****** ******
      ****** ****** ****** ****** ****** ****** ****** ****** ****** ******
      ****** ****** ****** ****** ****** ****** ****** ****** ****** ******
   4  ****** ****** ****** ****** ****** ****** ****** ****** ****** ******
      ****** ****** ****** ****** ****** ****** ****** ****** ****** ******
      ****** ****** ****** ****** ****** ****** ****** ****** ****** ******
   5  ****** ****** ****** ****** ****** ****** ****** ****** ****** ******
      ****** ****** ****** ****** ****** ****** ****** ****** ****** ******
      ****** ****** ****** ****** ****** ****** ****** ****** ****** ******
   6  ****** ****** ****** ****** ****** ****** ****** ****** ****** ******
      ****** ****** ****** ****** ****** ****** ****** ****** ****** ******
      ****** ****** ****** ****** ****** ****** ****** ****** ****** ******
   7  ****** ****** ****** ****** ****** ****** ****** ****** ****** ******
      ****** ****** ****** ****** ****** ****** ****** ****** ****** ******
      ****** ****** ****** ****** ****** ****** ****** ****** ****** ******
   8  ****** ****** ****** ****** ****** ****** ****** ****** ****** ******
      ****** ****** ****** ****** ****** ****** ****** ****** ****** ******
      ****** ****** ****** ****** ****** ****** ****** ****** ****** ******
   9  ****** ****** ****** ****** ****** ****** ****** ****** ****** ******
      ****** ****** ****** ****** ****** ****** ****** ****** ****** ******
      ****** ****** ****** ****** ****** ****** ****** ****** ****** ******
  10  ****** ****** ****** ****** ****** ****** ****** ****** ****** ******
      ****** ****** ****** ****** ****** ****** ****** ****** ****** ******
      ****** ****** ****** ****** ****** ****** ****** ****** ****** ******
  11  ****** ****** ****** ****** ****** ****** ****** ****** ****** ******
      ****** ****** ****** ****** ****** ****** ****** ****** ****** ******
      ****** ****** ****** ****** ****** ****** ****** ****** ****** ******
  12  ****** ****** ****** ****** ****** ****** ****** ****** ****** ******
      ****** ****** ****** ****** ****** ****** ****** ****** ****** ******
      ****** ****** ****** ****** ****** ****** ****** ****** ****** ******
  13  ****** ****** ****** ****** ****** ****** ****** ****** ****** ******
      ****** ****** ****** ****** ****** ****** ****** ****** ****** ******
      ****** ****** ****** ****** ****** ****** ****** ****** ****** ******
  14  ****** ****** ****** ****** ****** ****** ****** ****** ****** ******
      ****** ****** ****** ****** ****** ****** ****** ****** ****** ******
      ****** ****** ****** ****** ****** ****** ****** ****** ****** ******
  15  ****** ****** ****** ****** ****** ****** ****** ****** ****** ******
      ****** ****** ****** ****** ****** ****** ****** ****** ****** ******
      ****** ****** ****** ****** ****** ****** ****** ****** ****** ******
  16  ****** ****** ****** ****** ****** ****** ****** ****** ****** ******
      ****** ****** ****** ****** ****** ****** ****** ****** ****** ******
      ****** ****** ****** ****** ****** ****** ****** ****** ****** ******
  17  ****** ****** ****** ****** ****** ****** ****** ****** ****** ******
      ****** ****** ****** ****** ****** ****** ****** ****** ****** ******
      ****** ****** ****** ****** ****** ****** ****** ****** ****** ******
  18  ****** ****** ****** ****** ****** ****** ****** ****** ****** ******
      ****** ****** ****** ****** ****** ****** ****** ****** ****** ******
      ****** ****** ****** ****** ****** ****** ****** ****** ****** ******
  19  ****** ****** ****** ****** ****** ****** ****** ****** ****** ******
      ****** ****** ****** ****** ****** ****** ****** ****** ****** ******
      ****** ****** ****** ****** ****** ****** ****** ****** ****** ******
  20  ****** ****** ****** ****** ****** ****** ****** ****** ****** ******
      ****** ****** ****** ****** ****** ****** ****** ****** ****** ******
      ****** ****** ****** ****** ****** ****** ****** ****** ****** ******
  21  ****** ****** ****** ****** ****** ****** ****** ****** ****** ******
      ****** ****** ****** ****** ****** ****** ****** ****** ****** ******
      ****** ****** ****** ****** ****** ****** ****** ****** ****** ******
  22  ****** ****** ****** ****** ****** ****** ****** ****** ****** ******
      ****** ****** ****** ****** ****** ****** ****** ****** ****** ******
      ****** ****** ****** ****** ****** ****** ****** ****** ****** ******
  23  ****** ****** ****** ****** ****** ****** ****** ****** ****** ******
      ****** ****** ****** ****** ****** ****** ****** ****** ****** ******
      ****** ****** ****** ****** ****** ****** ****** ****** ****** ******
  24  ****** ****** ****** ****** ****** ****** ****** ****** ****** ******
      ****** ****** ****** ****** ****** ****** ****** ****** ****** ******
      ****** ****** ****** ****** ****** ****** ****** ****** ****** ******
  25  ****** ****** ****** ****** ****** ****** ****** ****** ****** ******
      ****** ****** ****** ****** ****** ****** ****** ****** ****** ******
      ****** ****** ****** ****** ****** ****** ****** ****** ****** ******

 HEAD WILL BE SAVED ON UNIT   51 AT END OF TIME STEP    1, STRESS PERIOD    4
1
  VOLUMETRIC BUDGET FOR ENTIRE MODEL AT END OF TIME STEP    1, STRESS PERIOD   4
  ------------------------------------------------------------------------------

     CUMULATIVE VOLUMES      L**3       RATES FOR THIS TIME STEP      L**3/T
     ------------------                 ------------------------

           IN:                                      IN:
           ---                                      ---
             STORAGE =    29392619.5854               STORAGE =       18538.3320
       CONSTANT HEAD =     7646343.9302         CONSTANT HEAD =       28362.6942
               WELLS =           0.0000                 WELLS =           0.0000
            RECHARGE =     8804400.0000              RECHARGE =       27600.0000
      STREAM LEAKAGE =     4033619.7481        STREAM LEAKAGE =       15740.9294

            TOTAL IN =    49876983.2637              TOTAL IN =       90241.9556

          OUT:                                     OUT:
          ----                                     ----
             STORAGE =         676.8474               STORAGE =           7.4379
       CONSTANT HEAD =           0.0000         CONSTANT HEAD =           0.0000
               WELLS =    14900437.3691                 WELLS =       40823.1161
            RECHARGE =           0.0000              RECHARGE =           0.0000
      STREAM LEAKAGE =    34975871.0166        STREAM LEAKAGE =       49411.4025

           TOTAL OUT =    49876985.2330             TOTAL OUT =       90241.9564

            IN - OUT =          -1.9693              IN - OUT =      -7.7617E-04

 PERCENT DISCREPANCY =          -0.00     PERCENT DISCREPANCY =          -0.00






         TIME SUMMARY AT END OF TIME STEP    1 IN STRESS PERIOD    4
                    SECONDS     MINUTES      HOURS       DAYS        YEARS
                    -----------------------------------------------------------
   TIME STEP LENGTH 7.86240E+06 1.31040E+05  2184.0      91.000     0.24914    
 STRESS PERIOD TIME 7.86240E+06 1.31040E+05  2184.0      91.000     0.24914    
         TOTAL TIME 3.15360E+07 5.25600E+05  8760.0      365.00     0.99932    
1
1
                            STRESS PERIOD NO.    5, LENGTH =   92.00000    
                            -----------------------------------------------

                              NUMBER OF TIME STEPS =     1

                               MULTIPLIER FOR DELT =     1.500

                            INITIAL TIME STEP SIZE =   92.00000    

 WELL NO.  LAYER   ROW   COL   STRESS RATE         
 --------------------------------------------------
      1      1      5     20      -7739.    
      2      1      9     24     -0.1035E+05
      3      1     15     20     -0.1191E+05
      4      1     16     28     -0.1082E+05

      4 WELLS

                 RECHARGE =  5.000000E-04

 REUSING STREAM SEGMENT DATA FROM LAST STRESS PERIOD
 
 SOLVING FOR HEAD 


     7 CALLS TO PCG ROUTINE FOR TIME STEP   1 IN STRESS PERIOD    5
    26 TOTAL ITERATIONS

 OUTPUT CONTROL FOR STRESS PERIOD    5   TIME STEP    1
    SAVE BUDGET
    SAVE HEAD FOR ALL LAYERS
    PRINT HEAD FOR ALL LAYERS
 UBDSV2 SAVING "STREAMFLOW OUT  " ON UNIT  50 AT TIME STEP  1, STRESS PERIOD   5



 STREAM LISTING     PERIOD      5   STEP        1

 LAYER ROW COL. STREAM  RCH.  FLOW INTO     FLOW TO   FLOW OUT OF   OVRLND.     DIRECT     STREAM       STREAM     STREAM     STREAM   STREAMBED  STREAMBED
                SEG.NO.  NO.  STRM. RCH.    AQUIFER    STRM. RCH.    RUNOFF     PRECIP       ET          HEAD       DEPTH      WIDTH   CONDCTNC.   GRADIENT

   1   13    1     1     1    1.0000E+05 -2.1019E+03   1.0210E+05  0.000E+00  0.000E+00  0.000E+00  4.84069E+01  1.456E-01  2.000E+01  2.000E+04 -1.051E-01
   1   13    2     1     2    1.0210E+05 -3.1186E+03   1.0522E+05  0.000E+00  0.000E+00  0.000E+00  4.79319E+01  1.478E-01  2.000E+01  2.000E+04 -1.559E-01
   1   14    3     1     3    1.0522E+05 -5.0504E+02   1.0573E+05  0.000E+00  0.000E+00  0.000E+00  4.74562E+01  1.494E-01  2.000E+01  2.000E+04 -2.525E-02
   1   15    4     1     4    1.0573E+05 -4.7215E+02   1.0620E+05  0.000E+00  0.000E+00  0.000E+00  4.69793E+01  1.498E-01  2.000E+01  2.000E+04 -2.361E-02
   1   16    5     1     5    1.0620E+05 -1.7217E+03   1.0792E+05  0.000E+00  0.000E+00  0.000E+00  4.65030E+01  1.507E-01  2.000E+01  2.000E+04 -8.609E-02
   1   16    6     1     6    1.0792E+05 -1.0987E+03   1.0902E+05  0.000E+00  0.000E+00  0.000E+00  4.60269E+01  1.519E-01  2.000E+01  2.000E+04 -5.494E-02
   1   16    7     1     7    1.0902E+05 -1.0811E+03   1.1010E+05  0.000E+00  0.000E+00  0.000E+00  4.55505E+01  1.528E-01  2.000E+01  2.000E+04 -5.405E-02
   1   16    8     1     8    1.1010E+05 -1.0728E+03   1.1117E+05  0.000E+00  0.000E+00  0.000E+00  4.50742E+01  1.537E-01  2.000E+01  2.000E+04 -5.364E-02
   1   16    9     1     9    1.1117E+05 -1.0545E+03   1.1223E+05  0.000E+00  0.000E+00  0.000E+00  4.45978E+01  1.546E-01  2.000E+01  2.000E+04 -5.272E-02
   1   16   10     1    10    1.1223E+05 -1.0247E+03   1.1325E+05  0.000E+00  0.000E+00  0.000E+00  4.41214E+01  1.554E-01  2.000E+01  2.000E+04 -5.123E-02
   1   16   11     1    11    1.1325E+05 -1.0004E+03   1.1425E+05  0.000E+00  0.000E+00  0.000E+00  4.36449E+01  1.563E-01  2.000E+01  2.000E+04 -5.002E-02
   1   16   12     1    12    1.1425E+05 -1.6276E+03   1.1588E+05  0.000E+00  0.000E+00  0.000E+00  4.31687E+01  1.574E-01  2.000E+01  2.000E+04 -8.138E-02
   1   15   13     1    13    1.1588E+05 -1.4824E+03   1.1736E+05  0.000E+00  0.000E+00  0.000E+00  4.26927E+01  1.586E-01  2.000E+01  2.000E+04 -7.412E-02
   1   14   14     1    14    1.1736E+05 -1.6525E+03   1.1901E+05  0.000E+00  0.000E+00  0.000E+00  4.22167E+01  1.599E-01  2.000E+01  2.000E+04 -8.263E-02
   1   13   15     1    15    1.1901E+05 -1.8454E+03   1.2086E+05  0.000E+00  0.000E+00  0.000E+00  4.17409E+01  1.613E-01  2.000E+01  2.000E+04 -9.227E-02
   1   12   16     1    16    1.2086E+05 -2.4139E+03   1.2327E+05  0.000E+00  0.000E+00  0.000E+00  4.12653E+01  1.630E-01  2.000E+01  2.000E+04 -1.207E-01
   1   12   17     1    17    1.2327E+05 -1.2401E+03   1.2451E+05  0.000E+00  0.000E+00  0.000E+00  4.07895E+01  1.645E-01  2.000E+01  2.000E+04 -6.201E-02
   1   12   18     1    18    1.2451E+05 -9.1438E+02   1.2543E+05  0.000E+00  0.000E+00  0.000E+00  4.03131E+01  1.654E-01  2.000E+01  2.000E+04 -4.572E-02
   1   12   19     1    19    1.2543E+05 -9.4936E+02   1.2638E+05  0.000E+00  0.000E+00  0.000E+00  3.98365E+01  1.661E-01  2.000E+01  2.000E+04 -4.747E-02
   1   13   20     1    20    1.2638E+05  8.5937E+02   1.2552E+05  0.000E+00  0.000E+00  0.000E+00  3.93593E+01  1.661E-01  2.000E+01  2.000E+04  4.297E-02
   1   14   21     1    21    1.2552E+05  2.1348E+03   1.2338E+05  0.000E+00  0.000E+00  0.000E+00  3.88808E+01  1.649E-01  2.000E+01  2.000E+04  1.067E-01
   1   14   22     1    22    1.2338E+05  5.4292E+03   1.1795E+05  0.000E+00  0.000E+00  0.000E+00  3.84005E+01  1.619E-01  2.000E+01  2.000E+04  2.715E-01
   1    9   30     2     1    5.0000E+04  3.7272E+01   4.9963E+04  0.000E+00  0.000E+00  0.000E+00  4.02408E+01  1.158E-01  2.000E+01  2.000E+04  1.864E-03
   1    9   29     2     2    4.9963E+04 -2.3178E+02   5.0195E+04  0.000E+00  0.000E+00  0.000E+00  3.99910E+01  1.160E-01  2.000E+01  2.000E+04 -1.159E-02
   1    9   28     2     3    5.0195E+04 -3.8481E+02   5.0579E+04  0.000E+00  0.000E+00  0.000E+00  3.97414E+01  1.164E-01  2.000E+01  2.000E+04 -1.924E-02
   1    9   27     2     4    5.0579E+04 -5.0987E+02   5.1089E+04  0.000E+00  0.000E+00  0.000E+00  3.94920E+01  1.170E-01  2.000E+01  2.000E+04 -2.549E-02
   1   10   26     2     5    5.1089E+04  9.3509E+02   5.0154E+04  0.000E+00  0.000E+00  0.000E+00  3.92417E+01  1.167E-01  2.000E+01  2.000E+04  4.675E-02
   1   11   25     2     6    5.0154E+04  1.0252E+03   4.9129E+04  0.000E+00  0.000E+00  0.000E+00  3.89904E+01  1.154E-01  2.000E+01  2.000E+04  5.126E-02
   1   12   24     2     7    4.9129E+04  1.7922E+02   4.8950E+04  0.000E+00  0.000E+00  0.000E+00  3.87395E+01  1.145E-01  2.000E+01  2.000E+04  8.961E-03
   1   13   23     2     8    4.8950E+04 -5.3449E+01   4.9003E+04  0.000E+00  0.000E+00  0.000E+00  3.84894E+01  1.144E-01  2.000E+01  2.000E+04 -2.672E-03
   1   14   22     2     9    4.9003E+04  2.1770E+03   4.6826E+04  0.000E+00  0.000E+00  0.000E+00  3.82379E+01  1.129E-01  2.000E+01  2.000E+04  1.089E-01
   1   14   22     3     1    1.6478E+05 -8.1832E+03   1.7296E+05  0.000E+00  0.000E+00  0.000E+00  3.77199E+01  1.644E-01  2.000E+01  2.000E+04 -4.092E-01
   1   15   23     3     2    1.7296E+05 -2.3990E+02   1.7320E+05  0.000E+00  0.000E+00  0.000E+00  3.68335E+01  1.668E-01  2.000E+01  2.000E+04 -1.199E-02
   1   15   24     3     3    1.7320E+05 -2.1964E+02   1.7342E+05  0.000E+00  0.000E+00  0.000E+00  3.59447E+01  1.670E-01  2.000E+01  2.000E+04 -1.098E-02
   1   15   25     3     4    1.7342E+05 -2.1730E+02   1.7364E+05  0.000E+00  0.000E+00  0.000E+00  3.50560E+01  1.671E-01  2.000E+01  2.000E+04 -1.087E-02
   1   15   26     3     5    1.7364E+05 -8.8845E+01   1.7373E+05  0.000E+00  0.000E+00  0.000E+00  3.41672E+01  1.672E-01  2.000E+01  2.000E+04 -4.442E-03
   1   16   27     3     6    1.7373E+05  7.8781E+02   1.7294E+05  0.000E+00  0.000E+00  0.000E+00  3.32781E+01  1.670E-01  2.000E+01  2.000E+04  3.939E-02
   1   17   28     3     7    1.7294E+05  4.4061E+03   1.6854E+05  0.000E+00  0.000E+00  0.000E+00  3.23877E+01  1.655E-01  2.000E+01  2.000E+04  2.203E-01
   1   18   29     3     8    1.6854E+05 -1.8727E+03   1.7041E+05  0.000E+00  0.000E+00  0.000E+00  3.14981E+01  1.647E-01  2.000E+01  2.000E+04 -9.364E-02
   1   18   30     3     9    1.7041E+05 -2.1863E+03   1.7259E+05  0.000E+00  0.000E+00  0.000E+00  3.06103E+01  1.659E-01  2.000E+01  2.000E+04 -1.093E-01



1
              HEAD IN LAYER   1 AT END OF TIME STEP   1 IN STRESS PERIOD    5
  ---------------------------------------------------------------------------

          1      2      3      4      5      6      7      8      9     10
         11     12     13     14     15     16     17     18     19     20
         21     22     23     24     25     26     27     28     29     30
 .........................................................................
   1  ****** ****** ****** ****** ****** ****** ****** ****** ****** ******
      ****** ****** ****** ****** ****** ****** ****** ****** ****** ******
      ****** ****** ****** ****** ****** ****** ****** ****** ****** ******
   2  ****** ****** ****** ****** ****** ****** ****** ****** ****** ******
      ****** ****** ****** ****** ****** ****** ****** ****** ****** ******
      ****** ****** ****** ****** ****** ****** ****** ****** ****** ******
   3  ****** ****** ****** ****** ****** ****** ****** ****** ****** ******
      ****** ****** ****** ****** ****** ****** ****** ****** ****** ******
      ****** ****** ****** ****** ****** ****** ****** ****** ****** ******
   4  ****** ****** ****** ****** ****** ****** ****** ****** ****** ******
      ****** ****** ****** ****** ****** ****** ****** ****** ****** ******
      ****** ****** ****** ****** ****** ****** ****** ****** ****** ******
   5  ****** ****** ****** ****** ****** ****** ****** ****** ****** ******
      ****** ****** ****** ****** ****** ****** ****** ****** ****** ******
      ****** ****** ****** ****** ****** ****** ****** ****** ****** ******
   6  ****** ****** ****** ****** ****** ****** ****** ****** ****** ******
      ****** ****** ****** ****** ****** ****** ****** ****** ****** ******
      ****** ****** ****** ****** ****** ****** ****** ****** ****** ******
   7  ****** ****** ****** ****** ****** ****** ****** ****** ****** ******
      ****** ****** ****** ****** ****** ****** ****** ****** ****** ******
      ****** ****** ****** ****** ****** ****** ****** ****** ****** ******
   8  ****** ****** ****** ****** ****** ****** ****** ****** ****** ******
      ****** ****** ****** ****** ****** ****** ****** ****** ****** ******
      ****** ****** ****** ****** ****** ****** ****** ****** ****** ******
   9  ****** ****** ****** ****** ****** ****** ****** ****** ****** ******
      ****** ****** ****** ****** ****** ****** ****** ****** ****** ******
      ****** ****** ****** ****** ****** ****** ****** ****** ****** ******
  10  ****** ****** ****** ****** ****** ****** ****** ****** ****** ******
      ****** ****** ****** ****** ****** ****** ****** ****** ****** ******
      ****** ****** ****** ****** ****** ****** ****** ****** ****** ******
  11  ****** ****** ****** ****** ****** ****** ****** ****** ****** ******
      ****** ****** ****** ****** ****** ****** ****** ****** ****** ******
      ****** ****** ****** ****** ****** ****** ****** ****** ****** ******
  12  ****** ****** ****** ****** ****** ****** ****** ****** ****** ******
      ****** ****** ****** ****** ****** ****** ****** ****** ****** ******
      ****** ****** ****** ****** ****** ****** ****** ****** ****** ******
  13  ****** ****** ****** ****** ****** ****** ****** ****** ****** ******
      ****** ****** ****** ****** ****** ****** ****** ****** ****** ******
      ****** ****** ****** ****** ****** ****** ****** ****** ****** ******
  14  ****** ****** ****** ****** ****** ****** ****** ****** ****** ******
      ****** ****** ****** ****** ****** ****** ****** ****** ****** ******
      ****** ****** ****** ****** ****** ****** ****** ****** ****** ******
  15  ****** ****** ****** ****** ****** ****** ****** ****** ****** ******
      ****** ****** ****** ****** ****** ****** ****** ****** ****** ******
      ****** ****** ****** ****** ****** ****** ****** ****** ****** ******
  16  ****** ****** ****** ****** ****** ****** ****** ****** ****** ******
      ****** ****** ****** ****** ****** ****** ****** ****** ****** ******
      ****** ****** ****** ****** ****** ****** ****** ****** ****** ******
  17  ****** ****** ****** ****** ****** ****** ****** ****** ****** ******
      ****** ****** ****** ****** ****** ****** ****** ****** ****** ******
      ****** ****** ****** ****** ****** ****** ****** ****** ****** ******
  18  ****** ****** ****** ****** ****** ****** ****** ****** ****** ******
      ****** ****** ****** ****** ****** ****** ****** ****** ****** ******
      ****** ****** ****** ****** ****** ****** ****** ****** ****** ******
  19  ****** ****** ****** ****** ****** ****** ****** ****** ****** ******
      ****** ****** ****** ****** ****** ****** ****** ****** ****** ******
      ****** ****** ****** ****** ****** ****** ****** ****** ****** ******
  20  ****** ****** ****** ****** ****** ****** ****** ****** ****** ******
      ****** ****** ****** ****** ****** ****** ****** ****** ****** ******
      ****** ****** ****** ****** ****** ****** ****** ****** ****** ******
  21  ****** ****** ****** ****** ****** ****** ****** ****** ****** ******
      ****** ****** ****** ****** ****** ****** ****** ****** ****** ******
      ****** ****** ****** ****** ****** ****** ****** ****** ****** ******
  22  ****** ****** ****** ****** ****** ****** ****** ****** ****** ******
      ****** ****** ****** ****** ****** ****** ****** ****** ****** ******
      ****** ****** ****** ****** ****** ****** ****** ****** ****** ******
  23  ****** ****** ****** ****** ****** ****** ****** ****** ****** ******
      ****** ****** ****** ****** ****** ****** ****** ****** ****** ******
      ****** ****** ****** ****** ****** ****** ****** ****** ****** ******
  24  ****** ****** ****** ****** ****** ****** ****** ****** ****** ******
      ****** ****** ****** ****** ****** ****** ****** ****** ****** ******
      ****** ****** ****** ****** ****** ****** ****** ****** ****** ******
  25  ****** ****** ****** ****** ****** ****** ****** ****** ****** ******
      ****** ****** ****** ****** ****** ****** ****** ****** ****** ******
      ****** ****** ****** ****** ****** ****** ****** ****** ****** ******

 HEAD WILL BE SAVED ON UNIT   51 AT END OF TIME STEP    1, STRESS PERIOD    5
1
  VOLUMETRIC BUDGET FOR ENTIRE MODEL AT END OF TIME STEP    1, STRESS PERIOD   5
  ------------------------------------------------------------------------------

     CUMULATIVE VOLUMES      L**3       RATES FOR THIS TIME STEP      L**3/T
     ------------------                 ------------------------

           IN:                                      IN:
           ---                                      ---
             STORAGE =    31078139.1088               STORAGE =       18320.8644
       CONSTANT HEAD =    10525602.3811         CONSTANT HEAD =       31296.2875
               WELLS =           0.0000                 WELLS =           0.0000
            RECHARGE =    10074000.0000              RECHARGE =       13800.0000
      STREAM LEAKAGE =     5686955.9418        STREAM LEAKAGE =       17971.0456

            TOTAL IN =    57364697.4318              TOTAL IN =       81388.1975

          OUT:                                     OUT:
          ----                                     ----
             STORAGE =         676.8474               STORAGE =           0.0000
       CONSTANT HEAD =           0.0000         CONSTANT HEAD =           0.0000
               WELLS =    18656164.0484                 WELLS =       40823.1161
            RECHARGE =           0.0000              RECHARGE =           0.0000
      STREAM LEAKAGE =    38707858.7867        STREAM LEAKAGE =       40565.0845

           TOTAL OUT =    57364699.6825             TOTAL OUT =       81388.2005

            IN - OUT =          -2.2507              IN - OUT =      -3.0592E-03

 PERCENT DISCREPANCY =          -0.00     PERCENT DISCREPANCY =          -0.00






         TIME SUMMARY AT END OF TIME STEP    1 IN STRESS PERIOD    5
                    SECONDS     MINUTES      HOURS       DAYS        YEARS
                    -----------------------------------------------------------
   TIME STEP LENGTH 7.94880E+06 1.32480E+05  2208.0      92.000     0.25188    
 STRESS PERIOD TIME 7.94880E+06 1.32480E+05  2208.0      92.000     0.25188    
         TOTAL TIME 3.94848E+07 6.58080E+05  10968.      457.00      1.2512    
1
1
                            STRESS PERIOD NO.    6, LENGTH =   91.00000    
                            -----------------------------------------------

                              NUMBER OF TIME STEPS =     1

                               MULTIPLIER FOR DELT =     1.500

                            INITIAL TIME STEP SIZE =   91.00000    

 WELL NO.  LAYER   ROW   COL   STRESS RATE         
 --------------------------------------------------
      1      1      5     20      -7739.    
      2      1      9     24     -0.1035E+05
      3      1     15     20     -0.1191E+05
      4      1     16     28     -0.1082E+05

      4 WELLS

                 RECHARGE =  2.000000E-03

 REUSING STREAM SEGMENT DATA FROM LAST STRESS PERIOD
 
 SOLVING FOR HEAD 


     7 CALLS TO PCG ROUTINE FOR TIME STEP   1 IN STRESS PERIOD    6
    26 TOTAL ITERATIONS

 OUTPUT CONTROL FOR STRESS PERIOD    6   TIME STEP    1
    SAVE BUDGET
    SAVE HEAD FOR ALL LAYERS
    PRINT HEAD FOR ALL LAYERS
 UBDSV2 SAVING "STREAMFLOW OUT  " ON UNIT  50 AT TIME STEP  1, STRESS PERIOD   6



 STREAM LISTING     PERIOD      6   STEP        1

 LAYER ROW COL. STREAM  RCH.  FLOW INTO     FLOW TO   FLOW OUT OF   OVRLND.     DIRECT     STREAM       STREAM     STREAM     STREAM   STREAMBED  STREAMBED
                SEG.NO.  NO.  STRM. RCH.    AQUIFER    STRM. RCH.    RUNOFF     PRECIP       ET          HEAD       DEPTH      WIDTH   CONDCTNC.   GRADIENT

   1   13    1     1     1    1.0000E+05 -2.4169E+03   1.0242E+05  0.000E+00  0.000E+00  0.000E+00  4.84071E+01  1.457E-01  2.000E+01  2.000E+04 -1.208E-01
   1   13    2     1     2    1.0242E+05 -3.4635E+03   1.0588E+05  0.000E+00  0.000E+00  0.000E+00  4.79323E+01  1.482E-01  2.000E+01  2.000E+04 -1.732E-01
   1   14    3     1     3    1.0588E+05 -6.6017E+02   1.0654E+05  0.000E+00  0.000E+00  0.000E+00  4.74568E+01  1.500E-01  2.000E+01  2.000E+04 -3.301E-02
   1   15    4     1     4    1.0654E+05 -6.3878E+02   1.0718E+05  0.000E+00  0.000E+00  0.000E+00  4.69801E+01  1.505E-01  2.000E+01  2.000E+04 -3.194E-02
   1   16    5     1     5    1.0718E+05 -2.2193E+03   1.0940E+05  0.000E+00  0.000E+00  0.000E+00  4.65040E+01  1.517E-01  2.000E+01  2.000E+04 -1.110E-01
   1   16    6     1     6    1.0940E+05 -1.3906E+03   1.1079E+05  0.000E+00  0.000E+00  0.000E+00  4.60282E+01  1.532E-01  2.000E+01  2.000E+04 -6.953E-02
   1   16    7     1     7    1.1079E+05 -1.3577E+03   1.1215E+05  0.000E+00  0.000E+00  0.000E+00  4.55521E+01  1.544E-01  2.000E+01  2.000E+04 -6.789E-02
   1   16    8     1     8    1.1215E+05 -1.3448E+03   1.1349E+05  0.000E+00  0.000E+00  0.000E+00  4.50760E+01  1.555E-01  2.000E+01  2.000E+04 -6.724E-02
   1   16    9     1     9    1.1349E+05 -1.3260E+03   1.1482E+05  0.000E+00  0.000E+00  0.000E+00  4.45998E+01  1.566E-01  2.000E+01  2.000E+04 -6.630E-02
   1   16   10     1    10    1.1482E+05 -1.2978E+03   1.1612E+05  0.000E+00  0.000E+00  0.000E+00  4.41236E+01  1.577E-01  2.000E+01  2.000E+04 -6.489E-02
   1   16   11     1    11    1.1612E+05 -1.2768E+03   1.1739E+05  0.000E+00  0.000E+00  0.000E+00  4.36474E+01  1.587E-01  2.000E+01  2.000E+04 -6.384E-02
   1   16   12     1    12    1.1739E+05 -2.0737E+03   1.1947E+05  0.000E+00  0.000E+00  0.000E+00  4.31715E+01  1.601E-01  2.000E+01  2.000E+04 -1.037E-01
   1   15   13     1    13    1.1947E+05 -1.9371E+03   1.2140E+05  0.000E+00  0.000E+00  0.000E+00  4.26958E+01  1.617E-01  2.000E+01  2.000E+04 -9.686E-02
   1   14   14     1    14    1.2140E+05 -2.1011E+03   1.2350E+05  0.000E+00  0.000E+00  0.000E+00  4.22202E+01  1.633E-01  2.000E+01  2.000E+04 -1.051E-01
   1   13   15     1    15    1.2350E+05 -2.2730E+03   1.2578E+05  0.000E+00  0.000E+00  0.000E+00  4.17446E+01  1.651E-01  2.000E+01  2.000E+04 -1.136E-01
   1   12   16     1    16    1.2578E+05 -2.7919E+03   1.2857E+05  0.000E+00  0.000E+00  0.000E+00  4.12694E+01  1.671E-01  2.000E+01  2.000E+04 -1.396E-01
   1   12   17     1    17    1.2857E+05 -1.5495E+03   1.3012E+05  0.000E+00  0.000E+00  0.000E+00  4.07938E+01  1.688E-01  2.000E+01  2.000E+04 -7.748E-02
   1   12   18     1    18    1.3012E+05 -1.2275E+03   1.3135E+05  0.000E+00  0.000E+00  0.000E+00  4.03176E+01  1.699E-01  2.000E+01  2.000E+04 -6.137E-02
   1   12   19     1    19    1.3135E+05 -1.3371E+03   1.3268E+05  0.000E+00  0.000E+00  0.000E+00  3.98413E+01  1.709E-01  2.000E+01  2.000E+04 -6.685E-02
   1   13   20     1    20    1.3268E+05  4.4032E+02   1.3224E+05  0.000E+00  0.000E+00  0.000E+00  3.93644E+01  1.712E-01  2.000E+01  2.000E+04  2.202E-02
   1   14   21     1    21    1.3224E+05  1.7237E+03   1.3052E+05  0.000E+00  0.000E+00  0.000E+00  3.88863E+01  1.704E-01  2.000E+01  2.000E+04  8.618E-02
   1   14   22     1    22    1.3052E+05  5.3211E+03   1.2520E+05  0.000E+00  0.000E+00  0.000E+00  3.84063E+01  1.676E-01  2.000E+01  2.000E+04  2.661E-01
   1    9   30     2     1    5.0000E+04 -3.2175E+02   5.0322E+04  0.000E+00  0.000E+00  0.000E+00  4.02411E+01  1.161E-01  2.000E+01  2.000E+04 -1.609E-02
   1    9   29     2     2    5.0322E+04 -5.8625E+02   5.0908E+04  0.000E+00  0.000E+00  0.000E+00  3.99917E+01  1.167E-01  2.000E+01  2.000E+04 -2.931E-02
   1    9   28     2     3    5.0908E+04 -7.3199E+02   5.1640E+04  0.000E+00  0.000E+00  0.000E+00  3.97426E+01  1.176E-01  2.000E+01  2.000E+04 -3.660E-02
   1    9   27     2     4    5.1640E+04 -9.4591E+02   5.2586E+04  0.000E+00  0.000E+00  0.000E+00  3.94938E+01  1.188E-01  2.000E+01  2.000E+04 -4.730E-02
   1   10   26     2     5    5.2586E+04  4.7232E+02   5.2114E+04  0.000E+00  0.000E+00  0.000E+00  3.92441E+01  1.191E-01  2.000E+01  2.000E+04  2.362E-02
   1   11   25     2     6    5.2114E+04  5.7597E+02   5.1538E+04  0.000E+00  0.000E+00  0.000E+00  3.89934E+01  1.184E-01  2.000E+01  2.000E+04  2.880E-02
   1   12   24     2     7    5.1538E+04 -2.2579E+02   5.1763E+04  0.000E+00  0.000E+00  0.000E+00  3.87431E+01  1.181E-01  2.000E+01  2.000E+04 -1.129E-02
   1   13   23     2     8    5.1763E+04 -1.9056E+02   5.1954E+04  0.000E+00  0.000E+00  0.000E+00  3.84934E+01  1.184E-01  2.000E+01  2.000E+04 -9.528E-03
   1   14   22     2     9    5.1954E+04  2.0389E+03   4.9915E+04  0.000E+00  0.000E+00  0.000E+00  3.82422E+01  1.172E-01  2.000E+01  2.000E+04  1.019E-01
   1   14   22     3     1    1.7511E+05 -8.2859E+03   1.8340E+05  0.000E+00  0.000E+00  0.000E+00  3.77259E+01  1.704E-01  2.000E+01  2.000E+04 -4.143E-01
   1   15   23     3     2    1.8340E+05 -3.7720E+02   1.8378E+05  0.000E+00  0.000E+00  0.000E+00  3.68395E+01  1.728E-01  2.000E+01  2.000E+04 -1.886E-02
   1   15   24     3     3    1.8378E+05 -3.4150E+02   1.8412E+05  0.000E+00  0.000E+00  0.000E+00  3.59508E+01  1.730E-01  2.000E+01  2.000E+04 -1.708E-02
   1   15   25     3     4    1.8412E+05 -3.4361E+02   1.8446E+05  0.000E+00  0.000E+00  0.000E+00  3.50621E+01  1.732E-01  2.000E+01  2.000E+04 -1.718E-02
   1   15   26     3     5    1.8446E+05 -2.4004E+02   1.8470E+05  0.000E+00  0.000E+00  0.000E+00  3.41734E+01  1.734E-01  2.000E+01  2.000E+04 -1.200E-02
   1   16   27     3     6    1.8470E+05  6.1924E+02   1.8408E+05  0.000E+00  0.000E+00  0.000E+00  3.32844E+01  1.733E-01  2.000E+01  2.000E+04  3.096E-02
   1   17   28     3     7    1.8408E+05  3.9435E+03   1.8014E+05  0.000E+00  0.000E+00  0.000E+00  3.23942E+01  1.720E-01  2.000E+01  2.000E+04  1.972E-01
   1   18   29     3     8    1.8014E+05 -2.3131E+03   1.8245E+05  0.000E+00  0.000E+00  0.000E+00  3.15049E+01  1.715E-01  2.000E+01  2.000E+04 -1.157E-01
   1   18   30     3     9    1.8245E+05 -2.5429E+03   1.8499E+05  0.000E+00  0.000E+00  0.000E+00  3.06173E+01  1.729E-01  2.000E+01  2.000E+04 -1.271E-01



1
              HEAD IN LAYER   1 AT END OF TIME STEP   1 IN STRESS PERIOD    6
  ---------------------------------------------------------------------------

          1      2      3      4      5      6      7      8      9     10
         11     12     13     14     15     16     17     18     19     20
         21     22     23     24     25     26     27     28     29     30
 .........................................................................
   1  ****** ****** ****** ****** ****** ****** ****** ****** ****** ******
      ****** ****** ****** ****** ****** ****** ****** ****** ****** ******
      ****** ****** ****** ****** ****** ****** ****** ****** ****** ******
   2  ****** ****** ****** ****** ****** ****** ****** ****** ****** ******
      ****** ****** ****** ****** ****** ****** ****** ****** ****** ******
      ****** ****** ****** ****** ****** ****** ****** ****** ****** ******
   3  ****** ****** ****** ****** ****** ****** ****** ****** ****** ******
      ****** ****** ****** ****** ****** ****** ****** ****** ****** ******
      ****** ****** ****** ****** ****** ****** ****** ****** ****** ******
   4  ****** ****** ****** ****** ****** ****** ****** ****** ****** ******
      ****** ****** ****** ****** ****** ****** ****** ****** ****** ******
      ****** ****** ****** ****** ****** ****** ****** ****** ****** ******
   5  ****** ****** ****** ****** ****** ****** ****** ****** ****** ******
      ****** ****** ****** ****** ****** ****** ****** ****** ****** ******
      ****** ****** ****** ****** ****** ****** ****** ****** ****** ******
   6  ****** ****** ****** ****** ****** ****** ****** ****** ****** ******
      ****** ****** ****** ****** ****** ****** ****** ****** ****** ******
      ****** ****** ****** ****** ****** ****** ****** ****** ****** ******
   7  ****** ****** ****** ****** ****** ****** ****** ****** ****** ******
      ****** ****** ****** ****** ****** ****** ****** ****** ****** ******
      ****** ****** ****** ****** ****** ****** ****** ****** ****** ******
   8  ****** ****** ****** ****** ****** ****** ****** ****** ****** ******
      ****** ****** ****** ****** ****** ****** ****** ****** ****** ******
      ****** ****** ****** ****** ****** ****** ****** ****** ****** ******
   9  ****** ****** ****** ****** ****** ****** ****** ****** ****** ******
      ****** ****** ****** ****** ****** ****** ****** ****** ****** ******
      ****** ****** ****** ****** ****** ****** ****** ****** ****** ******
  10  ****** ****** ****** ****** ****** ****** ****** ****** ****** ******
      ****** ****** ****** ****** ****** ****** ****** ****** ****** ******
      ****** ****** ****** ****** ****** ****** ****** ****** ****** ******
  11  ****** ****** ****** ****** ****** ****** ****** ****** ****** ******
      ****** ****** ****** ****** ****** ****** ****** ****** ****** ******
      ****** ****** ****** ****** ****** ****** ****** ****** ****** ******
  12  ****** ****** ****** ****** ****** ****** ****** ****** ****** ******
      ****** ****** ****** ****** ****** ****** ****** ****** ****** ******
      ****** ****** ****** ****** ****** ****** ****** ****** ****** ******
  13  ****** ****** ****** ****** ****** ****** ****** ****** ****** ******
      ****** ****** ****** ****** ****** ****** ****** ****** ****** ******
      ****** ****** ****** ****** ****** ****** ****** ****** ****** ******
  14  ****** ****** ****** ****** ****** ****** ****** ****** ****** ******
      ****** ****** ****** ****** ****** ****** ****** ****** ****** ******
      ****** ****** ****** ****** ****** ****** ****** ****** ****** ******
  15  ****** ****** ****** ****** ****** ****** ****** ****** ****** ******
      ****** ****** ****** ****** ****** ****** ****** ****** ****** ******
      ****** ****** ****** ****** ****** ****** ****** ****** ****** ******
  16  ****** ****** ****** ****** ****** ****** ****** ****** ****** ******
      ****** ****** ****** ****** ****** ****** ****** ****** ****** ******
      ****** ****** ****** ****** ****** ****** ****** ****** ****** ******
  17  ****** ****** ****** ****** ****** ****** ****** ****** ****** ******
      ****** ****** ****** ****** ****** ****** ****** ****** ****** ******
      ****** ****** ****** ****** ****** ****** ****** ****** ****** ******
  18  ****** ****** ****** ****** ****** ****** ****** ****** ****** ******
      ****** ****** ****** ****** ****** ****** ****** ****** ****** ******
      ****** ****** ****** ****** ****** ****** ****** ****** ****** ******
  19  ****** ****** ****** ****** ****** ****** ****** ****** ****** ******
      ****** ****** ****** ****** ****** ****** ****** ****** ****** ******
      ****** ****** ****** ****** ****** ****** ****** ****** ****** ******
  20  ****** ****** ****** ****** ****** ****** ****** ****** ****** ******
      ****** ****** ****** ****** ****** ****** ****** ****** ****** ******
      ****** ****** ****** ****** ****** ****** ****** ****** ****** ******
  21  ****** ****** ****** ****** ****** ****** ****** ****** ****** ******
      ****** ****** ****** ****** ****** ****** ****** ****** ****** ******
      ****** ****** ****** ****** ****** ****** ****** ****** ****** ******
  22  ****** ****** ****** ****** ****** ****** ****** ****** ****** ******
      ****** ****** ****** ****** ****** ****** ****** ****** ****** ******
      ****** ****** ****** ****** ****** ****** ****** ****** ****** ******
  23  ****** ****** ****** ****** ****** ****** ****** ****** ****** ******
      ****** ****** ****** ****** ****** ****** ****** ****** ****** ******
      ****** ****** ****** ****** ****** ****** ****** ****** ****** ******
  24  ****** ****** ****** ****** ****** ****** ****** ****** ****** ******
      ****** ****** ****** ****** ****** ****** ****** ****** ****** ******
      ****** ****** ****** ****** ****** ****** ****** ****** ****** ******
  25  ****** ****** ****** ****** ****** ****** ****** ****** ****** ******
      ****** ****** ****** ****** ****** ****** ****** ****** ****** ******
      ****** ****** ****** ****** ****** ****** ****** ****** ****** ******

 HEAD WILL BE SAVED ON UNIT   51 AT END OF TIME STEP    1, STRESS PERIOD    6
1
  VOLUMETRIC BUDGET FOR ENTIRE MODEL AT END OF TIME STEP    1, STRESS PERIOD   6
  ------------------------------------------------------------------------------

     CUMULATIVE VOLUMES      L**3       RATES FOR THIS TIME STEP      L**3/T
     ------------------                 ------------------------

           IN:                                      IN:
           ---                                      ---
             STORAGE =    31078139.1088               STORAGE =           0.0000
       CONSTANT HEAD =    13200528.8039         CONSTANT HEAD =       29394.7959
               WELLS =           0.0000                 WELLS =           0.0000
            RECHARGE =    15097200.0000              RECHARGE =       55200.0000
      STREAM LEAKAGE =     7064234.5284        STREAM LEAKAGE =       15134.9295

            TOTAL IN =    66440102.4411              TOTAL IN =       99729.7254

          OUT:                                     OUT:
          ----                                     ----
             STORAGE =      799373.1311               STORAGE =        8776.8822
       CONSTANT HEAD =           0.0000         CONSTANT HEAD =           0.0000
               WELLS =    22371067.6117                 WELLS =       40823.1161
            RECHARGE =           0.0000              RECHARGE =           0.0000
      STREAM LEAKAGE =    43269663.6897        STREAM LEAKAGE =       50129.7242

           TOTAL OUT =    66440104.4324             TOTAL OUT =       99729.7225

            IN - OUT =          -1.9913              IN - OUT =       2.8511E-03

 PERCENT DISCREPANCY =          -0.00     PERCENT DISCREPANCY =           0.00






         TIME SUMMARY AT END OF TIME STEP    1 IN STRESS PERIOD    6
                    SECONDS     MINUTES      HOURS       DAYS        YEARS
                    -----------------------------------------------------------
   TIME STEP LENGTH 7.86240E+06 1.31040E+05  2184.0      91.000     0.24914    
 STRESS PERIOD TIME 7.86240E+06 1.31040E+05  2184.0      91.000     0.24914    
         TOTAL TIME 4.73472E+07 7.89120E+05  13152.      548.00      1.5003    
1
1
                            STRESS PERIOD NO.    7, LENGTH =   91.00000    
                            -----------------------------------------------

                              NUMBER OF TIME STEPS =     1

                               MULTIPLIER FOR DELT =     1.500

                            INITIAL TIME STEP SIZE =   91.00000    

 WELL NO.  LAYER   ROW   COL   STRESS RATE         
 --------------------------------------------------
      1      1      5     20      -7739.    
      2      1      9     24     -0.1035E+05
      3      1     15     20     -0.1191E+05
      4      1     16     28     -0.1082E+05

      4 WELLS

                 RECHARGE =   0.00000    

 REUSING STREAM SEGMENT DATA FROM LAST STRESS PERIOD
 
 SOLVING FOR HEAD 


     7 CALLS TO PCG ROUTINE FOR TIME STEP   1 IN STRESS PERIOD    7
    26 TOTAL ITERATIONS

 OUTPUT CONTROL FOR STRESS PERIOD    7   TIME STEP    1
    SAVE BUDGET
    SAVE HEAD FOR ALL LAYERS
    PRINT HEAD FOR ALL LAYERS
 UBDSV2 SAVING "STREAMFLOW OUT  " ON UNIT  50 AT TIME STEP  1, STRESS PERIOD   7



 STREAM LISTING     PERIOD      7   STEP        1

 LAYER ROW COL. STREAM  RCH.  FLOW INTO     FLOW TO   FLOW OUT OF   OVRLND.     DIRECT     STREAM       STREAM     STREAM     STREAM   STREAMBED  STREAMBED
                SEG.NO.  NO.  STRM. RCH.    AQUIFER    STRM. RCH.    RUNOFF     PRECIP       ET          HEAD       DEPTH      WIDTH   CONDCTNC.   GRADIENT

   1   13    1     1     1    1.0000E+05 -1.7512E+03   1.0175E+05  0.000E+00  0.000E+00  0.000E+00  4.84068E+01  1.454E-01  2.000E+01  2.000E+04 -8.756E-02
   1   13    2     1     2    1.0175E+05 -2.7188E+03   1.0447E+05  0.000E+00  0.000E+00  0.000E+00  4.79314E+01  1.473E-01  2.000E+01  2.000E+04 -1.359E-01
   1   14    3     1     3    1.0447E+05 -4.0843E+02   1.0488E+05  0.000E+00  0.000E+00  0.000E+00  4.74555E+01  1.487E-01  2.000E+01  2.000E+04 -2.042E-02
   1   15    4     1     4    1.0488E+05 -3.7629E+02   1.0525E+05  0.000E+00  0.000E+00  0.000E+00  4.69786E+01  1.490E-01  2.000E+01  2.000E+04 -1.881E-02
   1   16    5     1     5    1.0525E+05 -1.4668E+03   1.0672E+05  0.000E+00  0.000E+00  0.000E+00  4.65021E+01  1.498E-01  2.000E+01  2.000E+04 -7.334E-02
   1   16    6     1     6    1.0672E+05 -9.3668E+02   1.0766E+05  0.000E+00  0.000E+00  0.000E+00  4.60258E+01  1.508E-01  2.000E+01  2.000E+04 -4.683E-02
   1   16    7     1     7    1.0766E+05 -9.2210E+02   1.0858E+05  0.000E+00  0.000E+00  0.000E+00  4.55493E+01  1.516E-01  2.000E+01  2.000E+04 -4.611E-02
   1   16    8     1     8    1.0858E+05 -9.1512E+02   1.0950E+05  0.000E+00  0.000E+00  0.000E+00  4.50728E+01  1.524E-01  2.000E+01  2.000E+04 -4.576E-02
   1   16    9     1     9    1.0950E+05 -8.9939E+02   1.1039E+05  0.000E+00  0.000E+00  0.000E+00  4.45963E+01  1.531E-01  2.000E+01  2.000E+04 -4.497E-02
   1   16   10     1    10    1.1039E+05 -8.7361E+02   1.1127E+05  0.000E+00  0.000E+00  0.000E+00  4.41198E+01  1.539E-01  2.000E+01  2.000E+04 -4.368E-02
   1   16   11     1    11    1.1127E+05 -8.5138E+02   1.1212E+05  0.000E+00  0.000E+00  0.000E+00  4.36432E+01  1.546E-01  2.000E+01  2.000E+04 -4.257E-02
   1   16   12     1    12    1.1212E+05 -1.3585E+03   1.1348E+05  0.000E+00  0.000E+00  0.000E+00  4.31669E+01  1.555E-01  2.000E+01  2.000E+04 -6.792E-02
   1   15   13     1    13    1.1348E+05 -1.1694E+03   1.1465E+05  0.000E+00  0.000E+00  0.000E+00  4.26906E+01  1.565E-01  2.000E+01  2.000E+04 -5.847E-02
   1   14   14     1    14    1.1465E+05 -1.3050E+03   1.1595E+05  0.000E+00  0.000E+00  0.000E+00  4.22144E+01  1.576E-01  2.000E+01  2.000E+04 -6.525E-02
   1   13   15     1    15    1.1595E+05 -1.4742E+03   1.1743E+05  0.000E+00  0.000E+00  0.000E+00  4.17382E+01  1.587E-01  2.000E+01  2.000E+04 -7.371E-02
   1   12   16     1    16    1.1743E+05 -1.9979E+03   1.1942E+05  0.000E+00  0.000E+00  0.000E+00  4.12624E+01  1.601E-01  2.000E+01  2.000E+04 -9.990E-02
   1   12   17     1    17    1.1942E+05 -9.7213E+02   1.2040E+05  0.000E+00  0.000E+00  0.000E+00  4.07863E+01  1.613E-01  2.000E+01  2.000E+04 -4.861E-02
   1   12   18     1    18    1.2040E+05 -6.6399E+02   1.2106E+05  0.000E+00  0.000E+00  0.000E+00  4.03097E+01  1.620E-01  2.000E+01  2.000E+04 -3.320E-02
   1   12   19     1    19    1.2106E+05 -6.4792E+02   1.2171E+05  0.000E+00  0.000E+00  0.000E+00  3.98329E+01  1.625E-01  2.000E+01  2.000E+04 -3.240E-02
   1   13   20     1    20    1.2171E+05  1.1103E+03   1.2060E+05  0.000E+00  0.000E+00  0.000E+00  3.93555E+01  1.623E-01  2.000E+01  2.000E+04  5.552E-02
   1   14   21     1    21    1.2060E+05  2.3839E+03   1.1821E+05  0.000E+00  0.000E+00  0.000E+00  3.88768E+01  1.609E-01  2.000E+01  2.000E+04  1.192E-01
   1   14   22     1    22    1.1821E+05  5.4816E+03   1.1273E+05  0.000E+00  0.000E+00  0.000E+00  3.83963E+01  1.577E-01  2.000E+01  2.000E+04  2.741E-01
   1    9   30     2     1    5.0000E+04  1.9388E+02   4.9806E+04  0.000E+00  0.000E+00  0.000E+00  4.02407E+01  1.157E-01  2.000E+01  2.000E+04  9.694E-03
   1    9   29     2     2    4.9806E+04 -7.2328E+01   4.9878E+04  0.000E+00  0.000E+00  0.000E+00  3.99906E+01  1.156E-01  2.000E+01  2.000E+04 -3.616E-03
   1    9   28     2     3    4.9878E+04 -2.1649E+02   5.0095E+04  0.000E+00  0.000E+00  0.000E+00  3.97408E+01  1.158E-01  2.000E+01  2.000E+04 -1.082E-02
   1    9   27     2     4    5.0095E+04 -2.4452E+02   5.0339E+04  0.000E+00  0.000E+00  0.000E+00  3.94912E+01  1.162E-01  2.000E+01  2.000E+04 -1.223E-02
   1   10   26     2     5    5.0339E+04  1.1744E+03   4.9165E+04  0.000E+00  0.000E+00  0.000E+00  3.92405E+01  1.155E-01  2.000E+01  2.000E+04  5.872E-02
   1   11   25     2     6    4.9165E+04  1.2488E+03   4.7916E+04  0.000E+00  0.000E+00  0.000E+00  3.89888E+01  1.138E-01  2.000E+01  2.000E+04  6.244E-02
   1   12   24     2     7    4.7916E+04  3.8747E+02   4.7529E+04  0.000E+00  0.000E+00  0.000E+00  3.87377E+01  1.127E-01  2.000E+01  2.000E+04  1.937E-02
   1   13   23     2     8    4.7529E+04  1.5320E+00   4.7527E+04  0.000E+00  0.000E+00  0.000E+00  3.84874E+01  1.124E-01  2.000E+01  2.000E+04  7.660E-05
   1   14   22     2     9    4.7527E+04  2.2704E+03   4.5257E+04  0.000E+00  0.000E+00  0.000E+00  3.82358E+01  1.108E-01  2.000E+01  2.000E+04  1.135E-01
   1   14   22     3     1    1.5799E+05 -8.1267E+03   1.6612E+05  0.000E+00  0.000E+00  0.000E+00  3.77159E+01  1.604E-01  2.000E+01  2.000E+04 -4.063E-01
   1   15   23     3     2    1.6612E+05 -1.7129E+02   1.6629E+05  0.000E+00  0.000E+00  0.000E+00  3.68295E+01  1.628E-01  2.000E+01  2.000E+04 -8.564E-03
   1   15   24     3     3    1.6629E+05 -1.6815E+02   1.6646E+05  0.000E+00  0.000E+00  0.000E+00  3.59407E+01  1.629E-01  2.000E+01  2.000E+04 -8.408E-03
   1   15   25     3     4    1.6646E+05 -1.6715E+02   1.6662E+05  0.000E+00  0.000E+00  0.000E+00  3.50519E+01  1.630E-01  2.000E+01  2.000E+04 -8.358E-03
   1   15   26     3     5    1.6662E+05 -3.8986E+01   1.6666E+05  0.000E+00  0.000E+00  0.000E+00  3.41631E+01  1.631E-01  2.000E+01  2.000E+04 -1.949E-03
   1   16   27     3     6    1.6666E+05  8.5128E+02   1.6581E+05  0.000E+00  0.000E+00  0.000E+00  3.32739E+01  1.628E-01  2.000E+01  2.000E+04  4.256E-02
   1   17   28     3     7    1.6581E+05  4.5838E+03   1.6123E+05  0.000E+00  0.000E+00  0.000E+00  3.23835E+01  1.612E-01  2.000E+01  2.000E+04  2.292E-01
   1   18   29     3     8    1.6123E+05 -1.6295E+03   1.6286E+05  0.000E+00  0.000E+00  0.000E+00  3.14937E+01  1.604E-01  2.000E+01  2.000E+04 -8.148E-02
   1   18   30     3     9    1.6286E+05 -2.0160E+03   1.6487E+05  0.000E+00  0.000E+00  0.000E+00  3.06059E+01  1.614E-01  2.000E+01  2.000E+04 -1.008E-01



1
              HEAD IN LAYER   1 AT END OF TIME STEP   1 IN STRESS PERIOD    7
  ---------------------------------------------------------------------------

          1      2      3      4      5      6      7      8      9     10
         11     12     13     14     15     16     17     18     19     20
         21     22     23     24     25     26     27     28     29     30
 .........................................................................
   1  ****** ****** ****** ****** ****** ****** ****** ****** ****** ******
      ****** ****** ****** ****** ****** ****** ****** ****** ****** ******
      ****** ****** ****** ****** ****** ****** ****** ****** ****** ******
   2  ****** ****** ****** ****** ****** ****** ****** ****** ****** ******
      ****** ****** ****** ****** ****** ****** ****** ****** ****** ******
      ****** ****** ****** ****** ****** ****** ****** ****** ****** ******
   3  ****** ****** ****** ****** ****** ****** ****** ****** ****** ******
      ****** ****** ****** ****** ****** ****** ****** ****** ****** ******
      ****** ****** ****** ****** ****** ****** ****** ****** ****** ******
   4  ****** ****** ****** ****** ****** ****** ****** ****** ****** ******
      ****** ****** ****** ****** ****** ****** ****** ****** ****** ******
      ****** ****** ****** ****** ****** ****** ****** ****** ****** ******
   5  ****** ****** ****** ****** ****** ****** ****** ****** ****** ******
      ****** ****** ****** ****** ****** ****** ****** ****** ****** ******
      ****** ****** ****** ****** ****** ****** ****** ****** ****** ******
   6  ****** ****** ****** ****** ****** ****** ****** ****** ****** ******
      ****** ****** ****** ****** ****** ****** ****** ****** ****** ******
      ****** ****** ****** ****** ****** ****** ****** ****** ****** ******
   7  ****** ****** ****** ****** ****** ****** ****** ****** ****** ******
      ****** ****** ****** ****** ****** ****** ****** ****** ****** ******
      ****** ****** ****** ****** ****** ****** ****** ****** ****** ******
   8  ****** ****** ****** ****** ****** ****** ****** ****** ****** ******
      ****** ****** ****** ****** ****** ****** ****** ****** ****** ******
      ****** ****** ****** ****** ****** ****** ****** ****** ****** ******
   9  ****** ****** ****** ****** ****** ****** ****** ****** ****** ******
      ****** ****** ****** ****** ****** ****** ****** ****** ****** ******
      ****** ****** ****** ****** ****** ****** ****** ****** ****** ******
  10  ****** ****** ****** ****** ****** ****** ****** ****** ****** ******
      ****** ****** ****** ****** ****** ****** ****** ****** ****** ******
      ****** ****** ****** ****** ****** ****** ****** ****** ****** ******
  11  ****** ****** ****** ****** ****** ****** ****** ****** ****** ******
      ****** ****** ****** ****** ****** ****** ****** ****** ****** ******
      ****** ****** ****** ****** ****** ****** ****** ****** ****** ******
  12  ****** ****** ****** ****** ****** ****** ****** ****** ****** ******
      ****** ****** ****** ****** ****** ****** ****** ****** ****** ******
      ****** ****** ****** ****** ****** ****** ****** ****** ****** ******
  13  ****** ****** ****** ****** ****** ****** ****** ****** ****** ******
      ****** ****** ****** ****** ****** ****** ****** ****** ****** ******
      ****** ****** ****** ****** ****** ****** ****** ****** ****** ******
  14  ****** ****** ****** ****** ****** ****** ****** ****** ****** ******
      ****** ****** ****** ****** ****** ****** ****** ****** ****** ******
      ****** ****** ****** ****** ****** ****** ****** ****** ****** ******
  15  ****** ****** ****** ****** ****** ****** ****** ****** ****** ******
      ****** ****** ****** ****** ****** ****** ****** ****** ****** ******
      ****** ****** ****** ****** ****** ****** ****** ****** ****** ******
  16  ****** ****** ****** ****** ****** ****** ****** ****** ****** ******
      ****** ****** ****** ****** ****** ****** ****** ****** ****** ******
      ****** ****** ****** ****** ****** ****** ****** ****** ****** ******
  17  ****** ****** ****** ****** ****** ****** ****** ****** ****** ******
      ****** ****** ****** ****** ****** ****** ****** ****** ****** ******
      ****** ****** ****** ****** ****** ****** ****** ****** ****** ******
  18  ****** ****** ****** ****** ****** ****** ****** ****** ****** ******
      ****** ****** ****** ****** ****** ****** ****** ****** ****** ******
      ****** ****** ****** ****** ****** ****** ****** ****** ****** ******
  19  ****** ****** ****** ****** ****** ****** ****** ****** ****** ******
      ****** ****** ****** ****** ****** ****** ****** ****** ****** ******
      ****** ****** ****** ****** ****** ****** ****** ****** ****** ******
  20  ****** ****** ****** ****** ****** ****** ****** ****** ****** ******
      ****** ****** ****** ****** ****** ****** ****** ****** ****** ******
      ****** ****** ****** ****** ****** ****** ****** ****** ****** ******
  21  ****** ****** ****** ****** ****** ****** ****** ****** ****** ******
      ****** ****** ****** ****** ****** ****** ****** ****** ****** ******
      ****** ****** ****** ****** ****** ****** ****** ****** ****** ******
  22  ****** ****** ****** ****** ****** ****** ****** ****** ****** ******
      ****** ****** ****** ****** ****** ****** ****** ****** ****** ******
      ****** ****** ****** ****** ****** ****** ****** ****** ****** ******
  23  ****** ****** ****** ****** ****** ****** ****** ****** ****** ******
      ****** ****** ****** ****** ****** ****** ****** ****** ****** ******
      ****** ****** ****** ****** ****** ****** ****** ****** ****** ******
  24  ****** ****** ****** ****** ****** ****** ****** ****** ****** ******
      ****** ****** ****** ****** ****** ****** ****** ****** ****** ******
      ****** ****** ****** ****** ****** ****** ****** ****** ****** ******
  25  ****** ****** ****** ****** ****** ****** ****** ****** ****** ******
      ****** ****** ****** ****** ****** ****** ****** ****** ****** ******
      ****** ****** ****** ****** ****** ****** ****** ****** ****** ******

 HEAD WILL BE SAVED ON UNIT   51 AT END OF TIME STEP    1, STRESS PERIOD    7
1
  VOLUMETRIC BUDGET FOR ENTIRE MODEL AT END OF TIME STEP    1, STRESS PERIOD   7
  ------------------------------------------------------------------------------

     CUMULATIVE VOLUMES      L**3       RATES FOR THIS TIME STEP      L**3/T
     ------------------                 ------------------------

           IN:                                      IN:
           ---                                      ---
             STORAGE =    33114011.8935               STORAGE =       22372.2284
       CONSTANT HEAD =    16232974.3300         CONSTANT HEAD =       33323.5772
               WELLS =           0.0000                 WELLS =           0.0000
            RECHARGE =    15097200.0000              RECHARGE =           0.0000
      STREAM LEAKAGE =     8855778.2451        STREAM LEAKAGE =       19687.2936

            TOTAL IN =    73299964.4686              TOTAL IN =       75383.0992

          OUT:                                     OUT:
          ----                                     ----
             STORAGE =      799373.1311               STORAGE =           0.0000
       CONSTANT HEAD =           0.0000         CONSTANT HEAD =           0.0000
               WELLS =    26085971.1749                 WELLS =       40823.1161
            RECHARGE =           0.0000              RECHARGE =           0.0000
      STREAM LEAKAGE =    46414622.6460        STREAM LEAKAGE =       34559.9885

           TOTAL OUT =    73299966.9520             TOTAL OUT =       75383.1046

            IN - OUT =          -2.4834              IN - OUT =      -5.4073E-03

 PERCENT DISCREPANCY =          -0.00     PERCENT DISCREPANCY =          -0.00






         TIME SUMMARY AT END OF TIME STEP    1 IN STRESS PERIOD    7
                    SECONDS     MINUTES      HOURS       DAYS        YEARS
                    -----------------------------------------------------------
   TIME STEP LENGTH 7.86240E+06 1.31040E+05  2184.0      91.000     0.24914    
 STRESS PERIOD TIME 7.86240E+06 1.31040E+05  2184.0      91.000     0.24914    
         TOTAL TIME 5.52096E+07 9.20160E+05  15336.      639.00      1.7495    
1
1
                            STRESS PERIOD NO.    8, LENGTH =   91.00000    
                            -----------------------------------------------

                              NUMBER OF TIME STEPS =     1

                               MULTIPLIER FOR DELT =     1.500

                            INITIAL TIME STEP SIZE =   91.00000    

 WELL NO.  LAYER   ROW   COL   STRESS RATE         
 --------------------------------------------------
      1      1      5     20      -7739.    
      2      1      9     24     -0.1035E+05
      3      1     15     20     -0.1191E+05
      4      1     16     28     -0.1082E+05

      4 WELLS

                 RECHARGE =  1.000000E-03

 REUSING STREAM SEGMENT DATA FROM LAST STRESS PERIOD
 
 SOLVING FOR HEAD 


     6 CALLS TO PCG ROUTINE FOR TIME STEP   1 IN STRESS PERIOD    8
    22 TOTAL ITERATIONS

 OUTPUT CONTROL FOR STRESS PERIOD    8   TIME STEP    1
    SAVE BUDGET
    SAVE HEAD FOR ALL LAYERS
    PRINT HEAD FOR ALL LAYERS
 UBDSV2 SAVING "STREAMFLOW OUT  " ON UNIT  50 AT TIME STEP  1, STRESS PERIOD   8



 STREAM LISTING     PERIOD      8   STEP        1

 LAYER ROW COL. STREAM  RCH.  FLOW INTO     FLOW TO   FLOW OUT OF   OVRLND.     DIRECT     STREAM       STREAM     STREAM     STREAM   STREAMBED  STREAMBED
                SEG.NO.  NO.  STRM. RCH.    AQUIFER    STRM. RCH.    RUNOFF     PRECIP       ET          HEAD       DEPTH      WIDTH   CONDCTNC.   GRADIENT

   1   13    1     1     1    1.0000E+05 -1.8249E+03   1.0182E+05  0.000E+00  0.000E+00  0.000E+00  4.84068E+01  1.454E-01  2.000E+01  2.000E+04 -9.124E-02
   1   13    2     1     2    1.0182E+05 -2.7921E+03   1.0462E+05  0.000E+00  0.000E+00  0.000E+00  4.79315E+01  1.474E-01  2.000E+01  2.000E+04 -1.396E-01
   1   14    3     1     3    1.0462E+05 -4.7257E+02   1.0509E+05  0.000E+00  0.000E+00  0.000E+00  4.74556E+01  1.488E-01  2.000E+01  2.000E+04 -2.363E-02
   1   15    4     1     4    1.0509E+05 -4.4508E+02   1.0553E+05  0.000E+00  0.000E+00  0.000E+00  4.69788E+01  1.492E-01  2.000E+01  2.000E+04 -2.225E-02
   1   16    5     1     5    1.0553E+05 -1.6411E+03   1.0718E+05  0.000E+00  0.000E+00  0.000E+00  4.65024E+01  1.501E-01  2.000E+01  2.000E+04 -8.206E-02
   1   16    6     1     6    1.0718E+05 -1.0439E+03   1.0822E+05  0.000E+00  0.000E+00  0.000E+00  4.60262E+01  1.512E-01  2.000E+01  2.000E+04 -5.219E-02
   1   16    7     1     7    1.0822E+05 -1.0243E+03   1.0924E+05  0.000E+00  0.000E+00  0.000E+00  4.55498E+01  1.521E-01  2.000E+01  2.000E+04 -5.121E-02
   1   16    8     1     8    1.0924E+05 -1.0165E+03   1.1026E+05  0.000E+00  0.000E+00  0.000E+00  4.50734E+01  1.530E-01  2.000E+01  2.000E+04 -5.082E-02
   1   16    9     1     9    1.1026E+05 -1.0019E+03   1.1126E+05  0.000E+00  0.000E+00  0.000E+00  4.45970E+01  1.538E-01  2.000E+01  2.000E+04 -5.009E-02
   1   16   10     1    10    1.1126E+05 -9.7863E+02   1.1224E+05  0.000E+00  0.000E+00  0.000E+00  4.41205E+01  1.546E-01  2.000E+01  2.000E+04 -4.893E-02
   1   16   11     1    11    1.1224E+05 -9.5950E+02   1.1320E+05  0.000E+00  0.000E+00  0.000E+00  4.36441E+01  1.554E-01  2.000E+01  2.000E+04 -4.798E-02
   1   16   12     1    12    1.1320E+05 -1.5202E+03   1.1472E+05  0.000E+00  0.000E+00  0.000E+00  4.31678E+01  1.565E-01  2.000E+01  2.000E+04 -7.601E-02
   1   15   13     1    13    1.1472E+05 -1.3374E+03   1.1606E+05  0.000E+00  0.000E+00  0.000E+00  4.26917E+01  1.576E-01  2.000E+01  2.000E+04 -6.687E-02
   1   14   14     1    14    1.1606E+05 -1.4655E+03   1.1752E+05  0.000E+00  0.000E+00  0.000E+00  4.22156E+01  1.588E-01  2.000E+01  2.000E+04 -7.327E-02
   1   13   15     1    15    1.1752E+05 -1.6211E+03   1.1914E+05  0.000E+00  0.000E+00  0.000E+00  4.17396E+01  1.600E-01  2.000E+01  2.000E+04 -8.105E-02
   1   12   16     1    16    1.1914E+05 -2.1055E+03   1.2125E+05  0.000E+00  0.000E+00  0.000E+00  4.12638E+01  1.615E-01  2.000E+01  2.000E+04 -1.053E-01
   1   12   17     1    17    1.2125E+05 -1.0814E+03   1.2233E+05  0.000E+00  0.000E+00  0.000E+00  4.07878E+01  1.628E-01  2.000E+01  2.000E+04 -5.407E-02
   1   12   18     1    18    1.2233E+05 -7.8016E+02   1.2311E+05  0.000E+00  0.000E+00  0.000E+00  4.03113E+01  1.636E-01  2.000E+01  2.000E+04 -3.901E-02
   1   12   19     1    19    1.2311E+05 -7.9418E+02   1.2391E+05  0.000E+00  0.000E+00  0.000E+00  3.98346E+01  1.642E-01  2.000E+01  2.000E+04 -3.971E-02
   1   13   20     1    20    1.2391E+05  9.3314E+02   1.2297E+05  0.000E+00  0.000E+00  0.000E+00  3.93573E+01  1.641E-01  2.000E+01  2.000E+04  4.666E-02
   1   14   21     1    21    1.2297E+05  2.2251E+03   1.2075E+05  0.000E+00  0.000E+00  0.000E+00  3.88788E+01  1.629E-01  2.000E+01  2.000E+04  1.113E-01
   1   14   22     1    22    1.2075E+05  5.4331E+03   1.1531E+05  0.000E+00  0.000E+00  0.000E+00  3.83984E+01  1.598E-01  2.000E+01  2.000E+04  2.717E-01
   1    9   30     2     1    5.0000E+04  3.2014E+01   4.9968E+04  0.000E+00  0.000E+00  0.000E+00  4.02408E+01  1.158E-01  2.000E+01  2.000E+04  1.601E-03
   1    9   29     2     2    4.9968E+04 -2.3133E+02   5.0199E+04  0.000E+00  0.000E+00  0.000E+00  3.99910E+01  1.160E-01  2.000E+01  2.000E+04 -1.157E-02
   1    9   28     2     3    5.0199E+04 -3.6974E+02   5.0569E+04  0.000E+00  0.000E+00  0.000E+00  3.97414E+01  1.164E-01  2.000E+01  2.000E+04 -1.849E-02
   1    9   27     2     4    5.0569E+04 -4.1953E+02   5.0989E+04  0.000E+00  0.000E+00  0.000E+00  3.94919E+01  1.169E-01  2.000E+01  2.000E+04 -2.098E-02
   1   10   26     2     5    5.0989E+04  9.7152E+02   5.0017E+04  0.000E+00  0.000E+00  0.000E+00  3.92416E+01  1.166E-01  2.000E+01  2.000E+04  4.858E-02
   1   11   25     2     6    5.0017E+04  1.0472E+03   4.8970E+04  0.000E+00  0.000E+00  0.000E+00  3.89902E+01  1.152E-01  2.000E+01  2.000E+04  5.236E-02
   1   12   24     2     7    4.8970E+04  2.0455E+02   4.8765E+04  0.000E+00  0.000E+00  0.000E+00  3.87393E+01  1.143E-01  2.000E+01  2.000E+04  1.023E-02
   1   13   23     2     8    4.8765E+04 -7.2425E+01   4.8838E+04  0.000E+00  0.000E+00  0.000E+00  3.84892E+01  1.142E-01  2.000E+01  2.000E+04 -3.621E-03
   1   14   22     2     9    4.8838E+04  2.2183E+03   4.6619E+04  0.000E+00  0.000E+00  0.000E+00  3.82377E+01  1.127E-01  2.000E+01  2.000E+04  1.109E-01
   1   14   22     3     1    1.6193E+05 -8.1701E+03   1.7010E+05  0.000E+00  0.000E+00  0.000E+00  3.77183E+01  1.627E-01  2.000E+01  2.000E+04 -4.085E-01
   1   15   23     3     2    1.7010E+05 -2.3562E+02   1.7034E+05  0.000E+00  0.000E+00  0.000E+00  3.68318E+01  1.652E-01  2.000E+01  2.000E+04 -1.178E-02
   1   15   24     3     3    1.7034E+05 -2.2872E+02   1.7057E+05  0.000E+00  0.000E+00  0.000E+00  3.59431E+01  1.653E-01  2.000E+01  2.000E+04 -1.144E-02
   1   15   25     3     4    1.7057E+05 -2.2944E+02   1.7080E+05  0.000E+00  0.000E+00  0.000E+00  3.50543E+01  1.654E-01  2.000E+01  2.000E+04 -1.147E-02
   1   15   26     3     5    1.7080E+05 -1.1366E+02   1.7091E+05  0.000E+00  0.000E+00  0.000E+00  3.41655E+01  1.655E-01  2.000E+01  2.000E+04 -5.683E-03
   1   16   27     3     6    1.7091E+05  7.6939E+02   1.7014E+05  0.000E+00  0.000E+00  0.000E+00  3.32765E+01  1.653E-01  2.000E+01  2.000E+04  3.847E-02
   1   17   28     3     7    1.7014E+05  4.3798E+03   1.6576E+05  0.000E+00  0.000E+00  0.000E+00  3.23861E+01  1.638E-01  2.000E+01  2.000E+04  2.190E-01
   1   18   29     3     8    1.6576E+05 -1.7956E+03   1.6756E+05  0.000E+00  0.000E+00  0.000E+00  3.14964E+01  1.631E-01  2.000E+01  2.000E+04 -8.978E-02
   1   18   30     3     9    1.6756E+05 -2.1630E+03   1.6972E+05  0.000E+00  0.000E+00  0.000E+00  3.06087E+01  1.642E-01  2.000E+01  2.000E+04 -1.082E-01



1
              HEAD IN LAYER   1 AT END OF TIME STEP   1 IN STRESS PERIOD    8
  ---------------------------------------------------------------------------

          1      2      3      4      5      6      7      8      9     10
         11     12     13     14     15     16     17     18     19     20
         21     22     23     24     25     26     27     28     29     30
 .........................................................................
   1  ****** ****** ****** ****** ****** ****** ****** ****** ****** ******
      ****** ****** ****** ****** ****** ****** ****** ****** ****** ******
      ****** ****** ****** ****** ****** ****** ****** ****** ****** ******
   2  ****** ****** ****** ****** ****** ****** ****** ****** ****** ******
      ****** ****** ****** ****** ****** ****** ****** ****** ****** ******
      ****** ****** ****** ****** ****** ****** ****** ****** ****** ******
   3  ****** ****** ****** ****** ****** ****** ****** ****** ****** ******
      ****** ****** ****** ****** ****** ****** ****** ****** ****** ******
      ****** ****** ****** ****** ****** ****** ****** ****** ****** ******
   4  ****** ****** ****** ****** ****** ****** ****** ****** ****** ******
      ****** ****** ****** ****** ****** ****** ****** ****** ****** ******
      ****** ****** ****** ****** ****** ****** ****** ****** ****** ******
   5  ****** ****** ****** ****** ****** ****** ****** ****** ****** ******
      ****** ****** ****** ****** ****** ****** ****** ****** ****** ******
      ****** ****** ****** ****** ****** ****** ****** ****** ****** ******
   6  ****** ****** ****** ****** ****** ****** ****** ****** ****** ******
      ****** ****** ****** ****** ****** ****** ****** ****** ****** ******
      ****** ****** ****** ****** ****** ****** ****** ****** ****** ******
   7  ****** ****** ****** ****** ****** ****** ****** ****** ****** ******
      ****** ****** ****** ****** ****** ****** ****** ****** ****** ******
      ****** ****** ****** ****** ****** ****** ****** ****** ****** ******
   8  ****** ****** ****** ****** ****** ****** ****** ****** ****** ******
      ****** ****** ****** ****** ****** ****** ****** ****** ****** ******
      ****** ****** ****** ****** ****** ****** ****** ****** ****** ******
   9  ****** ****** ****** ****** ****** ****** ****** ****** ****** ******
      ****** ****** ****** ****** ****** ****** ****** ****** ****** ******
      ****** ****** ****** ****** ****** ****** ****** ****** ****** ******
  10  ****** ****** ****** ****** ****** ****** ****** ****** ****** ******
      ****** ****** ****** ****** ****** ****** ****** ****** ****** ******
      ****** ****** ****** ****** ****** ****** ****** ****** ****** ******
  11  ****** ****** ****** ****** ****** ****** ****** ****** ****** ******
      ****** ****** ****** ****** ****** ****** ****** ****** ****** ******
      ****** ****** ****** ****** ****** ****** ****** ****** ****** ******
  12  ****** ****** ****** ****** ****** ****** ****** ****** ****** ******
      ****** ****** ****** ****** ****** ****** ****** ****** ****** ******
      ****** ****** ****** ****** ****** ****** ****** ****** ****** ******
  13  ****** ****** ****** ****** ****** ****** ****** ****** ****** ******
      ****** ****** ****** ****** ****** ****** ****** ****** ****** ******
      ****** ****** ****** ****** ****** ****** ****** ****** ****** ******
  14  ****** ****** ****** ****** ****** ****** ****** ****** ****** ******
      ****** ****** ****** ****** ****** ****** ****** ****** ****** ******
      ****** ****** ****** ****** ****** ****** ****** ****** ****** ******
  15  ****** ****** ****** ****** ****** ****** ****** ****** ****** ******
      ****** ****** ****** ****** ****** ****** ****** ****** ****** ******
      ****** ****** ****** ****** ****** ****** ****** ****** ****** ******
  16  ****** ****** ****** ****** ****** ****** ****** ****** ****** ******
      ****** ****** ****** ****** ****** ****** ****** ****** ****** ******
      ****** ****** ****** ****** ****** ****** ****** ****** ****** ******
  17  ****** ****** ****** ****** ****** ****** ****** ****** ****** ******
      ****** ****** ****** ****** ****** ****** ****** ****** ****** ******
      ****** ****** ****** ****** ****** ****** ****** ****** ****** ******
  18  ****** ****** ****** ****** ****** ****** ****** ****** ****** ******
      ****** ****** ****** ****** ****** ****** ****** ****** ****** ******
      ****** ****** ****** ****** ****** ****** ****** ****** ****** ******
  19  ****** ****** ****** ****** ****** ****** ****** ****** ****** ******
      ****** ****** ****** ****** ****** ****** ****** ****** ****** ******
      ****** ****** ****** ****** ****** ****** ****** ****** ****** ******
  20  ****** ****** ****** ****** ****** ****** ****** ****** ****** ******
      ****** ****** ****** ****** ****** ****** ****** ****** ****** ******
      ****** ****** ****** ****** ****** ****** ****** ****** ****** ******
  21  ****** ****** ****** ****** ****** ****** ****** ****** ****** ******
      ****** ****** ****** ****** ****** ****** ****** ****** ****** ******
      ****** ****** ****** ****** ****** ****** ****** ****** ****** ******
  22  ****** ****** ****** ****** ****** ****** ****** ****** ****** ******
      ****** ****** ****** ****** ****** ****** ****** ****** ****** ******
      ****** ****** ****** ****** ****** ****** ****** ****** ****** ******
  23  ****** ****** ****** ****** ****** ****** ****** ****** ****** ******
      ****** ****** ****** ****** ****** ****** ****** ****** ****** ******
      ****** ****** ****** ****** ****** ****** ****** ****** ****** ******
  24  ****** ****** ****** ****** ****** ****** ****** ****** ****** ******
      ****** ****** ****** ****** ****** ****** ****** ****** ****** ******
      ****** ****** ****** ****** ****** ****** ****** ****** ****** ******
  25  ****** ****** ****** ****** ****** ****** ****** ****** ****** ******
      ****** ****** ****** ****** ****** ****** ****** ****** ****** ******
      ****** ****** ****** ****** ****** ****** ****** ****** ****** ******

 HEAD WILL BE SAVED ON UNIT   51 AT END OF TIME STEP    1, STRESS PERIOD    8
1
  VOLUMETRIC BUDGET FOR ENTIRE MODEL AT END OF TIME STEP    1, STRESS PERIOD   8
  ------------------------------------------------------------------------------

     CUMULATIVE VOLUMES      L**3       RATES FOR THIS TIME STEP      L**3/T
     ------------------                 ------------------------

           IN:                                      IN:
           ---                                      ---
             STORAGE =    33248902.9092               STORAGE =        1482.3189
       CONSTANT HEAD =    19238674.7667         CONSTANT HEAD =       33029.6751
               WELLS =           0.0000                 WELLS =           0.0000
            RECHARGE =    17608800.0000              RECHARGE =       27600.0000
      STREAM LEAKAGE =    10513263.4394        STREAM LEAKAGE =       18214.1230

            TOTAL IN =    80609641.1153              TOTAL IN =       80326.1170

          OUT:                                     OUT:
          ----                                     ----
             STORAGE =      942056.2772               STORAGE =        1567.9467
       CONSTANT HEAD =           0.0000         CONSTANT HEAD =           0.0000
               WELLS =    29800874.7382                 WELLS =       40823.1161
            RECHARGE =           0.0000              RECHARGE =           0.0000
      STREAM LEAKAGE =    49866711.8336        STREAM LEAKAGE =       37935.0460

           TOTAL OUT =    80609642.8489             TOTAL OUT =       80326.1088

            IN - OUT =          -1.7337              IN - OUT =       8.2381E-03

 PERCENT DISCREPANCY =          -0.00     PERCENT DISCREPANCY =           0.00






         TIME SUMMARY AT END OF TIME STEP    1 IN STRESS PERIOD    8
                    SECONDS     MINUTES      HOURS       DAYS        YEARS
                    -----------------------------------------------------------
   TIME STEP LENGTH 7.86240E+06 1.31040E+05  2184.0      91.000     0.24914    
 STRESS PERIOD TIME 7.86240E+06 1.31040E+05  2184.0      91.000     0.24914    
         TOTAL TIME 6.30720E+07 1.05120E+06  17520.      730.00      1.9986    
1
1
                            STRESS PERIOD NO.    9, LENGTH =   92.00000    
                            -----------------------------------------------

                              NUMBER OF TIME STEPS =     1

                               MULTIPLIER FOR DELT =     1.500

                            INITIAL TIME STEP SIZE =   92.00000    

 WELL NO.  LAYER   ROW   COL   STRESS RATE         
 --------------------------------------------------
      1      1      5     20      -7739.    
      2      1      9     24     -0.1035E+05
      3      1     15     20     -0.1191E+05
      4      1     16     28     -0.1082E+05

      4 WELLS

                 RECHARGE =  5.000000E-04

 REUSING STREAM SEGMENT DATA FROM LAST STRESS PERIOD
 
 SOLVING FOR HEAD 


     6 CALLS TO PCG ROUTINE FOR TIME STEP   1 IN STRESS PERIOD    9
    23 TOTAL ITERATIONS

 OUTPUT CONTROL FOR STRESS PERIOD    9   TIME STEP    1
    SAVE BUDGET
    SAVE HEAD FOR ALL LAYERS
    PRINT HEAD FOR ALL LAYERS
 UBDSV2 SAVING "STREAMFLOW OUT  " ON UNIT  50 AT TIME STEP  1, STRESS PERIOD   9



 STREAM LISTING     PERIOD      9   STEP        1

 LAYER ROW COL. STREAM  RCH.  FLOW INTO     FLOW TO   FLOW OUT OF   OVRLND.     DIRECT     STREAM       STREAM     STREAM     STREAM   STREAMBED  STREAMBED
                SEG.NO.  NO.  STRM. RCH.    AQUIFER    STRM. RCH.    RUNOFF     PRECIP       ET          HEAD       DEPTH      WIDTH   CONDCTNC.   GRADIENT

   1   13    1     1     1    1.0000E+05 -1.6106E+03   1.0161E+05  0.000E+00  0.000E+00  0.000E+00  4.84067E+01  1.453E-01  2.000E+01  2.000E+04 -8.053E-02
   1   13    2     1     2    1.0161E+05 -2.5494E+03   1.0416E+05  0.000E+00  0.000E+00  0.000E+00  4.79312E+01  1.471E-01  2.000E+01  2.000E+04 -1.275E-01
   1   14    3     1     3    1.0416E+05 -4.0182E+02   1.0456E+05  0.000E+00  0.000E+00  0.000E+00  4.74552E+01  1.484E-01  2.000E+01  2.000E+04 -2.009E-02
   1   15    4     1     4    1.0456E+05 -3.7333E+02   1.0494E+05  0.000E+00  0.000E+00  0.000E+00  4.69783E+01  1.487E-01  2.000E+01  2.000E+04 -1.867E-02
   1   16    5     1     5    1.0494E+05 -1.4491E+03   1.0638E+05  0.000E+00  0.000E+00  0.000E+00  4.65018E+01  1.495E-01  2.000E+01  2.000E+04 -7.245E-02
   1   16    6     1     6    1.0638E+05 -9.2412E+02   1.0731E+05  0.000E+00  0.000E+00  0.000E+00  4.60255E+01  1.505E-01  2.000E+01  2.000E+04 -4.621E-02
   1   16    7     1     7    1.0731E+05 -9.0823E+02   1.0822E+05  0.000E+00  0.000E+00  0.000E+00  4.55490E+01  1.513E-01  2.000E+01  2.000E+04 -4.541E-02
   1   16    8     1     8    1.0822E+05 -9.0193E+02   1.0912E+05  0.000E+00  0.000E+00  0.000E+00  4.50725E+01  1.520E-01  2.000E+01  2.000E+04 -4.510E-02
   1   16    9     1     9    1.0912E+05 -8.8897E+02   1.1001E+05  0.000E+00  0.000E+00  0.000E+00  4.45960E+01  1.528E-01  2.000E+01  2.000E+04 -4.445E-02
   1   16   10     1    10    1.1001E+05 -8.6774E+02   1.1088E+05  0.000E+00  0.000E+00  0.000E+00  4.41194E+01  1.535E-01  2.000E+01  2.000E+04 -4.339E-02
   1   16   11     1    11    1.1088E+05 -8.4965E+02   1.1172E+05  0.000E+00  0.000E+00  0.000E+00  4.36429E+01  1.542E-01  2.000E+01  2.000E+04 -4.248E-02
   1   16   12     1    12    1.1172E+05 -1.3322E+03   1.1306E+05  0.000E+00  0.000E+00  0.000E+00  4.31665E+01  1.552E-01  2.000E+01  2.000E+04 -6.661E-02
   1   15   13     1    13    1.1306E+05 -1.1279E+03   1.1418E+05  0.000E+00  0.000E+00  0.000E+00  4.26903E+01  1.562E-01  2.000E+01  2.000E+04 -5.639E-02
   1   14   14     1    14    1.1418E+05 -1.2423E+03   1.1543E+05  0.000E+00  0.000E+00  0.000E+00  4.22140E+01  1.571E-01  2.000E+01  2.000E+04 -6.212E-02
   1   13   15     1    15    1.1543E+05 -1.3918E+03   1.1682E+05  0.000E+00  0.000E+00  0.000E+00  4.17378E+01  1.582E-01  2.000E+01  2.000E+04 -6.959E-02
   1   12   16     1    16    1.1682E+05 -1.8676E+03   1.1869E+05  0.000E+00  0.000E+00  0.000E+00  4.12618E+01  1.596E-01  2.000E+01  2.000E+04 -9.338E-02
   1   12   17     1    17    1.1869E+05 -9.1815E+02   1.1960E+05  0.000E+00  0.000E+00  0.000E+00  4.07857E+01  1.607E-01  2.000E+01  2.000E+04 -4.591E-02
   1   12   18     1    18    1.1960E+05 -6.2440E+02   1.2023E+05  0.000E+00  0.000E+00  0.000E+00  4.03090E+01  1.613E-01  2.000E+01  2.000E+04 -3.122E-02
   1   12   19     1    19    1.2023E+05 -6.0650E+02   1.2084E+05  0.000E+00  0.000E+00  0.000E+00  3.98323E+01  1.618E-01  2.000E+01  2.000E+04 -3.033E-02
   1   13   20     1    20    1.2084E+05  1.1068E+03   1.1973E+05  0.000E+00  0.000E+00  0.000E+00  3.93548E+01  1.616E-01  2.000E+01  2.000E+04  5.534E-02
   1   14   21     1    21    1.1973E+05  2.3963E+03   1.1733E+05  0.000E+00  0.000E+00  0.000E+00  3.88761E+01  1.602E-01  2.000E+01  2.000E+04  1.198E-01
   1   14   22     1    22    1.1733E+05  5.4720E+03   1.1186E+05  0.000E+00  0.000E+00  0.000E+00  3.83956E+01  1.570E-01  2.000E+01  2.000E+04  2.736E-01
   1    9   30     2     1    5.0000E+04  1.5585E+02   4.9844E+04  0.000E+00  0.000E+00  0.000E+00  4.02408E+01  1.158E-01  2.000E+01  2.000E+04  7.792E-03
   1    9   29     2     2    4.9844E+04 -1.0725E+02   4.9951E+04  0.000E+00  0.000E+00  0.000E+00  3.99907E+01  1.157E-01  2.000E+01  2.000E+04 -5.363E-03
   1    9   28     2     3    4.9951E+04 -2.4370E+02   5.0195E+04  0.000E+00  0.000E+00  0.000E+00  3.97410E+01  1.160E-01  2.000E+01  2.000E+04 -1.218E-02
   1    9   27     2     4    5.0195E+04 -2.4190E+02   5.0437E+04  0.000E+00  0.000E+00  0.000E+00  3.94913E+01  1.163E-01  2.000E+01  2.000E+04 -1.210E-02
   1   10   26     2     5    5.0437E+04  1.1460E+03   4.9291E+04  0.000E+00  0.000E+00  0.000E+00  3.92407E+01  1.157E-01  2.000E+01  2.000E+04  5.730E-02
   1   11   25     2     6    4.9291E+04  1.2140E+03   4.8077E+04  0.000E+00  0.000E+00  0.000E+00  3.89890E+01  1.140E-01  2.000E+01  2.000E+04  6.070E-02
   1   12   24     2     7    4.8077E+04  3.5793E+02   4.7719E+04  0.000E+00  0.000E+00  0.000E+00  3.87379E+01  1.129E-01  2.000E+01  2.000E+04  1.790E-02
   1   13   23     2     8    4.7719E+04 -2.5241E+01   4.7744E+04  0.000E+00  0.000E+00  0.000E+00  3.84877E+01  1.127E-01  2.000E+01  2.000E+04 -1.262E-03
   1   14   22     2     9    4.7744E+04  2.2813E+03   4.5463E+04  0.000E+00  0.000E+00  0.000E+00  3.82361E+01  1.111E-01  2.000E+01  2.000E+04  1.141E-01
   1   14   22     3     1    1.5732E+05 -8.1299E+03   1.6545E+05  0.000E+00  0.000E+00  0.000E+00  3.77155E+01  1.600E-01  2.000E+01  2.000E+04 -4.065E-01
   1   15   23     3     2    1.6545E+05 -1.8321E+02   1.6564E+05  0.000E+00  0.000E+00  0.000E+00  3.68291E+01  1.624E-01  2.000E+01  2.000E+04 -9.161E-03
   1   15   24     3     3    1.6564E+05 -1.8581E+02   1.6582E+05  0.000E+00  0.000E+00  0.000E+00  3.59403E+01  1.625E-01  2.000E+01  2.000E+04 -9.290E-03
   1   15   25     3     4    1.6582E+05 -1.8625E+02   1.6601E+05  0.000E+00  0.000E+00  0.000E+00  3.50515E+01  1.626E-01  2.000E+01  2.000E+04 -9.313E-03
   1   15   26     3     5    1.6601E+05 -6.6130E+01   1.6607E+05  0.000E+00  0.000E+00  0.000E+00  3.41627E+01  1.627E-01  2.000E+01  2.000E+04 -3.306E-03
   1   16   27     3     6    1.6607E+05  8.2529E+02   1.6525E+05  0.000E+00  0.000E+00  0.000E+00  3.32736E+01  1.625E-01  2.000E+01  2.000E+04  4.126E-02
   1   17   28     3     7    1.6525E+05  4.5330E+03   1.6072E+05  0.000E+00  0.000E+00  0.000E+00  3.23831E+01  1.609E-01  2.000E+01  2.000E+04  2.266E-01
   1   18   29     3     8    1.6072E+05 -1.6205E+03   1.6234E+05  0.000E+00  0.000E+00  0.000E+00  3.14934E+01  1.600E-01  2.000E+01  2.000E+04 -8.102E-02
   1   18   30     3     9    1.6234E+05 -2.0313E+03   1.6437E+05  0.000E+00  0.000E+00  0.000E+00  3.06056E+01  1.611E-01  2.000E+01  2.000E+04 -1.016E-01



1
              HEAD IN LAYER   1 AT END OF TIME STEP   1 IN STRESS PERIOD    9
  ---------------------------------------------------------------------------

          1      2      3      4      5      6      7      8      9     10
         11     12     13     14     15     16     17     18     19     20
         21     22     23     24     25     26     27     28     29     30
 .........................................................................
   1  ****** ****** ****** ****** ****** ****** ****** ****** ****** ******
      ****** ****** ****** ****** ****** ****** ****** ****** ****** ******
      ****** ****** ****** ****** ****** ****** ****** ****** ****** ******
   2  ****** ****** ****** ****** ****** ****** ****** ****** ****** ******
      ****** ****** ****** ****** ****** ****** ****** ****** ****** ******
      ****** ****** ****** ****** ****** ****** ****** ****** ****** ******
   3  ****** ****** ****** ****** ****** ****** ****** ****** ****** ******
      ****** ****** ****** ****** ****** ****** ****** ****** ****** ******
      ****** ****** ****** ****** ****** ****** ****** ****** ****** ******
   4  ****** ****** ****** ****** ****** ****** ****** ****** ****** ******
      ****** ****** ****** ****** ****** ****** ****** ****** ****** ******
      ****** ****** ****** ****** ****** ****** ****** ****** ****** ******
   5  ****** ****** ****** ****** ****** ****** ****** ****** ****** ******
      ****** ****** ****** ****** ****** ****** ****** ****** ****** ******
      ****** ****** ****** ****** ****** ****** ****** ****** ****** ******
   6  ****** ****** ****** ****** ****** ****** ****** ****** ****** ******
      ****** ****** ****** ****** ****** ****** ****** ****** ****** ******
      ****** ****** ****** ****** ****** ****** ****** ****** ****** ******
   7  ****** ****** ****** ****** ****** ****** ****** ****** ****** ******
      ****** ****** ****** ****** ****** ****** ****** ****** ****** ******
      ****** ****** ****** ****** ****** ****** ****** ****** ****** ******
   8  ****** ****** ****** ****** ****** ****** ****** ****** ****** ******
      ****** ****** ****** ****** ****** ****** ****** ****** ****** ******
      ****** ****** ****** ****** ****** ****** ****** ****** ****** ******
   9  ****** ****** ****** ****** ****** ****** ****** ****** ****** ******
      ****** ****** ****** ****** ****** ****** ****** ****** ****** ******
      ****** ****** ****** ****** ****** ****** ****** ****** ****** ******
  10  ****** ****** ****** ****** ****** ****** ****** ****** ****** ******
      ****** ****** ****** ****** ****** ****** ****** ****** ****** ******
      ****** ****** ****** ****** ****** ****** ****** ****** ****** ******
  11  ****** ****** ****** ****** ****** ****** ****** ****** ****** ******
      ****** ****** ****** ****** ****** ****** ****** ****** ****** ******
      ****** ****** ****** ****** ****** ****** ****** ****** ****** ******
  12  ****** ****** ****** ****** ****** ****** ****** ****** ****** ******
      ****** ****** ****** ****** ****** ****** ****** ****** ****** ******
      ****** ****** ****** ****** ****** ****** ****** ****** ****** ******
  13  ****** ****** ****** ****** ****** ****** ****** ****** ****** ******
      ****** ****** ****** ****** ****** ****** ****** ****** ****** ******
      ****** ****** ****** ****** ****** ****** ****** ****** ****** ******
  14  ****** ****** ****** ****** ****** ****** ****** ****** ****** ******
      ****** ****** ****** ****** ****** ****** ****** ****** ****** ******
      ****** ****** ****** ****** ****** ****** ****** ****** ****** ******
  15  ****** ****** ****** ****** ****** ****** ****** ****** ****** ******
      ****** ****** ****** ****** ****** ****** ****** ****** ****** ******
      ****** ****** ****** ****** ****** ****** ****** ****** ****** ******
  16  ****** ****** ****** ****** ****** ****** ****** ****** ****** ******
      ****** ****** ****** ****** ****** ****** ****** ****** ****** ******
      ****** ****** ****** ****** ****** ****** ****** ****** ****** ******
  17  ****** ****** ****** ****** ****** ****** ****** ****** ****** ******
      ****** ****** ****** ****** ****** ****** ****** ****** ****** ******
      ****** ****** ****** ****** ****** ****** ****** ****** ****** ******
  18  ****** ****** ****** ****** ****** ****** ****** ****** ****** ******
      ****** ****** ****** ****** ****** ****** ****** ****** ****** ******
      ****** ****** ****** ****** ****** ****** ****** ****** ****** ******
  19  ****** ****** ****** ****** ****** ****** ****** ****** ****** ******
      ****** ****** ****** ****** ****** ****** ****** ****** ****** ******
      ****** ****** ****** ****** ****** ****** ****** ****** ****** ******
  20  ****** ****** ****** ****** ****** ****** ****** ****** ****** ******
      ****** ****** ****** ****** ****** ****** ****** ****** ****** ******
      ****** ****** ****** ****** ****** ****** ****** ****** ****** ******
  21  ****** ****** ****** ****** ****** ****** ****** ****** ****** ******
      ****** ****** ****** ****** ****** ****** ****** ****** ****** ******
      ****** ****** ****** ****** ****** ****** ****** ****** ****** ******
  22  ****** ****** ****** ****** ****** ****** ****** ****** ****** ******
      ****** ****** ****** ****** ****** ****** ****** ****** ****** ******
      ****** ****** ****** ****** ****** ****** ****** ****** ****** ******
  23  ****** ****** ****** ****** ****** ****** ****** ****** ****** ******
      ****** ****** ****** ****** ****** ****** ****** ****** ****** ******
      ****** ****** ****** ****** ****** ****** ****** ****** ****** ******
  24  ****** ****** ****** ****** ****** ****** ****** ****** ****** ******
      ****** ****** ****** ****** ****** ****** ****** ****** ****** ******
      ****** ****** ****** ****** ****** ****** ****** ****** ****** ******
  25  ****** ****** ****** ****** ****** ****** ****** ****** ****** ******
      ****** ****** ****** ****** ****** ****** ****** ****** ****** ******
      ****** ****** ****** ****** ****** ****** ****** ****** ****** ******

 HEAD WILL BE SAVED ON UNIT   51 AT END OF TIME STEP    1, STRESS PERIOD    9
1
  VOLUMETRIC BUDGET FOR ENTIRE MODEL AT END OF TIME STEP    1, STRESS PERIOD   9
  ------------------------------------------------------------------------------

     CUMULATIVE VOLUMES      L**3       RATES FOR THIS TIME STEP      L**3/T
     ------------------                 ------------------------

           IN:                                      IN:
           ---                                      ---
             STORAGE =    33910917.1364               STORAGE =        7195.8068
       CONSTANT HEAD =    22384680.5986         CONSTANT HEAD =       34195.7156
               WELLS =           0.0000                 WELLS =           0.0000
            RECHARGE =    18878400.0000              RECHARGE =       13800.0000
      STREAM LEAKAGE =    12306199.2584        STREAM LEAKAGE =       19488.4328

            TOTAL IN =    87480196.9934              TOTAL IN =       74679.9552

          OUT:                                     OUT:
          ----                                     ----
             STORAGE =      942056.2772               STORAGE =           0.0000
       CONSTANT HEAD =           0.0000         CONSTANT HEAD =           0.0000
               WELLS =    33556601.4175                 WELLS =       40823.1161
            RECHARGE =           0.0000              RECHARGE =           0.0000
      STREAM LEAKAGE =    52981541.1015        STREAM LEAKAGE =       33856.8399

           TOTAL OUT =    87480198.7962             TOTAL OUT =       74679.9559

            IN - OUT =          -1.8028              IN - OUT =      -7.5136E-04

 PERCENT DISCREPANCY =          -0.00     PERCENT DISCREPANCY =          -0.00






         TIME SUMMARY AT END OF TIME STEP    1 IN STRESS PERIOD    9
                    SECONDS     MINUTES      HOURS       DAYS        YEARS
                    -----------------------------------------------------------
   TIME STEP LENGTH 7.94880E+06 1.32480E+05  2208.0      92.000     0.25188    
 STRESS PERIOD TIME 7.94880E+06 1.32480E+05  2208.0      92.000     0.25188    
         TOTAL TIME 7.10208E+07 1.18368E+06  19728.      822.00      2.2505    
1
1
                            STRESS PERIOD NO.   10, LENGTH =   91.00000    
                            -----------------------------------------------

                              NUMBER OF TIME STEPS =     1

                               MULTIPLIER FOR DELT =     1.500

                            INITIAL TIME STEP SIZE =   91.00000    

 WELL NO.  LAYER   ROW   COL   STRESS RATE         
 --------------------------------------------------
      1      1      5     20      -7739.    
      2      1      9     24     -0.1035E+05
      3      1     15     20     -0.1191E+05
      4      1     16     28     -0.1082E+05

      4 WELLS

                 RECHARGE =  2.000000E-03

 REUSING STREAM SEGMENT DATA FROM LAST STRESS PERIOD
 
 SOLVING FOR HEAD 


     7 CALLS TO PCG ROUTINE FOR TIME STEP   1 IN STRESS PERIOD   10
    26 TOTAL ITERATIONS

 OUTPUT CONTROL FOR STRESS PERIOD   10   TIME STEP    1
    SAVE BUDGET
    SAVE HEAD FOR ALL LAYERS
    PRINT HEAD FOR ALL LAYERS
 UBDSV2 SAVING "STREAMFLOW OUT  " ON UNIT  50 AT TIME STEP  1, STRESS PERIOD  10



 STREAM LISTING     PERIOD     10   STEP        1

 LAYER ROW COL. STREAM  RCH.  FLOW INTO     FLOW TO   FLOW OUT OF   OVRLND.     DIRECT     STREAM       STREAM     STREAM     STREAM   STREAMBED  STREAMBED
                SEG.NO.  NO.  STRM. RCH.    AQUIFER    STRM. RCH.    RUNOFF     PRECIP       ET          HEAD       DEPTH      WIDTH   CONDCTNC.   GRADIENT

   1   13    1     1     1    1.0000E+05 -2.0631E+03   1.0206E+05  0.000E+00  0.000E+00  0.000E+00  4.84069E+01  1.455E-01  2.000E+01  2.000E+04 -1.032E-01
   1   13    2     1     2    1.0206E+05 -3.0509E+03   1.0511E+05  0.000E+00  0.000E+00  0.000E+00  4.79318E+01  1.477E-01  2.000E+01  2.000E+04 -1.525E-01
   1   14    3     1     3    1.0511E+05 -5.8838E+02   1.0570E+05  0.000E+00  0.000E+00  0.000E+00  4.74561E+01  1.493E-01  2.000E+01  2.000E+04 -2.942E-02
   1   15    4     1     4    1.0570E+05 -5.7280E+02   1.0628E+05  0.000E+00  0.000E+00  0.000E+00  4.69793E+01  1.498E-01  2.000E+01  2.000E+04 -2.864E-02
   1   16    5     1     5    1.0628E+05 -2.0683E+03   1.0834E+05  0.000E+00  0.000E+00  0.000E+00  4.65032E+01  1.509E-01  2.000E+01  2.000E+04 -1.034E-01
   1   16    6     1     6    1.0834E+05 -1.2865E+03   1.0963E+05  0.000E+00  0.000E+00  0.000E+00  4.60273E+01  1.523E-01  2.000E+01  2.000E+04 -6.432E-02
   1   16    7     1     7    1.0963E+05 -1.2528E+03   1.1088E+05  0.000E+00  0.000E+00  0.000E+00  4.55511E+01  1.534E-01  2.000E+01  2.000E+04 -6.264E-02
   1   16    8     1     8    1.1088E+05 -1.2410E+03   1.1212E+05  0.000E+00  0.000E+00  0.000E+00  4.50749E+01  1.544E-01  2.000E+01  2.000E+04 -6.205E-02
   1   16    9     1     9    1.1212E+05 -1.2265E+03   1.1335E+05  0.000E+00  0.000E+00  0.000E+00  4.45986E+01  1.554E-01  2.000E+01  2.000E+04 -6.133E-02
   1   16   10     1    10    1.1335E+05 -1.2055E+03   1.1456E+05  0.000E+00  0.000E+00  0.000E+00  4.41224E+01  1.564E-01  2.000E+01  2.000E+04 -6.027E-02
   1   16   11     1    11    1.1456E+05 -1.1909E+03   1.1575E+05  0.000E+00  0.000E+00  0.000E+00  4.36461E+01  1.574E-01  2.000E+01  2.000E+04 -5.954E-02
   1   16   12     1    12    1.1575E+05 -1.9019E+03   1.1765E+05  0.000E+00  0.000E+00  0.000E+00  4.31701E+01  1.587E-01  2.000E+01  2.000E+04 -9.509E-02
   1   15   13     1    13    1.1765E+05 -1.7144E+03   1.1936E+05  0.000E+00  0.000E+00  0.000E+00  4.26943E+01  1.602E-01  2.000E+01  2.000E+04 -8.572E-02
   1   14   14     1    14    1.1936E+05 -1.8360E+03   1.2120E+05  0.000E+00  0.000E+00  0.000E+00  4.22184E+01  1.616E-01  2.000E+01  2.000E+04 -9.180E-02
   1   13   15     1    15    1.2120E+05 -1.9754E+03   1.2317E+05  0.000E+00  0.000E+00  0.000E+00  4.17427E+01  1.631E-01  2.000E+01  2.000E+04 -9.877E-02
   1   12   16     1    16    1.2317E+05 -2.4295E+03   1.2560E+05  0.000E+00  0.000E+00  0.000E+00  4.12672E+01  1.649E-01  2.000E+01  2.000E+04 -1.215E-01
   1   12   17     1    17    1.2560E+05 -1.3437E+03   1.2695E+05  0.000E+00  0.000E+00  0.000E+00  4.07914E+01  1.664E-01  2.000E+01  2.000E+04 -6.718E-02
   1   12   18     1    18    1.2695E+05 -1.0458E+03   1.2799E+05  0.000E+00  0.000E+00  0.000E+00  4.03151E+01  1.673E-01  2.000E+01  2.000E+04 -5.229E-02
   1   12   19     1    19    1.2799E+05 -1.1250E+03   1.2912E+05  0.000E+00  0.000E+00  0.000E+00  3.98386E+01  1.682E-01  2.000E+01  2.000E+04 -5.625E-02
   1   13   20     1    20    1.2912E+05  5.8541E+02   1.2853E+05  0.000E+00  0.000E+00  0.000E+00  3.93616E+01  1.684E-01  2.000E+01  2.000E+04  2.927E-02
   1   14   21     1    21    1.2853E+05  1.8709E+03   1.2666E+05  0.000E+00  0.000E+00  0.000E+00  3.88833E+01  1.674E-01  2.000E+01  2.000E+04  9.355E-02
   1   14   22     1    22    1.2666E+05  5.3429E+03   1.2132E+05  0.000E+00  0.000E+00  0.000E+00  3.84032E+01  1.646E-01  2.000E+01  2.000E+04  2.671E-01
   1    9   30     2     1    5.0000E+04 -2.5820E+02   5.0258E+04  0.000E+00  0.000E+00  0.000E+00  4.02410E+01  1.160E-01  2.000E+01  2.000E+04 -1.291E-02
   1    9   29     2     2    5.0258E+04 -5.1900E+02   5.0777E+04  0.000E+00  0.000E+00  0.000E+00  3.99916E+01  1.166E-01  2.000E+01  2.000E+04 -2.595E-02
   1    9   28     2     3    5.0777E+04 -6.5461E+02   5.1432E+04  0.000E+00  0.000E+00  0.000E+00  3.97424E+01  1.174E-01  2.000E+01  2.000E+04 -3.273E-02
   1    9   27     2     4    5.1432E+04 -7.9443E+02   5.2226E+04  0.000E+00  0.000E+00  0.000E+00  3.94934E+01  1.184E-01  2.000E+01  2.000E+04 -3.972E-02
   1   10   26     2     5    5.2226E+04  5.9334E+02   5.1633E+04  0.000E+00  0.000E+00  0.000E+00  3.92435E+01  1.185E-01  2.000E+01  2.000E+04  2.967E-02
   1   11   25     2     6    5.1633E+04  6.8589E+02   5.0947E+04  0.000E+00  0.000E+00  0.000E+00  3.89926E+01  1.176E-01  2.000E+01  2.000E+04  3.429E-02
   1   12   24     2     7    5.0947E+04 -1.2000E+02   5.1067E+04  0.000E+00  0.000E+00  0.000E+00  3.87423E+01  1.173E-01  2.000E+01  2.000E+04 -6.000E-03
   1   13   23     2     8    5.1067E+04 -1.7387E+02   5.1241E+04  0.000E+00  0.000E+00  0.000E+00  3.84925E+01  1.175E-01  2.000E+01  2.000E+04 -8.694E-03
   1   14   22     2     9    5.1241E+04  2.1014E+03   4.9140E+04  0.000E+00  0.000E+00  0.000E+00  3.82411E+01  1.161E-01  2.000E+01  2.000E+04  1.051E-01
   1   14   22     3     1    1.7046E+05 -8.2563E+03   1.7871E+05  0.000E+00  0.000E+00  0.000E+00  3.77232E+01  1.677E-01  2.000E+01  2.000E+04 -4.128E-01
   1   15   23     3     2    1.7871E+05 -3.4582E+02   1.7906E+05  0.000E+00  0.000E+00  0.000E+00  3.68368E+01  1.702E-01  2.000E+01  2.000E+04 -1.729E-02
   1   15   24     3     3    1.7906E+05 -3.2303E+02   1.7938E+05  0.000E+00  0.000E+00  0.000E+00  3.59481E+01  1.703E-01  2.000E+01  2.000E+04 -1.615E-02
   1   15   25     3     4    1.7938E+05 -3.2688E+02   1.7971E+05  0.000E+00  0.000E+00  0.000E+00  3.50594E+01  1.705E-01  2.000E+01  2.000E+04 -1.634E-02
   1   15   26     3     5    1.7971E+05 -2.2839E+02   1.7994E+05  0.000E+00  0.000E+00  0.000E+00  3.41707E+01  1.707E-01  2.000E+01  2.000E+04 -1.142E-02
   1   16   27     3     6    1.7994E+05  6.3938E+02   1.7930E+05  0.000E+00  0.000E+00  0.000E+00  3.32817E+01  1.706E-01  2.000E+01  2.000E+04  3.197E-02
   1   17   28     3     7    1.7930E+05  4.0122E+03   1.7529E+05  0.000E+00  0.000E+00  0.000E+00  3.23915E+01  1.692E-01  2.000E+01  2.000E+04  2.006E-01
   1   18   29     3     8    1.7529E+05 -2.1722E+03   1.7746E+05  0.000E+00  0.000E+00  0.000E+00  3.15021E+01  1.687E-01  2.000E+01  2.000E+04 -1.086E-01
   1   18   30     3     9    1.7746E+05 -2.4569E+03   1.7992E+05  0.000E+00  0.000E+00  0.000E+00  3.06145E+01  1.700E-01  2.000E+01  2.000E+04 -1.228E-01



1
              HEAD IN LAYER   1 AT END OF TIME STEP   1 IN STRESS PERIOD   10
  ---------------------------------------------------------------------------

          1      2      3      4      5      6      7      8      9     10
         11     12     13     14     15     16     17     18     19     20
         21     22     23     24     25     26     27     28     29     30
 .........................................................................
   1  ****** ****** ****** ****** ****** ****** ****** ****** ****** ******
      ****** ****** ****** ****** ****** ****** ****** ****** ****** ******
      ****** ****** ****** ****** ****** ****** ****** ****** ****** ******
   2  ****** ****** ****** ****** ****** ****** ****** ****** ****** ******
      ****** ****** ****** ****** ****** ****** ****** ****** ****** ******
      ****** ****** ****** ****** ****** ****** ****** ****** ****** ******
   3  ****** ****** ****** ****** ****** ****** ****** ****** ****** ******
      ****** ****** ****** ****** ****** ****** ****** ****** ****** ******
      ****** ****** ****** ****** ****** ****** ****** ****** ****** ******
   4  ****** ****** ****** ****** ****** ****** ****** ****** ****** ******
      ****** ****** ****** ****** ****** ****** ****** ****** ****** ******
      ****** ****** ****** ****** ****** ****** ****** ****** ****** ******
   5  ****** ****** ****** ****** ****** ****** ****** ****** ****** ******
      ****** ****** ****** ****** ****** ****** ****** ****** ****** ******
      ****** ****** ****** ****** ****** ****** ****** ****** ****** ******
   6  ****** ****** ****** ****** ****** ****** ****** ****** ****** ******
      ****** ****** ****** ****** ****** ****** ****** ****** ****** ******
      ****** ****** ****** ****** ****** ****** ****** ****** ****** ******
   7  ****** ****** ****** ****** ****** ****** ****** ****** ****** ******
      ****** ****** ****** ****** ****** ****** ****** ****** ****** ******
      ****** ****** ****** ****** ****** ****** ****** ****** ****** ******
   8  ****** ****** ****** ****** ****** ****** ****** ****** ****** ******
      ****** ****** ****** ****** ****** ****** ****** ****** ****** ******
      ****** ****** ****** ****** ****** ****** ****** ****** ****** ******
   9  ****** ****** ****** ****** ****** ****** ****** ****** ****** ******
      ****** ****** ****** ****** ****** ****** ****** ****** ****** ******
      ****** ****** ****** ****** ****** ****** ****** ****** ****** ******
  10  ****** ****** ****** ****** ****** ****** ****** ****** ****** ******
      ****** ****** ****** ****** ****** ****** ****** ****** ****** ******
      ****** ****** ****** ****** ****** ****** ****** ****** ****** ******
  11  ****** ****** ****** ****** ****** ****** ****** ****** ****** ******
      ****** ****** ****** ****** ****** ****** ****** ****** ****** ******
      ****** ****** ****** ****** ****** ****** ****** ****** ****** ******
  12  ****** ****** ****** ****** ****** ****** ****** ****** ****** ******
      ****** ****** ****** ****** ****** ****** ****** ****** ****** ******
      ****** ****** ****** ****** ****** ****** ****** ****** ****** ******
  13  ****** ****** ****** ****** ****** ****** ****** ****** ****** ******
      ****** ****** ****** ****** ****** ****** ****** ****** ****** ******
      ****** ****** ****** ****** ****** ****** ****** ****** ****** ******
  14  ****** ****** ****** ****** ****** ****** ****** ****** ****** ******
      ****** ****** ****** ****** ****** ****** ****** ****** ****** ******
      ****** ****** ****** ****** ****** ****** ****** ****** ****** ******
  15  ****** ****** ****** ****** ****** ****** ****** ****** ****** ******
      ****** ****** ****** ****** ****** ****** ****** ****** ****** ******
      ****** ****** ****** ****** ****** ****** ****** ****** ****** ******
  16  ****** ****** ****** ****** ****** ****** ****** ****** ****** ******
      ****** ****** ****** ****** ****** ****** ****** ****** ****** ******
      ****** ****** ****** ****** ****** ****** ****** ****** ****** ******
  17  ****** ****** ****** ****** ****** ****** ****** ****** ****** ******
      ****** ****** ****** ****** ****** ****** ****** ****** ****** ******
      ****** ****** ****** ****** ****** ****** ****** ****** ****** ******
  18  ****** ****** ****** ****** ****** ****** ****** ****** ****** ******
      ****** ****** ****** ****** ****** ****** ****** ****** ****** ******
      ****** ****** ****** ****** ****** ****** ****** ****** ****** ******
  19  ****** ****** ****** ****** ****** ****** ****** ****** ****** ******
      ****** ****** ****** ****** ****** ****** ****** ****** ****** ******
      ****** ****** ****** ****** ****** ****** ****** ****** ****** ******
  20  ****** ****** ****** ****** ****** ****** ****** ****** ****** ******
      ****** ****** ****** ****** ****** ****** ****** ****** ****** ******
      ****** ****** ****** ****** ****** ****** ****** ****** ****** ******
  21  ****** ****** ****** ****** ****** ****** ****** ****** ****** ******
      ****** ****** ****** ****** ****** ****** ****** ****** ****** ******
      ****** ****** ****** ****** ****** ****** ****** ****** ****** ******
  22  ****** ****** ****** ****** ****** ****** ****** ****** ****** ******
      ****** ****** ****** ****** ****** ****** ****** ****** ****** ******
      ****** ****** ****** ****** ****** ****** ****** ****** ****** ******
  23  ****** ****** ****** ****** ****** ****** ****** ****** ****** ******
      ****** ****** ****** ****** ****** ****** ****** ****** ****** ******
      ****** ****** ****** ****** ****** ****** ****** ****** ****** ******
  24  ****** ****** ****** ****** ****** ****** ****** ****** ****** ******
      ****** ****** ****** ****** ****** ****** ****** ****** ****** ******
      ****** ****** ****** ****** ****** ****** ****** ****** ****** ******
  25  ****** ****** ****** ****** ****** ****** ****** ****** ****** ******
      ****** ****** ****** ****** ****** ****** ****** ****** ****** ******
      ****** ****** ****** ****** ****** ****** ****** ****** ****** ******

 HEAD WILL BE SAVED ON UNIT   51 AT END OF TIME STEP    1, STRESS PERIOD   10
1
  VOLUMETRIC BUDGET FOR ENTIRE MODEL AT END OF TIME STEP    1, STRESS PERIOD  10
  ------------------------------------------------------------------------------

     CUMULATIVE VOLUMES      L**3       RATES FOR THIS TIME STEP      L**3/T
     ------------------                 ------------------------

           IN:                                      IN:
           ---                                      ---
             STORAGE =    33910917.1364               STORAGE =           0.0000
       CONSTANT HEAD =    25227661.4530         CONSTANT HEAD =       31241.5479
               WELLS =           0.0000                 WELLS =           0.0000
            RECHARGE =    23901600.0000              RECHARGE =       55200.0000
      STREAM LEAKAGE =    13746857.9502        STREAM LEAKAGE =       15831.4142

            TOTAL IN =    96787036.5396              TOTAL IN =      102272.9620

          OUT:                                     OUT:
          ----                                     ----
             STORAGE =     2370936.2876               STORAGE =       15701.9781
       CONSTANT HEAD =           0.0000         CONSTANT HEAD =           0.0000
               WELLS =    37271504.9808                 WELLS =       40823.1161
            RECHARGE =           0.0000              RECHARGE =           0.0000
      STREAM LEAKAGE =    57144596.7354        STREAM LEAKAGE =       45747.8641

           TOTAL OUT =    96787038.0038             TOTAL OUT =      102272.9583

            IN - OUT =          -1.4642              IN - OUT =       3.7213E-03

 PERCENT DISCREPANCY =          -0.00     PERCENT DISCREPANCY =           0.00






         TIME SUMMARY AT END OF TIME STEP    1 IN STRESS PERIOD   10
                    SECONDS     MINUTES      HOURS       DAYS        YEARS
                    -----------------------------------------------------------
   TIME STEP LENGTH 7.86240E+06 1.31040E+05  2184.0      91.000     0.24914    
 STRESS PERIOD TIME 7.86240E+06 1.31040E+05  2184.0      91.000     0.24914    
         TOTAL TIME 7.88832E+07 1.31472E+06  21912.      913.00      2.4997    
1
1
                            STRESS PERIOD NO.   11, LENGTH =   91.00000    
                            -----------------------------------------------

                              NUMBER OF TIME STEPS =     1

                               MULTIPLIER FOR DELT =     1.500

                            INITIAL TIME STEP SIZE =   91.00000    

 WELL NO.  LAYER   ROW   COL   STRESS RATE         
 --------------------------------------------------
      1      1      5     20      -7739.    
      2      1      9     24     -0.1035E+05
      3      1     15     20     -0.1191E+05
      4      1     16     28     -0.1082E+05

      4 WELLS

                 RECHARGE =   0.00000    

 REUSING STREAM SEGMENT DATA FROM LAST STRESS PERIOD
 
 SOLVING FOR HEAD 


     7 CALLS TO PCG ROUTINE FOR TIME STEP   1 IN STRESS PERIOD   11
    26 TOTAL ITERATIONS

 OUTPUT CONTROL FOR STRESS PERIOD   11   TIME STEP    1
    SAVE BUDGET
    SAVE HEAD FOR ALL LAYERS
    PRINT HEAD FOR ALL LAYERS
 UBDSV2 SAVING "STREAMFLOW OUT  " ON UNIT  50 AT TIME STEP  1, STRESS PERIOD  11



 STREAM LISTING     PERIOD     11   STEP        1

 LAYER ROW COL. STREAM  RCH.  FLOW INTO     FLOW TO   FLOW OUT OF   OVRLND.     DIRECT     STREAM       STREAM     STREAM     STREAM   STREAMBED  STREAMBED
                SEG.NO.  NO.  STRM. RCH.    AQUIFER    STRM. RCH.    RUNOFF     PRECIP       ET          HEAD       DEPTH      WIDTH   CONDCTNC.   GRADIENT

   1   13    1     1     1    1.0000E+05 -1.4954E+03   1.0150E+05  0.000E+00  0.000E+00  0.000E+00  4.84067E+01  1.453E-01  2.000E+01  2.000E+04 -7.477E-02
   1   13    2     1     2    1.0150E+05 -2.4188E+03   1.0391E+05  0.000E+00  0.000E+00  0.000E+00  4.79311E+01  1.470E-01  2.000E+01  2.000E+04 -1.209E-01
   1   14    3     1     3    1.0391E+05 -3.5750E+02   1.0427E+05  0.000E+00  0.000E+00  0.000E+00  4.74550E+01  1.482E-01  2.000E+01  2.000E+04 -1.788E-02
   1   15    4     1     4    1.0427E+05 -3.3093E+02   1.0460E+05  0.000E+00  0.000E+00  0.000E+00  4.69780E+01  1.485E-01  2.000E+01  2.000E+04 -1.655E-02
   1   16    5     1     5    1.0460E+05 -1.3806E+03   1.0598E+05  0.000E+00  0.000E+00  0.000E+00  4.65015E+01  1.492E-01  2.000E+01  2.000E+04 -6.903E-02
   1   16    6     1     6    1.0598E+05 -8.7228E+02   1.0686E+05  0.000E+00  0.000E+00  0.000E+00  4.60252E+01  1.502E-01  2.000E+01  2.000E+04 -4.361E-02
   1   16    7     1     7    1.0686E+05 -8.5618E+02   1.0771E+05  0.000E+00  0.000E+00  0.000E+00  4.55486E+01  1.509E-01  2.000E+01  2.000E+04 -4.281E-02
   1   16    8     1     8    1.0771E+05 -8.4994E+02   1.0856E+05  0.000E+00  0.000E+00  0.000E+00  4.50721E+01  1.516E-01  2.000E+01  2.000E+04 -4.250E-02
   1   16    9     1     9    1.0856E+05 -8.3768E+02   1.0940E+05  0.000E+00  0.000E+00  0.000E+00  4.45955E+01  1.523E-01  2.000E+01  2.000E+04 -4.188E-02
   1   16   10     1    10    1.0940E+05 -8.1771E+02   1.1022E+05  0.000E+00  0.000E+00  0.000E+00  4.41189E+01  1.530E-01  2.000E+01  2.000E+04 -4.089E-02
   1   16   11     1    11    1.1022E+05 -8.0129E+02   1.1102E+05  0.000E+00  0.000E+00  0.000E+00  4.36423E+01  1.537E-01  2.000E+01  2.000E+04 -4.006E-02
   1   16   12     1    12    1.1102E+05 -1.2563E+03   1.1227E+05  0.000E+00  0.000E+00  0.000E+00  4.31659E+01  1.545E-01  2.000E+01  2.000E+04 -6.282E-02
   1   15   13     1    13    1.1227E+05 -1.0260E+03   1.1330E+05  0.000E+00  0.000E+00  0.000E+00  4.26896E+01  1.555E-01  2.000E+01  2.000E+04 -5.130E-02
   1   14   14     1    14    1.1330E+05 -1.1297E+03   1.1443E+05  0.000E+00  0.000E+00  0.000E+00  4.22132E+01  1.564E-01  2.000E+01  2.000E+04 -5.649E-02
   1   13   15     1    15    1.1443E+05 -1.2747E+03   1.1570E+05  0.000E+00  0.000E+00  0.000E+00  4.17369E+01  1.574E-01  2.000E+01  2.000E+04 -6.373E-02
   1   12   16     1    16    1.1570E+05 -1.7522E+03   1.1746E+05  0.000E+00  0.000E+00  0.000E+00  4.12609E+01  1.586E-01  2.000E+01  2.000E+04 -8.761E-02
   1   12   17     1    17    1.1746E+05 -8.3692E+02   1.1829E+05  0.000E+00  0.000E+00  0.000E+00  4.07847E+01  1.597E-01  2.000E+01  2.000E+04 -4.185E-02
   1   12   18     1    18    1.1829E+05 -5.4669E+02   1.1884E+05  0.000E+00  0.000E+00  0.000E+00  4.03079E+01  1.602E-01  2.000E+01  2.000E+04 -2.733E-02
   1   12   19     1    19    1.1884E+05 -5.1225E+02   1.1935E+05  0.000E+00  0.000E+00  0.000E+00  3.98311E+01  1.606E-01  2.000E+01  2.000E+04 -2.561E-02
   1   13   20     1    20    1.1935E+05  1.1977E+03   1.1816E+05  0.000E+00  0.000E+00  0.000E+00  3.93535E+01  1.604E-01  2.000E+01  2.000E+04  5.989E-02
   1   14   21     1    21    1.1816E+05  2.4677E+03   1.1569E+05  0.000E+00  0.000E+00  0.000E+00  3.88748E+01  1.589E-01  2.000E+01  2.000E+04  1.234E-01
   1   14   22     1    22    1.1569E+05  5.4919E+03   1.1020E+05  0.000E+00  0.000E+00  0.000E+00  3.83942E+01  1.556E-01  2.000E+01  2.000E+04  2.746E-01
   1    9   30     2     1    5.0000E+04  2.2992E+02   4.9770E+04  0.000E+00  0.000E+00  0.000E+00  4.02407E+01  1.157E-01  2.000E+01  2.000E+04  1.150E-02
   1    9   29     2     2    4.9770E+04 -3.3931E+01   4.9804E+04  0.000E+00  0.000E+00  0.000E+00  3.99906E+01  1.156E-01  2.000E+01  2.000E+04 -1.697E-03
   1    9   28     2     3    4.9804E+04 -1.7172E+02   4.9976E+04  0.000E+00  0.000E+00  0.000E+00  3.97407E+01  1.157E-01  2.000E+01  2.000E+04 -8.586E-03
   1    9   27     2     4    4.9976E+04 -1.5458E+02   5.0130E+04  0.000E+00  0.000E+00  0.000E+00  3.94909E+01  1.159E-01  2.000E+01  2.000E+04 -7.729E-03
   1   10   26     2     5    5.0130E+04  1.2475E+03   4.8883E+04  0.000E+00  0.000E+00  0.000E+00  3.92402E+01  1.152E-01  2.000E+01  2.000E+04  6.238E-02
   1   11   25     2     6    4.8883E+04  1.3162E+03   4.7567E+04  0.000E+00  0.000E+00  0.000E+00  3.89884E+01  1.134E-01  2.000E+01  2.000E+04  6.581E-02
   1   12   24     2     7    4.7567E+04  4.5324E+02   4.7113E+04  0.000E+00  0.000E+00  0.000E+00  3.87371E+01  1.121E-01  2.000E+01  2.000E+04  2.266E-02
   1   13   23     2     8    4.7113E+04  1.1941E+01   4.7101E+04  0.000E+00  0.000E+00  0.000E+00  3.84868E+01  1.118E-01  2.000E+01  2.000E+04  5.970E-04
   1   14   22     2     9    4.7101E+04  2.3097E+03   4.4792E+04  0.000E+00  0.000E+00  0.000E+00  3.82351E+01  1.101E-01  2.000E+01  2.000E+04  1.155E-01
   1   14   22     3     1    1.5499E+05 -8.1106E+03   1.6310E+05  0.000E+00  0.000E+00  0.000E+00  3.77141E+01  1.586E-01  2.000E+01  2.000E+04 -4.055E-01
   1   15   23     3     2    1.6310E+05 -1.5387E+02   1.6325E+05  0.000E+00  0.000E+00  0.000E+00  3.68277E+01  1.610E-01  2.000E+01  2.000E+04 -7.693E-03
   1   15   24     3     3    1.6325E+05 -1.5795E+02   1.6341E+05  0.000E+00  0.000E+00  0.000E+00  3.59389E+01  1.611E-01  2.000E+01  2.000E+04 -7.898E-03
   1   15   25     3     4    1.6341E+05 -1.5797E+02   1.6357E+05  0.000E+00  0.000E+00  0.000E+00  3.50501E+01  1.612E-01  2.000E+01  2.000E+04 -7.898E-03
   1   15   26     3     5    1.6357E+05 -3.2743E+01   1.6360E+05  0.000E+00  0.000E+00  0.000E+00  3.41613E+01  1.613E-01  2.000E+01  2.000E+04 -1.637E-03
   1   16   27     3     6    1.6360E+05  8.6233E+02   1.6274E+05  0.000E+00  0.000E+00  0.000E+00  3.32721E+01  1.610E-01  2.000E+01  2.000E+04  4.312E-02
   1   17   28     3     7    1.6274E+05  4.6217E+03   1.5812E+05  0.000E+00  0.000E+00  0.000E+00  3.23816E+01  1.594E-01  2.000E+01  2.000E+04  2.311E-01
   1   18   29     3     8    1.5812E+05 -1.5508E+03   1.5967E+05  0.000E+00  0.000E+00  0.000E+00  3.14918E+01  1.585E-01  2.000E+01  2.000E+04 -7.754E-02
   1   18   30     3     9    1.5967E+05 -1.9680E+03   1.6164E+05  0.000E+00  0.000E+00  0.000E+00  3.06040E+01  1.595E-01  2.000E+01  2.000E+04 -9.840E-02



1
              HEAD IN LAYER   1 AT END OF TIME STEP   1 IN STRESS PERIOD   11
  ---------------------------------------------------------------------------

          1      2      3      4      5      6      7      8      9     10
         11     12     13     14     15     16     17     18     19     20
         21     22     23     24     25     26     27     28     29     30
 .........................................................................
   1  ****** ****** ****** ****** ****** ****** ****** ****** ****** ******
      ****** ****** ****** ****** ****** ****** ****** ****** ****** ******
      ****** ****** ****** ****** ****** ****** ****** ****** ****** ******
   2  ****** ****** ****** ****** ****** ****** ****** ****** ****** ******
      ****** ****** ****** ****** ****** ****** ****** ****** ****** ******
      ****** ****** ****** ****** ****** ****** ****** ****** ****** ******
   3  ****** ****** ****** ****** ****** ****** ****** ****** ****** ******
      ****** ****** ****** ****** ****** ****** ****** ****** ****** ******
      ****** ****** ****** ****** ****** ****** ****** ****** ****** ******
   4  ****** ****** ****** ****** ****** ****** ****** ****** ****** ******
      ****** ****** ****** ****** ****** ****** ****** ****** ****** ******
      ****** ****** ****** ****** ****** ****** ****** ****** ****** ******
   5  ****** ****** ****** ****** ****** ****** ****** ****** ****** ******
      ****** ****** ****** ****** ****** ****** ****** ****** ****** ******
      ****** ****** ****** ****** ****** ****** ****** ****** ****** ******
   6  ****** ****** ****** ****** ****** ****** ****** ****** ****** ******
      ****** ****** ****** ****** ****** ****** ****** ****** ****** ******
      ****** ****** ****** ****** ****** ****** ****** ****** ****** ******
   7  ****** ****** ****** ****** ****** ****** ****** ****** ****** ******
      ****** ****** ****** ****** ****** ****** ****** ****** ****** ******
      ****** ****** ****** ****** ****** ****** ****** ****** ****** ******
   8  ****** ****** ****** ****** ****** ****** ****** ****** ****** ******
      ****** ****** ****** ****** ****** ****** ****** ****** ****** ******
      ****** ****** ****** ****** ****** ****** ****** ****** ****** ******
   9  ****** ****** ****** ****** ****** ****** ****** ****** ****** ******
      ****** ****** ****** ****** ****** ****** ****** ****** ****** ******
      ****** ****** ****** ****** ****** ****** ****** ****** ****** ******
  10  ****** ****** ****** ****** ****** ****** ****** ****** ****** ******
      ****** ****** ****** ****** ****** ****** ****** ****** ****** ******
      ****** ****** ****** ****** ****** ****** ****** ****** ****** ******
  11  ****** ****** ****** ****** ****** ****** ****** ****** ****** ******
      ****** ****** ****** ****** ****** ****** ****** ****** ****** ******
      ****** ****** ****** ****** ****** ****** ****** ****** ****** ******
  12  ****** ****** ****** ****** ****** ****** ****** ****** ****** ******
      ****** ****** ****** ****** ****** ****** ****** ****** ****** ******
      ****** ****** ****** ****** ****** ****** ****** ****** ****** ******
  13  ****** ****** ****** ****** ****** ****** ****** ****** ****** ******
      ****** ****** ****** ****** ****** ****** ****** ****** ****** ******
      ****** ****** ****** ****** ****** ****** ****** ****** ****** ******
  14  ****** ****** ****** ****** ****** ****** ****** ****** ****** ******
      ****** ****** ****** ****** ****** ****** ****** ****** ****** ******
      ****** ****** ****** ****** ****** ****** ****** ****** ****** ******
  15  ****** ****** ****** ****** ****** ****** ****** ****** ****** ******
      ****** ****** ****** ****** ****** ****** ****** ****** ****** ******
      ****** ****** ****** ****** ****** ****** ****** ****** ****** ******
  16  ****** ****** ****** ****** ****** ****** ****** ****** ****** ******
      ****** ****** ****** ****** ****** ****** ****** ****** ****** ******
      ****** ****** ****** ****** ****** ****** ****** ****** ****** ******
  17  ****** ****** ****** ****** ****** ****** ****** ****** ****** ******
      ****** ****** ****** ****** ****** ****** ****** ****** ****** ******
      ****** ****** ****** ****** ****** ****** ****** ****** ****** ******
  18  ****** ****** ****** ****** ****** ****** ****** ****** ****** ******
      ****** ****** ****** ****** ****** ****** ****** ****** ****** ******
      ****** ****** ****** ****** ****** ****** ****** ****** ****** ******
  19  ****** ****** ****** ****** ****** ****** ****** ****** ****** ******
      ****** ****** ****** ****** ****** ****** ****** ****** ****** ******
      ****** ****** ****** ****** ****** ****** ****** ****** ****** ******
  20  ****** ****** ****** ****** ****** ****** ****** ****** ****** ******
      ****** ****** ****** ****** ****** ****** ****** ****** ****** ******
      ****** ****** ****** ****** ****** ****** ****** ****** ****** ******
  21  ****** ****** ****** ****** ****** ****** ****** ****** ****** ******
      ****** ****** ****** ****** ****** ****** ****** ****** ****** ******
      ****** ****** ****** ****** ****** ****** ****** ****** ****** ******
  22  ****** ****** ****** ****** ****** ****** ****** ****** ****** ******
      ****** ****** ****** ****** ****** ****** ****** ****** ****** ******
      ****** ****** ****** ****** ****** ****** ****** ****** ****** ******
  23  ****** ****** ****** ****** ****** ****** ****** ****** ****** ******
      ****** ****** ****** ****** ****** ****** ****** ****** ****** ******
      ****** ****** ****** ****** ****** ****** ****** ****** ****** ******
  24  ****** ****** ****** ****** ****** ****** ****** ****** ****** ******
      ****** ****** ****** ****** ****** ****** ****** ****** ****** ******
      ****** ****** ****** ****** ****** ****** ****** ****** ****** ******
  25  ****** ****** ****** ****** ****** ****** ****** ****** ****** ******
      ****** ****** ****** ****** ****** ****** ****** ****** ****** ******
      ****** ****** ****** ****** ****** ****** ****** ****** ****** ******

 HEAD WILL BE SAVED ON UNIT   51 AT END OF TIME STEP    1, STRESS PERIOD   11
1
  VOLUMETRIC BUDGET FOR ENTIRE MODEL AT END OF TIME STEP    1, STRESS PERIOD  11
  ------------------------------------------------------------------------------

     CUMULATIVE VOLUMES      L**3       RATES FOR THIS TIME STEP      L**3/T
     ------------------                 ------------------------

           IN:                                      IN:
           ---                                      ---
             STORAGE =    35542718.0202               STORAGE =       17931.8778
       CONSTANT HEAD =    28369564.4263         CONSTANT HEAD =       34526.4063
               WELLS =           0.0000                 WELLS =           0.0000
            RECHARGE =    23901600.0000              RECHARGE =           0.0000
      STREAM LEAKAGE =    15585959.4608        STREAM LEAKAGE =       20209.9067

            TOTAL IN =   103399841.9072              TOTAL IN =       72668.1909

          OUT:                                     OUT:
          ----                                     ----
             STORAGE =     2370936.2876               STORAGE =           0.0000
       CONSTANT HEAD =           0.0000         CONSTANT HEAD =           0.0000
               WELLS =    40986408.5440                 WELLS =       40823.1161
            RECHARGE =           0.0000              RECHARGE =           0.0000
      STREAM LEAKAGE =    60042498.9744        STREAM LEAKAGE =       31845.0795

           TOTAL OUT =   103399843.8060             TOTAL OUT =       72668.1956

            IN - OUT =          -1.8988              IN - OUT =      -4.7758E-03

 PERCENT DISCREPANCY =          -0.00     PERCENT DISCREPANCY =          -0.00






         TIME SUMMARY AT END OF TIME STEP    1 IN STRESS PERIOD   11
                    SECONDS     MINUTES      HOURS       DAYS        YEARS
                    -----------------------------------------------------------
   TIME STEP LENGTH 7.86240E+06 1.31040E+05  2184.0      91.000     0.24914    
 STRESS PERIOD TIME 7.86240E+06 1.31040E+05  2184.0      91.000     0.24914    
         TOTAL TIME 8.67456E+07 1.44576E+06  24096.      1004.0      2.7488    
1
1
                            STRESS PERIOD NO.   12, LENGTH =   91.00000    
                            -----------------------------------------------

                              NUMBER OF TIME STEPS =     1

                               MULTIPLIER FOR DELT =     1.500

                            INITIAL TIME STEP SIZE =   91.00000    

 WELL NO.  LAYER   ROW   COL   STRESS RATE         
 --------------------------------------------------
      1      1      5     20      -7739.    
      2      1      9     24     -0.1035E+05
      3      1     15     20     -0.1191E+05
      4      1     16     28     -0.1082E+05

      4 WELLS

                 RECHARGE =  1.000000E-03

 REUSING STREAM SEGMENT DATA FROM LAST STRESS PERIOD
 
 SOLVING FOR HEAD 


     7 CALLS TO PCG ROUTINE FOR TIME STEP   1 IN STRESS PERIOD   12
    24 TOTAL ITERATIONS

 OUTPUT CONTROL FOR STRESS PERIOD   12   TIME STEP    1
    SAVE BUDGET
    SAVE HEAD FOR ALL LAYERS
    PRINT HEAD FOR ALL LAYERS
 UBDSV2 SAVING "STREAMFLOW OUT  " ON UNIT  50 AT TIME STEP  1, STRESS PERIOD  12



 STREAM LISTING     PERIOD     12   STEP        1

 LAYER ROW COL. STREAM  RCH.  FLOW INTO     FLOW TO   FLOW OUT OF   OVRLND.     DIRECT     STREAM       STREAM     STREAM     STREAM   STREAMBED  STREAMBED
                SEG.NO.  NO.  STRM. RCH.    AQUIFER    STRM. RCH.    RUNOFF     PRECIP       ET          HEAD       DEPTH      WIDTH   CONDCTNC.   GRADIENT

   1   13    1     1     1    1.0000E+05 -1.6396E+03   1.0164E+05  0.000E+00  0.000E+00  0.000E+00  4.84067E+01  1.454E-01  2.000E+01  2.000E+04 -8.198E-02
   1   13    2     1     2    1.0164E+05 -2.5739E+03   1.0421E+05  0.000E+00  0.000E+00  0.000E+00  4.79313E+01  1.472E-01  2.000E+01  2.000E+04 -1.287E-01
   1   14    3     1     3    1.0421E+05 -4.3607E+02   1.0465E+05  0.000E+00  0.000E+00  0.000E+00  4.74553E+01  1.485E-01  2.000E+01  2.000E+04 -2.180E-02
   1   15    4     1     4    1.0465E+05 -4.1330E+02   1.0506E+05  0.000E+00  0.000E+00  0.000E+00  4.69784E+01  1.488E-01  2.000E+01  2.000E+04 -2.067E-02
   1   16    5     1     5    1.0506E+05 -1.5905E+03   1.0665E+05  0.000E+00  0.000E+00  0.000E+00  4.65020E+01  1.497E-01  2.000E+01  2.000E+04 -7.952E-02
   1   16    6     1     6    1.0665E+05 -1.0028E+03   1.0766E+05  0.000E+00  0.000E+00  0.000E+00  4.60258E+01  1.508E-01  2.000E+01  2.000E+04 -5.014E-02
   1   16    7     1     7    1.0766E+05 -9.8160E+02   1.0864E+05  0.000E+00  0.000E+00  0.000E+00  4.55493E+01  1.516E-01  2.000E+01  2.000E+04 -4.908E-02
   1   16    8     1     8    1.0864E+05 -9.7431E+02   1.0961E+05  0.000E+00  0.000E+00  0.000E+00  4.50729E+01  1.524E-01  2.000E+01  2.000E+04 -4.872E-02
   1   16    9     1     9    1.0961E+05 -9.6248E+02   1.1057E+05  0.000E+00  0.000E+00  0.000E+00  4.45964E+01  1.532E-01  2.000E+01  2.000E+04 -4.812E-02
   1   16   10     1    10    1.1057E+05 -9.4383E+02   1.1152E+05  0.000E+00  0.000E+00  0.000E+00  4.41199E+01  1.540E-01  2.000E+01  2.000E+04 -4.719E-02
   1   16   11     1    11    1.1152E+05 -9.2963E+02   1.1245E+05  0.000E+00  0.000E+00  0.000E+00  4.36435E+01  1.548E-01  2.000E+01  2.000E+04 -4.648E-02
   1   16   12     1    12    1.1245E+05 -1.4581E+03   1.1391E+05  0.000E+00  0.000E+00  0.000E+00  4.31672E+01  1.558E-01  2.000E+01  2.000E+04 -7.291E-02
   1   15   13     1    13    1.1391E+05 -1.2430E+03   1.1515E+05  0.000E+00  0.000E+00  0.000E+00  4.26910E+01  1.569E-01  2.000E+01  2.000E+04 -6.215E-02
   1   14   14     1    14    1.1515E+05 -1.3473E+03   1.1650E+05  0.000E+00  0.000E+00  0.000E+00  4.22148E+01  1.580E-01  2.000E+01  2.000E+04 -6.737E-02
   1   13   15     1    15    1.1650E+05 -1.4850E+03   1.1798E+05  0.000E+00  0.000E+00  0.000E+00  4.17387E+01  1.591E-01  2.000E+01  2.000E+04 -7.425E-02
   1   12   16     1    16    1.1798E+05 -1.9360E+03   1.1992E+05  0.000E+00  0.000E+00  0.000E+00  4.12628E+01  1.605E-01  2.000E+01  2.000E+04 -9.680E-02
   1   12   17     1    17    1.1992E+05 -9.9058E+02   1.2091E+05  0.000E+00  0.000E+00  0.000E+00  4.07867E+01  1.617E-01  2.000E+01  2.000E+04 -4.953E-02
   1   12   18     1    18    1.2091E+05 -7.0250E+02   1.2161E+05  0.000E+00  0.000E+00  0.000E+00  4.03101E+01  1.624E-01  2.000E+01  2.000E+04 -3.512E-02
   1   12   19     1    19    1.2161E+05 -7.0487E+02   1.2232E+05  0.000E+00  0.000E+00  0.000E+00  3.98334E+01  1.630E-01  2.000E+01  2.000E+04 -3.524E-02
   1   13   20     1    20    1.2232E+05  9.8719E+02   1.2133E+05  0.000E+00  0.000E+00  0.000E+00  3.93560E+01  1.628E-01  2.000E+01  2.000E+04  4.936E-02
   1   14   21     1    21    1.2133E+05  2.2735E+03   1.1905E+05  0.000E+00  0.000E+00  0.000E+00  3.88774E+01  1.615E-01  2.000E+01  2.000E+04  1.137E-01
   1   14   22     1    22    1.1905E+05  5.4380E+03   1.1362E+05  0.000E+00  0.000E+00  0.000E+00  3.83970E+01  1.584E-01  2.000E+01  2.000E+04  2.719E-01
   1    9   30     2     1    5.0000E+04  5.3514E+01   4.9946E+04  0.000E+00  0.000E+00  0.000E+00  4.02408E+01  1.158E-01  2.000E+01  2.000E+04  2.676E-03
   1    9   29     2     2    4.9946E+04 -2.0829E+02   5.0155E+04  0.000E+00  0.000E+00  0.000E+00  3.99909E+01  1.159E-01  2.000E+01  2.000E+04 -1.041E-02
   1    9   28     2     3    5.0155E+04 -3.4256E+02   5.0497E+04  0.000E+00  0.000E+00  0.000E+00  3.97413E+01  1.163E-01  2.000E+01  2.000E+04 -1.713E-02
   1    9   27     2     4    5.0497E+04 -3.6373E+02   5.0861E+04  0.000E+00  0.000E+00  0.000E+00  3.94918E+01  1.168E-01  2.000E+01  2.000E+04 -1.819E-02
   1   10   26     2     5    5.0861E+04  1.0177E+03   4.9843E+04  0.000E+00  0.000E+00  0.000E+00  3.92414E+01  1.164E-01  2.000E+01  2.000E+04  5.089E-02
   1   11   25     2     6    4.9843E+04  1.0903E+03   4.8753E+04  0.000E+00  0.000E+00  0.000E+00  3.89899E+01  1.149E-01  2.000E+01  2.000E+04  5.452E-02
   1   12   24     2     7    4.8753E+04  2.4707E+02   4.8506E+04  0.000E+00  0.000E+00  0.000E+00  3.87389E+01  1.139E-01  2.000E+01  2.000E+04  1.235E-02
   1   13   23     2     8    4.8506E+04 -6.5674E+01   4.8572E+04  0.000E+00  0.000E+00  0.000E+00  3.84888E+01  1.138E-01  2.000E+01  2.000E+04 -3.284E-03
   1   14   22     2     9    4.8572E+04  2.2430E+03   4.6329E+04  0.000E+00  0.000E+00  0.000E+00  3.82373E+01  1.123E-01  2.000E+01  2.000E+04  1.121E-01
   1   14   22     3     1    1.5995E+05 -8.1610E+03   1.6811E+05  0.000E+00  0.000E+00  0.000E+00  3.77171E+01  1.615E-01  2.000E+01  2.000E+04 -4.081E-01
   1   15   23     3     2    1.6811E+05 -2.2592E+02   1.6833E+05  0.000E+00  0.000E+00  0.000E+00  3.68307E+01  1.640E-01  2.000E+01  2.000E+04 -1.130E-02
   1   15   24     3     3    1.6833E+05 -2.2305E+02   1.6856E+05  0.000E+00  0.000E+00  0.000E+00  3.59419E+01  1.641E-01  2.000E+01  2.000E+04 -1.115E-02
   1   15   25     3     4    1.6856E+05 -2.2434E+02   1.6878E+05  0.000E+00  0.000E+00  0.000E+00  3.50531E+01  1.643E-01  2.000E+01  2.000E+04 -1.122E-02
   1   15   26     3     5    1.6878E+05 -1.1023E+02   1.6889E+05  0.000E+00  0.000E+00  0.000E+00  3.41644E+01  1.644E-01  2.000E+01  2.000E+04 -5.512E-03
   1   16   27     3     6    1.6889E+05  7.7553E+02   1.6811E+05  0.000E+00  0.000E+00  0.000E+00  3.32753E+01  1.642E-01  2.000E+01  2.000E+04  3.878E-02
   1   17   28     3     7    1.6811E+05  4.4009E+03   1.6371E+05  0.000E+00  0.000E+00  0.000E+00  3.23849E+01  1.626E-01  2.000E+01  2.000E+04  2.200E-01
   1   18   29     3     8    1.6371E+05 -1.7515E+03   1.6546E+05  0.000E+00  0.000E+00  0.000E+00  3.14952E+01  1.619E-01  2.000E+01  2.000E+04 -8.758E-02
   1   18   30     3     9    1.6546E+05 -2.1362E+03   1.6760E+05  0.000E+00  0.000E+00  0.000E+00  3.06074E+01  1.630E-01  2.000E+01  2.000E+04 -1.068E-01



1
              HEAD IN LAYER   1 AT END OF TIME STEP   1 IN STRESS PERIOD   12
  ---------------------------------------------------------------------------

          1      2      3      4      5      6      7      8      9     10
         11     12     13     14     15     16     17     18     19     20
         21     22     23     24     25     26     27     28     29     30
 .........................................................................
   1  ****** ****** ****** ****** ****** ****** ****** ****** ****** ******
      ****** ****** ****** ****** ****** ****** ****** ****** ****** ******
      ****** ****** ****** ****** ****** ****** ****** ****** ****** ******
   2  ****** ****** ****** ****** ****** ****** ****** ****** ****** ******
      ****** ****** ****** ****** ****** ****** ****** ****** ****** ******
      ****** ****** ****** ****** ****** ****** ****** ****** ****** ******
   3  ****** ****** ****** ****** ****** ****** ****** ****** ****** ******
      ****** ****** ****** ****** ****** ****** ****** ****** ****** ******
      ****** ****** ****** ****** ****** ****** ****** ****** ****** ******
   4  ****** ****** ****** ****** ****** ****** ****** ****** ****** ******
      ****** ****** ****** ****** ****** ****** ****** ****** ****** ******
      ****** ****** ****** ****** ****** ****** ****** ****** ****** ******
   5  ****** ****** ****** ****** ****** ****** ****** ****** ****** ******
      ****** ****** ****** ****** ****** ****** ****** ****** ****** ******
      ****** ****** ****** ****** ****** ****** ****** ****** ****** ******
   6  ****** ****** ****** ****** ****** ****** ****** ****** ****** ******
      ****** ****** ****** ****** ****** ****** ****** ****** ****** ******
      ****** ****** ****** ****** ****** ****** ****** ****** ****** ******
   7  ****** ****** ****** ****** ****** ****** ****** ****** ****** ******
      ****** ****** ****** ****** ****** ****** ****** ****** ****** ******
      ****** ****** ****** ****** ****** ****** ****** ****** ****** ******
   8  ****** ****** ****** ****** ****** ****** ****** ****** ****** ******
      ****** ****** ****** ****** ****** ****** ****** ****** ****** ******
      ****** ****** ****** ****** ****** ****** ****** ****** ****** ******
   9  ****** ****** ****** ****** ****** ****** ****** ****** ****** ******
      ****** ****** ****** ****** ****** ****** ****** ****** ****** ******
      ****** ****** ****** ****** ****** ****** ****** ****** ****** ******
  10  ****** ****** ****** ****** ****** ****** ****** ****** ****** ******
      ****** ****** ****** ****** ****** ****** ****** ****** ****** ******
      ****** ****** ****** ****** ****** ****** ****** ****** ****** ******
  11  ****** ****** ****** ****** ****** ****** ****** ****** ****** ******
      ****** ****** ****** ****** ****** ****** ****** ****** ****** ******
      ****** ****** ****** ****** ****** ****** ****** ****** ****** ******
  12  ****** ****** ****** ****** ****** ****** ****** ****** ****** ******
      ****** ****** ****** ****** ****** ****** ****** ****** ****** ******
      ****** ****** ****** ****** ****** ****** ****** ****** ****** ******
  13  ****** ****** ****** ****** ****** ****** ****** ****** ****** ******
      ****** ****** ****** ****** ****** ****** ****** ****** ****** ******
      ****** ****** ****** ****** ****** ****** ****** ****** ****** ******
  14  ****** ****** ****** ****** ****** ****** ****** ****** ****** ******
      ****** ****** ****** ****** ****** ****** ****** ****** ****** ******
      ****** ****** ****** ****** ****** ****** ****** ****** ****** ******
  15  ****** ****** ****** ****** ****** ****** ****** ****** ****** ******
      ****** ****** ****** ****** ****** ****** ****** ****** ****** ******
      ****** ****** ****** ****** ****** ****** ****** ****** ****** ******
  16  ****** ****** ****** ****** ****** ****** ****** ****** ****** ******
      ****** ****** ****** ****** ****** ****** ****** ****** ****** ******
      ****** ****** ****** ****** ****** ****** ****** ****** ****** ******
  17  ****** ****** ****** ****** ****** ****** ****** ****** ****** ******
      ****** ****** ****** ****** ****** ****** ****** ****** ****** ******
      ****** ****** ****** ****** ****** ****** ****** ****** ****** ******
  18  ****** ****** ****** ****** ****** ****** ****** ****** ****** ******
      ****** ****** ****** ****** ****** ****** ****** ****** ****** ******
      ****** ****** ****** ****** ****** ****** ****** ****** ****** ******
  19  ****** ****** ****** ****** ****** ****** ****** ****** ****** ******
      ****** ****** ****** ****** ****** ****** ****** ****** ****** ******
      ****** ****** ****** ****** ****** ****** ****** ****** ****** ******
  20  ****** ****** ****** ****** ****** ****** ****** ****** ****** ******
      ****** ****** ****** ****** ****** ****** ****** ****** ****** ******
      ****** ****** ****** ****** ****** ****** ****** ****** ****** ******
  21  ****** ****** ****** ****** ****** ****** ****** ****** ****** ******
      ****** ****** ****** ****** ****** ****** ****** ****** ****** ******
      ****** ****** ****** ****** ****** ****** ****** ****** ****** ******
  22  ****** ****** ****** ****** ****** ****** ****** ****** ****** ******
      ****** ****** ****** ****** ****** ****** ****** ****** ****** ******
      ****** ****** ****** ****** ****** ****** ****** ****** ****** ******
  23  ****** ****** ****** ****** ****** ****** ****** ****** ****** ******
      ****** ****** ****** ****** ****** ****** ****** ****** ****** ******
      ****** ****** ****** ****** ****** ****** ****** ****** ****** ******
  24  ****** ****** ****** ****** ****** ****** ****** ****** ****** ******
      ****** ****** ****** ****** ****** ****** ****** ****** ****** ******
      ****** ****** ****** ****** ****** ****** ****** ****** ****** ******
  25  ****** ****** ****** ****** ****** ****** ****** ****** ****** ******
      ****** ****** ****** ****** ****** ****** ****** ****** ****** ******
      ****** ****** ****** ****** ****** ****** ****** ****** ****** ******

 HEAD WILL BE SAVED ON UNIT   51 AT END OF TIME STEP    1, STRESS PERIOD   12
1
  VOLUMETRIC BUDGET FOR ENTIRE MODEL AT END OF TIME STEP    1, STRESS PERIOD  12
  ------------------------------------------------------------------------------

     CUMULATIVE VOLUMES      L**3       RATES FOR THIS TIME STEP      L**3/T
     ------------------                 ------------------------

           IN:                                      IN:
           ---                                      ---
             STORAGE =    35543670.3725               STORAGE =          10.4654
       CONSTANT HEAD =    31448064.0985         CONSTANT HEAD =       33829.6667
               WELLS =           0.0000                 WELLS =           0.0000
            RECHARGE =    26413200.0000              RECHARGE =       27600.0000
      STREAM LEAKAGE =    17271884.0287        STREAM LEAKAGE =       18526.6436

            TOTAL IN =   110676818.4997              TOTAL IN =       79966.7757

          OUT:                                     OUT:
          ----                                     ----
             STORAGE =     2645380.0729               STORAGE =        3015.8658
       CONSTANT HEAD =           0.0000         CONSTANT HEAD =           0.0000
               WELLS =    44701312.1073                 WELLS =       40823.1161
            RECHARGE =           0.0000              RECHARGE =           0.0000
      STREAM LEAKAGE =    63330128.1364        STREAM LEAKAGE =       36127.7930

           TOTAL OUT =   110676820.3167             TOTAL OUT =       79966.7748

            IN - OUT =          -1.8170              IN - OUT =       8.9881E-04

 PERCENT DISCREPANCY =          -0.00     PERCENT DISCREPANCY =           0.00






         TIME SUMMARY AT END OF TIME STEP    1 IN STRESS PERIOD   12
                    SECONDS     MINUTES      HOURS       DAYS        YEARS
                    -----------------------------------------------------------
   TIME STEP LENGTH 7.86240E+06 1.31040E+05  2184.0      91.000     0.24914    
 STRESS PERIOD TIME 7.86240E+06 1.31040E+05  2184.0      91.000     0.24914    
         TOTAL TIME 9.46080E+07 1.57680E+06  26280.      1095.0      2.9979    
1

 Run end date and time (yyyy/mm/dd hh:mm:ss): 2019/03/14  0:42:09
 Elapsed run time:  0.120 Seconds

