                                  MODFLOW-2005     
      U.S. GEOLOGICAL SURVEY MODULAR FINITE-DIFFERENCE GROUND-WATER FLOW MODEL
                            VERSION 1.11.00 8/8/2013

 LIST FILE: supply2.lst
                         UNIT   10

 OPENING ..\data\supply.dis
 FILE TYPE:DIS   UNIT   11   STATUS:OLD    
 FORMAT:FORMATTED              ACCESS:SEQUENTIAL          

 OPENING ..\data\supply.ba6
 FILE TYPE:BAS6   UNIT   12   STATUS:OLD    
 FORMAT:FORMATTED              ACCESS:SEQUENTIAL          

 OPENING ..\data\supply.bc6
 FILE TYPE:BCF6   UNIT   13   STATUS:OLD    
 FORMAT:FORMATTED              ACCESS:SEQUENTIAL          

 OPENING ..\data\supply.rch
 FILE TYPE:RCH   UNIT   15   STATUS:OLD    
 FORMAT:FORMATTED              ACCESS:SEQUENTIAL          

 OPENING ..\data\supply2.sfr
 FILE TYPE:SFR   UNIT   16   STATUS:OLD    
 FORMAT:FORMATTED              ACCESS:SEQUENTIAL          

 OPENING ..\data\supply.oc
 FILE TYPE:OC   UNIT   17   STATUS:OLD    
 FORMAT:FORMATTED              ACCESS:SEQUENTIAL          

 OPENING ..\data\supply.pcg
 FILE TYPE:PCG   UNIT   18   STATUS:OLD    
 FORMAT:FORMATTED              ACCESS:SEQUENTIAL          

 OPENING supply2.wel
 FILE TYPE:WEL   UNIT   19   STATUS:OLD    
 FORMAT:FORMATTED              ACCESS:SEQUENTIAL          

 OPENING supply2sf.cbc
 FILE TYPE:DATA(BINARY)   UNIT   50   STATUS:UNKNOWN
 FORMAT:BINARY                 ACCESS:SEQUENTIAL          

 OPENING supply2hd.bhd
 FILE TYPE:DATA(BINARY)   UNIT   51   STATUS:UNKNOWN
 FORMAT:BINARY                 ACCESS:SEQUENTIAL          

 BAS -- BASIC PACKAGE, VERSION 7, 5/2/2005 INPUT READ FROM UNIT   12
 
 MODFLOW was compiled using uniform precision
 Precision of REAL and DOUBLE PRECISION variables:          15

 DISCRETIZATION INPUT DATA READ FROM UNIT   11
    1 LAYERS        25 ROWS        30 COLUMNS
   12 STRESS PERIOD(S) IN SIMULATION
 MODEL TIME UNIT IS DAYS
 MODEL LENGTH UNIT IS UNDEFINED
  Confining bed flag for each layer:
   0

                     DELR =   200.000    

                     DELC =   200.000    

 TOP ELEVATION OF LAYER 1 =  100.0000    

   MODEL LAYER BOTTOM EL. =   0.00000     FOR LAYER   1


 STRESS PERIOD     LENGTH       TIME STEPS     MULTIPLIER FOR DELT    SS FLAG
 ----------------------------------------------------------------------------
        1         92.00000          1                    1.500         TR
        2         91.00000          1                    1.500         TR
        3         91.00000          1                    1.500         TR
        4         91.00000          1                    1.500         TR
        5         92.00000          1                    1.500         TR
        6         91.00000          1                    1.500         TR
        7         91.00000          1                    1.500         TR
        8         91.00000          1                    1.500         TR
        9         92.00000          1                    1.500         TR
       10         91.00000          1                    1.500         TR
       11         91.00000          1                    1.500         TR
       12         91.00000          1                    1.500         TR

 TRANSIENT SIMULATION



 
 #MODOFC transient water supply sample problem                                   
 #                                                                               
 THE FREE FORMAT OPTION HAS BEEN SELECTED



                     BOUNDARY ARRAY FOR LAYER   1
 READING ON UNIT   12 WITH FORMAT: (20I4)              

 AQUIFER HEAD WILL BE SET TO   0.0000     AT ALL NO-FLOW NODES (IBOUND=0).



                       INITIAL HEAD FOR LAYER   1
 READING ON UNIT   12 WITH FORMAT: (10F13.0)           

 OUTPUT CONTROL IS SPECIFIED ONLY AT TIME STEPS FOR WHICH OUTPUT IS DESIRED
 COMPACT CELL-BY-CELL BUDGET FILES WILL BE WRITTEN
 HEAD PRINT FORMAT CODE IS  18    DRAWDOWN PRINT FORMAT CODE IS   0
 HEADS WILL BE SAVED ON UNIT   51    DRAWDOWNS WILL BE SAVED ON UNIT    0

 BCF -- BLOCK-CENTERED FLOW PACKAGE, VERSION 7, 5/2/2005
         INPUT READ FROM UNIT 13
 TRANSIENT SIMULATION
 HEAD AT CELLS THAT CONVERT TO DRY=   0.0000    
 WETTING CAPABILITY IS NOT ACTIVE
      LAYER  LAYER-TYPE CODE     INTERBLOCK T
      --------------------------------------------
         1            0          0 -- HARMONIC    

 COLUMN TO ROW ANISOTROPY =  1.000000    

     PRIMARY STORAGE COEF =  5.000000E-02 FOR LAYER   1

     TRANSMIS. ALONG ROWS =   500.000     FOR LAYER   1

 WEL -- WELL PACKAGE, VERSION 7, 5/2/2005 INPUT READ FROM UNIT   19
 # Well package input file written by MMProc
 No named parameters
 MAXIMUM OF      4 ACTIVE WELLS AT ONE TIME


     0 Well parameters

 RCH -- RECHARGE PACKAGE, VERSION 7, 5/2/2005 INPUT READ FROM UNIT   15
 No named parameters
 OPTION 1 -- RECHARGE TO TOP LAYER


     0 Recharge parameters

 SFR7 -- STREAMFLOW ROUTING PACKAGE, VERSION 1.0.7, 2013-01-15
         INPUT READ FROM UNIT  16
 #  Supply2 test problem for GWM-VI
 #  The eighth entry in the first data line is ISTCB2 -
 #    Setting this to a negative number indicates that
 #    streamflows out of the reach will be saved to a
 #    binary file.  The absolute value of ISTCB2 is the
 #    unit to which unformatted flows will be written.
 #
 No named parameters
 Segment information will not be 
 read by reach
 No named parameters
 No specifed inflow files


 NUMBER OF STREAM REACHES IS   40

 NUMBER OF STREAM SEGMENTS IS    3

 NUMBER OF STREAM PARAMETERS IS    0

 NUMBER OF STREAM SEGMENTS DEFINED USING PARAMETERS IS              0

 MAXIMUM ERROR FOR STREAM LEAKAGE RATES IS  1.00E-04

 CONSTANT FOR MANNINGS EQUATION IS  1.2839E+05





   STREAM NETWORK DESCRIPTION: 

   LAYER    ROW    COL   SEGMENT   REACH     LENGTH
                          NUMBER   NUMBER    IN CELL        
   --------------------------------------------------
      1     13      1       1        1    2.0000E+02
      1     13      2       1        2    2.0000E+02
      1     14      3       1        3    2.0000E+02
      1     15      4       1        4    2.0000E+02
      1     16      5       1        5    2.0000E+02
      1     16      6       1        6    2.0000E+02
      1     16      7       1        7    2.0000E+02
      1     16      8       1        8    2.0000E+02
      1     16      9       1        9    2.0000E+02
      1     16     10       1       10    2.0000E+02
      1     16     11       1       11    2.0000E+02
      1     16     12       1       12    2.0000E+02
      1     15     13       1       13    2.0000E+02
      1     14     14       1       14    2.0000E+02
      1     13     15       1       15    2.0000E+02
      1     12     16       1       16    2.0000E+02
      1     12     17       1       17    2.0000E+02
      1     12     18       1       18    2.0000E+02
      1     12     19       1       19    2.0000E+02
      1     13     20       1       20    2.0000E+02
      1     14     21       1       21    2.0000E+02
      1     14     22       1       22    2.0000E+02
      1      9     30       2        1    2.0000E+02
      1      9     29       2        2    2.0000E+02
      1      9     28       2        3    2.0000E+02
      1      9     27       2        4    2.0000E+02
      1     10     26       2        5    2.0000E+02
      1     11     25       2        6    2.0000E+02
      1     12     24       2        7    2.0000E+02
      1     13     23       2        8    2.0000E+02
      1     14     22       2        9    2.0000E+02
      1     14     22       3        1    2.0000E+02
      1     15     23       3        2    2.0000E+02
      1     15     24       3        3    2.0000E+02
      1     15     25       3        4    2.0000E+02
      1     15     26       3        5    2.0000E+02
      1     16     27       3        6    2.0000E+02
      1     17     28       3        7    2.0000E+02
      1     18     29       3        8    2.0000E+02
      1     18     30       3        9    2.0000E+02




 PCG -- CONJUGATE-GRADIENT SOLUTION PACKAGE, VERSION 7, 5/2/2005
 MAXIMUM OF    500 CALLS OF SOLUTION ROUTINE
 MAXIMUM OF      5 INTERNAL ITERATIONS PER CALL TO SOLUTION ROUTINE
 MATRIX PRECONDITIONING TYPE :    1



                                    SOLUTION BY THE CONJUGATE-GRADIENT METHOD
                                   -------------------------------------------
                    MAXIMUM NUMBER OF CALLS TO PCG ROUTINE =      500
                        MAXIMUM ITERATIONS PER CALL TO PCG =        5
                               MATRIX PRECONDITIONING TYPE =        1
        RELAXATION FACTOR (ONLY USED WITH PRECOND. TYPE 1) =    0.10000E+01
 PARAMETER OF POLYNOMIAL PRECOND. = 2 (2) OR IS CALCULATED :        0
                         HEAD CHANGE CRITERION FOR CLOSURE =    0.10000E-05
                     RESIDUAL CHANGE CRITERION FOR CLOSURE =    0.10000E+01
            PCG HEAD AND RESIDUAL CHANGE PRINTOUT INTERVAL =        1
     PRINTING FROM SOLVER IS LIMITED(1) OR SUPPRESSED (>1) =        1
                            STEADY-STATE DAMPING PARAMETER =    0.10000E+01
                               TRANSIENT DAMPING PARAMETER =    0.10000E+01
1
                            STRESS PERIOD NO.    1, LENGTH =   92.00000    
                            -----------------------------------------------

                              NUMBER OF TIME STEPS =     1

                               MULTIPLIER FOR DELT =     1.500

                            INITIAL TIME STEP SIZE =   92.00000    

 WELL NO.  LAYER   ROW   COL   STRESS RATE         
 --------------------------------------------------
      1      1     17     21     -0.3064E+05
      2      1     16     17     -0.1161E+05
      3      1     13     18       0.000    
      4      1     14     25       0.000    

      4 WELLS

                 RECHARGE =  5.000000E-04



 CLASSIFICATION & COUNT OF STREAM SEGMENTS BASED ON SOURCE OF INFLOW:

                HEADWATER     DIVERSION     RECEIVES TRIBUTARY FLOW
                ---------     ---------     -----------------------
                     2              0               1



                    INPUT DATA FOR EACH STREAM SEGMENT
 ---------------------------------------------------------------------------------------------

 SEGMENT    SEG.     INFLOW   OVERLAND   STREAM    STREAM   ICALC  OUTFLOW  DIVERSION PRIORITY
    NO.    LENGTH     RATE     RUNOFF      ET       PPT.    METH.  TO SEG.  FROM SEG.    NO.

      1  4.400E+03 1.000E+05 0.000E+00 0.000E+00 0.000E+00    1        3        0        0
      2  1.800E+03 5.000E+04 0.000E+00 0.000E+00 0.000E+00    1        3        0        0
      3  1.800E+03 0.000E+00 0.000E+00 0.000E+00 0.000E+00    1        0        0        0


         STREAMBED PROPERTIES AND STREAM DIMENSIONS

 SEGMENT     BED HYD. COND.      BED THICKNESS     ELEV.-TOP OF BED     WIDTH OF STREAM     DEPTH OF STREAM    STREAM ROUGHNESS
    No.     UPPER     LOWER     UPPER     LOWER     UPPER     LOWER     UPPER     LOWER     UPPER     LOWER   CHANNEL      BANK

     1  5.000E+00 5.000E+00 1.000E+00 1.000E+00 4.850E+01 3.800E+01 2.000E+01 2.000E+01                     5.000E-02
     2  5.000E+00 5.000E+00 1.000E+00 1.000E+00 4.025E+01 3.800E+01 2.000E+01 2.000E+01                     5.000E-02
     3  5.000E+00 5.000E+00 1.000E+00 1.000E+00 3.800E+01 3.000E+01 2.000E+01 2.000E+01                     5.000E-02



 
 SOLVING FOR HEAD 


     8 CALLS TO PCG ROUTINE FOR TIME STEP   1 IN STRESS PERIOD    1
    34 TOTAL ITERATIONS

 OUTPUT CONTROL FOR STRESS PERIOD    1   TIME STEP    1
    SAVE BUDGET
    SAVE HEAD FOR ALL LAYERS
    PRINT HEAD FOR ALL LAYERS
 UBDSV2 SAVING "STREAMFLOW OUT  " ON UNIT  50 AT TIME STEP  1, STRESS PERIOD   1



 STREAM LISTING     PERIOD      1   STEP        1

 LAYER ROW COL. STREAM  RCH.  FLOW INTO     FLOW TO   FLOW OUT OF   OVRLND.     DIRECT     STREAM       STREAM     STREAM     STREAM   STREAMBED  STREAMBED
                SEG.NO.  NO.  STRM. RCH.    AQUIFER    STRM. RCH.    RUNOFF     PRECIP       ET          HEAD       DEPTH      WIDTH   CONDCTNC.   GRADIENT

   1   13    1     1     1    1.0000E+05 -5.7565E+03   1.0576E+05  0.000E+00  0.000E+00  0.000E+00  4.84085E+01  1.471E-01  2.000E+01  2.000E+04 -2.878E-01
   1   13    2     1     2    1.0576E+05 -8.6047E+03   1.1436E+05  0.000E+00  0.000E+00  0.000E+00  4.79373E+01  1.532E-01  2.000E+01  2.000E+04 -4.302E-01
   1   14    3     1     3    1.1436E+05 -7.8815E+03   1.2224E+05  0.000E+00  0.000E+00  0.000E+00  4.74668E+01  1.600E-01  2.000E+01  2.000E+04 -3.941E-01
   1   15    4     1     4    1.2224E+05 -7.7098E+03   1.2995E+05  0.000E+00  0.000E+00  0.000E+00  4.69958E+01  1.662E-01  2.000E+01  2.000E+04 -3.855E-01
   1   16    5     1     5    1.2995E+05 -7.4927E+03   1.3745E+05  0.000E+00  0.000E+00  0.000E+00  4.65245E+01  1.722E-01  2.000E+01  2.000E+04 -3.746E-01
   1   16    6     1     6    1.3745E+05 -5.9957E+03   1.4344E+05  0.000E+00  0.000E+00  0.000E+00  4.60523E+01  1.773E-01  2.000E+01  2.000E+04 -2.998E-01
   1   16    7     1     7    1.4344E+05 -6.1268E+03   1.4957E+05  0.000E+00  0.000E+00  0.000E+00  4.55796E+01  1.819E-01  2.000E+01  2.000E+04 -3.063E-01
   1   16    8     1     8    1.4957E+05 -6.1995E+03   1.5577E+05  0.000E+00  0.000E+00  0.000E+00  4.51069E+01  1.865E-01  2.000E+01  2.000E+04 -3.100E-01
   1   16    9     1     9    1.5577E+05 -6.1934E+03   1.6196E+05  0.000E+00  0.000E+00  0.000E+00  4.46341E+01  1.910E-01  2.000E+01  2.000E+04 -3.097E-01
   1   16   10     1    10    1.6196E+05 -6.1054E+03   1.6807E+05  0.000E+00  0.000E+00  0.000E+00  4.41613E+01  1.954E-01  2.000E+01  2.000E+04 -3.053E-01
   1   16   11     1    11    1.6807E+05 -5.9428E+03   1.7401E+05  0.000E+00  0.000E+00  0.000E+00  4.36882E+01  1.996E-01  2.000E+01  2.000E+04 -2.971E-01
   1   16   12     1    12    1.7401E+05 -7.2157E+03   1.8122E+05  0.000E+00  0.000E+00  0.000E+00  4.32155E+01  2.042E-01  2.000E+01  2.000E+04 -3.608E-01
   1   15   13     1    13    1.8122E+05 -7.2095E+03   1.8843E+05  0.000E+00  0.000E+00  0.000E+00  4.27432E+01  2.091E-01  2.000E+01  2.000E+04 -3.605E-01
   1   14   14     1    14    1.8843E+05 -7.1751E+03   1.9561E+05  0.000E+00  0.000E+00  0.000E+00  4.22708E+01  2.140E-01  2.000E+01  2.000E+04 -3.588E-01
   1   13   15     1    15    1.9561E+05 -7.4606E+03   2.0307E+05  0.000E+00  0.000E+00  0.000E+00  4.17984E+01  2.188E-01  2.000E+01  2.000E+04 -3.730E-01
   1   12   16     1    16    2.0307E+05 -8.8925E+03   2.1196E+05  0.000E+00  0.000E+00  0.000E+00  4.13264E+01  2.242E-01  2.000E+01  2.000E+04 -4.446E-01
   1   12   17     1    17    2.1196E+05 -5.8566E+03   2.1782E+05  0.000E+00  0.000E+00  0.000E+00  4.08539E+01  2.289E-01  2.000E+01  2.000E+04 -2.928E-01
   1   12   18     1    18    2.1782E+05 -5.6577E+03   2.2348E+05  0.000E+00  0.000E+00  0.000E+00  4.03803E+01  2.326E-01  2.000E+01  2.000E+04 -2.829E-01
   1   12   19     1    19    2.2348E+05 -7.5100E+03   2.3099E+05  0.000E+00  0.000E+00  0.000E+00  3.99072E+01  2.367E-01  2.000E+01  2.000E+04 -3.755E-01
   1   13   20     1    20    2.3099E+05 -4.9092E+03   2.3590E+05  0.000E+00  0.000E+00  0.000E+00  3.94337E+01  2.406E-01  2.000E+01  2.000E+04 -2.455E-01
   1   14   21     1    21    2.3590E+05 -1.6717E+03   2.3757E+05  0.000E+00  0.000E+00  0.000E+00  3.89585E+01  2.426E-01  2.000E+01  2.000E+04 -8.359E-02
   1   14   22     1    22    2.3757E+05  4.9516E+03   2.3262E+05  0.000E+00  0.000E+00  0.000E+00  3.84802E+01  2.416E-01  2.000E+01  2.000E+04  2.476E-01
   1    9   30     2     1    5.0000E+04 -5.5703E+03   5.5570E+04  0.000E+00  0.000E+00  0.000E+00  4.02447E+01  1.197E-01  2.000E+01  2.000E+04 -2.785E-01
   1    9   29     2     2    5.5570E+04 -5.8693E+03   6.1440E+04  0.000E+00  0.000E+00  0.000E+00  4.00023E+01  1.273E-01  2.000E+01  2.000E+04 -2.935E-01
   1    9   28     2     3    6.1440E+04 -6.1935E+03   6.7633E+04  0.000E+00  0.000E+00  0.000E+00  3.97600E+01  1.350E-01  2.000E+01  2.000E+04 -3.097E-01
   1    9   27     2     4    6.7633E+04 -9.5862E+03   7.7219E+04  0.000E+00  0.000E+00  0.000E+00  3.95197E+01  1.447E-01  2.000E+01  2.000E+04 -4.793E-01
   1   10   26     2     5    7.7219E+04 -7.7152E+03   8.4935E+04  0.000E+00  0.000E+00  0.000E+00  3.92798E+01  1.548E-01  2.000E+01  2.000E+04 -3.858E-01
   1   11   25     2     6    8.4935E+04 -6.5862E+03   9.1521E+04  0.000E+00  0.000E+00  0.000E+00  3.90379E+01  1.629E-01  2.000E+01  2.000E+04 -3.293E-01
   1   12   24     2     7    9.1521E+04 -5.3181E+03   9.6839E+04  0.000E+00  0.000E+00  0.000E+00  3.87944E+01  1.694E-01  2.000E+01  2.000E+04 -2.659E-01
   1   13   23     2     8    9.6839E+04 -3.7314E+03   1.0057E+05  0.000E+00  0.000E+00  0.000E+00  3.85493E+01  1.743E-01  2.000E+01  2.000E+04 -1.866E-01
   1   14   22     2     9    1.0057E+05  1.3573E+03   9.9213E+04  0.000E+00  0.000E+00  0.000E+00  3.83005E+01  1.755E-01  2.000E+01  2.000E+04  6.787E-02
   1   14   22     3     1    3.3183E+05 -8.5732E+03   3.4040E+05  0.000E+00  0.000E+00  0.000E+00  3.78040E+01  2.484E-01  2.000E+01  2.000E+04 -4.287E-01
   1   15   23     3     2    3.4040E+05 -2.0604E+03   3.4246E+05  0.000E+00  0.000E+00  0.000E+00  3.69174E+01  2.508E-01  2.000E+01  2.000E+04 -1.030E-01
   1   15   24     3     3    3.4246E+05 -3.0661E+03   3.4553E+05  0.000E+00  0.000E+00  0.000E+00  3.60297E+01  2.519E-01  2.000E+01  2.000E+04 -1.533E-01
   1   15   25     3     4    3.4553E+05 -3.6683E+03   3.4920E+05  0.000E+00  0.000E+00  0.000E+00  3.51423E+01  2.534E-01  2.000E+01  2.000E+04 -1.834E-01
   1   15   26     3     5    3.4920E+05 -5.3330E+03   3.5453E+05  0.000E+00  0.000E+00  0.000E+00  3.42553E+01  2.553E-01  2.000E+01  2.000E+04 -2.667E-01
   1   16   27     3     6    3.5453E+05 -6.7063E+03   3.6124E+05  0.000E+00  0.000E+00  0.000E+00  3.33691E+01  2.580E-01  2.000E+01  2.000E+04 -3.353E-01
   1   17   28     3     7    3.6124E+05 -7.6259E+03   3.6886E+05  0.000E+00  0.000E+00  0.000E+00  3.24833E+01  2.610E-01  2.000E+01  2.000E+04 -3.813E-01
   1   18   29     3     8    3.6886E+05 -8.7925E+03   3.7765E+05  0.000E+00  0.000E+00  0.000E+00  3.15979E+01  2.645E-01  2.000E+01  2.000E+04 -4.396E-01
   1   18   30     3     9    3.7765E+05 -7.4253E+03   3.8508E+05  0.000E+00  0.000E+00  0.000E+00  3.07124E+01  2.680E-01  2.000E+01  2.000E+04 -3.713E-01



1
              HEAD IN LAYER   1 AT END OF TIME STEP   1 IN STRESS PERIOD    1
  ---------------------------------------------------------------------------

          1      2      3      4      5      6      7      8      9     10
         11     12     13     14     15     16     17     18     19     20
         21     22     23     24     25     26     27     28     29     30
 .........................................................................
   1  ****** ****** ****** ****** ****** ****** ****** ****** ****** ******
      ****** ****** ****** ****** ****** ****** ****** ****** ****** ******
      ****** ****** ****** ****** ****** ****** ****** ****** ****** ******
   2  ****** ****** ****** ****** ****** ****** ****** ****** ****** ******
      ****** ****** ****** ****** ****** ****** ****** ****** ****** ******
      ****** ****** ****** ****** ****** ****** ****** ****** ****** ******
   3  ****** ****** ****** ****** ****** ****** ****** ****** ****** ******
      ****** ****** ****** ****** ****** ****** ****** ****** ****** ******
      ****** ****** ****** ****** ****** ****** ****** ****** ****** ******
   4  ****** ****** ****** ****** ****** ****** ****** ****** ****** ******
      ****** ****** ****** ****** ****** ****** ****** ****** ****** ******
      ****** ****** ****** ****** ****** ****** ****** ****** ****** ******
   5  ****** ****** ****** ****** ****** ****** ****** ****** ****** ******
      ****** ****** ****** ****** ****** ****** ****** ****** ****** ******
      ****** ****** ****** ****** ****** ****** ****** ****** ****** ******
   6  ****** ****** ****** ****** ****** ****** ****** ****** ****** ******
      ****** ****** ****** ****** ****** ****** ****** ****** ****** ******
      ****** ****** ****** ****** ****** ****** ****** ****** ****** ******
   7  ****** ****** ****** ****** ****** ****** ****** ****** ****** ******
      ****** ****** ****** ****** ****** ****** ****** ****** ****** ******
      ****** ****** ****** ****** ****** ****** ****** ****** ****** ******
   8  ****** ****** ****** ****** ****** ****** ****** ****** ****** ******
      ****** ****** ****** ****** ****** ****** ****** ****** ****** ******
      ****** ****** ****** ****** ****** ****** ****** ****** ****** ******
   9  ****** ****** ****** ****** ****** ****** ****** ****** ****** ******
      ****** ****** ****** ****** ****** ****** ****** ****** ****** ******
      ****** ****** ****** ****** ****** ****** ****** ****** ****** ******
  10  ****** ****** ****** ****** ****** ****** ****** ****** ****** ******
      ****** ****** ****** ****** ****** ****** ****** ****** ****** ******
      ****** ****** ****** ****** ****** ****** ****** ****** ****** ******
  11  ****** ****** ****** ****** ****** ****** ****** ****** ****** ******
      ****** ****** ****** ****** ****** ****** ****** ****** ****** ******
      ****** ****** ****** ****** ****** ****** ****** ****** ****** ******
  12  ****** ****** ****** ****** ****** ****** ****** ****** ****** ******
      ****** ****** ****** ****** ****** ****** ****** ****** ****** ******
      ****** ****** ****** ****** ****** ****** ****** ****** ****** ******
  13  ****** ****** ****** ****** ****** ****** ****** ****** ****** ******
      ****** ****** ****** ****** ****** ****** ****** ****** ****** ******
      ****** ****** ****** ****** ****** ****** ****** ****** ****** ******
  14  ****** ****** ****** ****** ****** ****** ****** ****** ****** ******
      ****** ****** ****** ****** ****** ****** ****** ****** ****** ******
      ****** ****** ****** ****** ****** ****** ****** ****** ****** ******
  15  ****** ****** ****** ****** ****** ****** ****** ****** ****** ******
      ****** ****** ****** ****** ****** ****** ****** ****** ****** ******
      ****** ****** ****** ****** ****** ****** ****** ****** ****** ******
  16  ****** ****** ****** ****** ****** ****** ****** ****** ****** ******
      ****** ****** ****** ****** ****** ****** ****** ****** ****** ******
      ****** ****** ****** ****** ****** ****** ****** ****** ****** ******
  17  ****** ****** ****** ****** ****** ****** ****** ****** ****** ******
      ****** ****** ****** ****** ****** ****** ****** ****** ****** ******
      ****** ****** ****** ****** ****** ****** ****** ****** ****** ******
  18  ****** ****** ****** ****** ****** ****** ****** ****** ****** ******
      ****** ****** ****** ****** ****** ****** ****** ****** ****** ******
      ****** ****** ****** ****** ****** ****** ****** ****** ****** ******
  19  ****** ****** ****** ****** ****** ****** ****** ****** ****** ******
      ****** ****** ****** ****** ****** ****** ****** ****** ****** ******
      ****** ****** ****** ****** ****** ****** ****** ****** ****** ******
  20  ****** ****** ****** ****** ****** ****** ****** ****** ****** ******
      ****** ****** ****** ****** ****** ****** ****** ****** ****** ******
      ****** ****** ****** ****** ****** ****** ****** ****** ****** ******
  21  ****** ****** ****** ****** ****** ****** ****** ****** ****** ******
      ****** ****** ****** ****** ****** ****** ****** ****** ****** ******
      ****** ****** ****** ****** ****** ****** ****** ****** ****** ******
  22  ****** ****** ****** ****** ****** ****** ****** ****** ****** ******
      ****** ****** ****** ****** ****** ****** ****** ****** ****** ******
      ****** ****** ****** ****** ****** ****** ****** ****** ****** ******
  23  ****** ****** ****** ****** ****** ****** ****** ****** ****** ******
      ****** ****** ****** ****** ****** ****** ****** ****** ****** ******
      ****** ****** ****** ****** ****** ****** ****** ****** ****** ******
  24  ****** ****** ****** ****** ****** ****** ****** ****** ****** ******
      ****** ****** ****** ****** ****** ****** ****** ****** ****** ******
      ****** ****** ****** ****** ****** ****** ****** ****** ****** ******
  25  ****** ****** ****** ****** ****** ****** ****** ****** ****** ******
      ****** ****** ****** ****** ****** ****** ****** ****** ****** ******
      ****** ****** ****** ****** ****** ****** ****** ****** ****** ******

 HEAD WILL BE SAVED ON UNIT   51 AT END OF TIME STEP    1, STRESS PERIOD    1
1
  VOLUMETRIC BUDGET FOR ENTIRE MODEL AT END OF TIME STEP    1, STRESS PERIOD   1
  ------------------------------------------------------------------------------

     CUMULATIVE VOLUMES      L**3       RATES FOR THIS TIME STEP      L**3/T
     ------------------                 ------------------------

           IN:                                      IN:
           ---                                      ---
             STORAGE =    16519811.1055               STORAGE =      179563.1642
       CONSTANT HEAD =     7724643.1790         CONSTANT HEAD =       83963.5128
               WELLS =           0.0000                 WELLS =           0.0000
            RECHARGE =     1269600.0000              RECHARGE =       13800.0000
      STREAM LEAKAGE =      580424.2445        STREAM LEAKAGE =        6308.9592

            TOTAL IN =    26094478.5290              TOTAL IN =      283635.6362

          OUT:                                     OUT:
          ----                                     ----
             STORAGE =           0.0000               STORAGE =           0.0000
       CONSTANT HEAD =           0.0000         CONSTANT HEAD =           0.0000
               WELLS =     3886715.5582                 WELLS =       42246.9082
            RECHARGE =           0.0000              RECHARGE =           0.0000
      STREAM LEAKAGE =    22207763.1102        STREAM LEAKAGE =      241388.7295

           TOTAL OUT =    26094478.6683             TOTAL OUT =      283635.6377

            IN - OUT =          -0.1393              IN - OUT =      -1.5136E-03

 PERCENT DISCREPANCY =          -0.00     PERCENT DISCREPANCY =          -0.00






         TIME SUMMARY AT END OF TIME STEP    1 IN STRESS PERIOD    1
                    SECONDS     MINUTES      HOURS       DAYS        YEARS
                    -----------------------------------------------------------
   TIME STEP LENGTH 7.94880E+06 1.32480E+05  2208.0      92.000     0.25188    
 STRESS PERIOD TIME 7.94880E+06 1.32480E+05  2208.0      92.000     0.25188    
         TOTAL TIME 7.94880E+06 1.32480E+05  2208.0      92.000     0.25188    
1
1
                            STRESS PERIOD NO.    2, LENGTH =   91.00000    
                            -----------------------------------------------

                              NUMBER OF TIME STEPS =     1

                               MULTIPLIER FOR DELT =     1.500

                            INITIAL TIME STEP SIZE =   91.00000    

 WELL NO.  LAYER   ROW   COL   STRESS RATE         
 --------------------------------------------------
      1      1     17     21     -0.3064E+05
      2      1     16     17     -0.1161E+05
      3      1     13     18       0.000    
      4      1     14     25       0.000    

      4 WELLS

                 RECHARGE =  2.000000E-03

 REUSING STREAM SEGMENT DATA FROM LAST STRESS PERIOD
 
 SOLVING FOR HEAD 


     7 CALLS TO PCG ROUTINE FOR TIME STEP   1 IN STRESS PERIOD    2
    27 TOTAL ITERATIONS

 OUTPUT CONTROL FOR STRESS PERIOD    2   TIME STEP    1
    SAVE BUDGET
    SAVE HEAD FOR ALL LAYERS
    PRINT HEAD FOR ALL LAYERS
 UBDSV2 SAVING "STREAMFLOW OUT  " ON UNIT  50 AT TIME STEP  1, STRESS PERIOD   2



 STREAM LISTING     PERIOD      2   STEP        1

 LAYER ROW COL. STREAM  RCH.  FLOW INTO     FLOW TO   FLOW OUT OF   OVRLND.     DIRECT     STREAM       STREAM     STREAM     STREAM   STREAMBED  STREAMBED
                SEG.NO.  NO.  STRM. RCH.    AQUIFER    STRM. RCH.    RUNOFF     PRECIP       ET          HEAD       DEPTH      WIDTH   CONDCTNC.   GRADIENT

   1   13    1     1     1    1.0000E+05 -3.8483E+03   1.0385E+05  0.000E+00  0.000E+00  0.000E+00  4.84077E+01  1.463E-01  2.000E+01  2.000E+04 -1.924E-01
   1   13    2     1     2    1.0385E+05 -6.1997E+03   1.1005E+05  0.000E+00  0.000E+00  0.000E+00  4.79347E+01  1.506E-01  2.000E+01  2.000E+04 -3.100E-01
   1   14    3     1     3    1.1005E+05 -5.1640E+03   1.1521E+05  0.000E+00  0.000E+00  0.000E+00  4.74622E+01  1.554E-01  2.000E+01  2.000E+04 -2.582E-01
   1   15    4     1     4    1.1521E+05 -5.0081E+03   1.2022E+05  0.000E+00  0.000E+00  0.000E+00  4.69891E+01  1.595E-01  2.000E+01  2.000E+04 -2.504E-01
   1   16    5     1     5    1.2022E+05 -5.1733E+03   1.2539E+05  0.000E+00  0.000E+00  0.000E+00  4.65159E+01  1.636E-01  2.000E+01  2.000E+04 -2.587E-01
   1   16    6     1     6    1.2539E+05 -4.0983E+03   1.2949E+05  0.000E+00  0.000E+00  0.000E+00  4.60423E+01  1.673E-01  2.000E+01  2.000E+04 -2.049E-01
   1   16    7     1     7    1.2949E+05 -4.1860E+03   1.3368E+05  0.000E+00  0.000E+00  0.000E+00  4.55683E+01  1.705E-01  2.000E+01  2.000E+04 -2.093E-01
   1   16    8     1     8    1.3368E+05 -4.2254E+03   1.3790E+05  0.000E+00  0.000E+00  0.000E+00  4.50943E+01  1.738E-01  2.000E+01  2.000E+04 -2.113E-01
   1   16    9     1     9    1.3790E+05 -4.1966E+03   1.4210E+05  0.000E+00  0.000E+00  0.000E+00  4.46202E+01  1.770E-01  2.000E+01  2.000E+04 -2.098E-01
   1   16   10     1    10    1.4210E+05 -4.0933E+03   1.4619E+05  0.000E+00  0.000E+00  0.000E+00  4.41460E+01  1.801E-01  2.000E+01  2.000E+04 -2.047E-01
   1   16   11     1    11    1.4619E+05 -3.9128E+03   1.5011E+05  0.000E+00  0.000E+00  0.000E+00  4.36718E+01  1.831E-01  2.000E+01  2.000E+04 -1.956E-01
   1   16   12     1    12    1.5011E+05 -4.5127E+03   1.5462E+05  0.000E+00  0.000E+00  0.000E+00  4.31976E+01  1.862E-01  2.000E+01  2.000E+04 -2.256E-01
   1   15   13     1    13    1.5462E+05 -4.0118E+03   1.5863E+05  0.000E+00  0.000E+00  0.000E+00  4.27234E+01  1.893E-01  2.000E+01  2.000E+04 -2.006E-01
   1   14   14     1    14    1.5863E+05 -3.8255E+03   1.6246E+05  0.000E+00  0.000E+00  0.000E+00  4.22490E+01  1.922E-01  2.000E+01  2.000E+04 -1.913E-01
   1   13   15     1    15    1.6246E+05 -4.1905E+03   1.6665E+05  0.000E+00  0.000E+00  0.000E+00  4.17746E+01  1.950E-01  2.000E+01  2.000E+04 -2.095E-01
   1   12   16     1    16    1.6665E+05 -6.1548E+03   1.7280E+05  0.000E+00  0.000E+00  0.000E+00  4.13010E+01  1.987E-01  2.000E+01  2.000E+04 -3.077E-01
   1   12   17     1    17    1.7280E+05 -3.5604E+03   1.7636E+05  0.000E+00  0.000E+00  0.000E+00  4.08271E+01  2.021E-01  2.000E+01  2.000E+04 -1.780E-01
   1   12   18     1    18    1.7636E+05 -3.3556E+03   1.7972E+05  0.000E+00  0.000E+00  0.000E+00  4.03522E+01  2.045E-01  2.000E+01  2.000E+04 -1.678E-01
   1   12   19     1    19    1.7972E+05 -4.8210E+03   1.8454E+05  0.000E+00  0.000E+00  0.000E+00  3.98777E+01  2.073E-01  2.000E+01  2.000E+04 -2.411E-01
   1   13   20     1    20    1.8454E+05 -1.7875E+03   1.8633E+05  0.000E+00  0.000E+00  0.000E+00  3.94027E+01  2.095E-01  2.000E+01  2.000E+04 -8.938E-02
   1   14   21     1    21    1.8633E+05  1.4283E+03   1.8490E+05  0.000E+00  0.000E+00  0.000E+00  3.89256E+01  2.096E-01  2.000E+01  2.000E+04  7.141E-02
   1   14   22     1    22    1.8490E+05  5.5957E+03   1.7930E+05  0.000E+00  0.000E+00  0.000E+00  3.84459E+01  2.073E-01  2.000E+01  2.000E+04  2.798E-01
   1    9   30     2     1    5.0000E+04 -3.4563E+03   5.3456E+04  0.000E+00  0.000E+00  0.000E+00  4.02433E+01  1.183E-01  2.000E+01  2.000E+04 -1.728E-01
   1    9   29     2     2    5.3456E+04 -3.7804E+03   5.7237E+04  0.000E+00  0.000E+00  0.000E+00  3.99981E+01  1.231E-01  2.000E+01  2.000E+04 -1.890E-01
   1    9   28     2     3    5.7237E+04 -4.1562E+03   6.1393E+04  0.000E+00  0.000E+00  0.000E+00  3.97534E+01  1.284E-01  2.000E+01  2.000E+04 -2.078E-01
   1    9   27     2     4    6.1393E+04 -7.1621E+03   6.8555E+04  0.000E+00  0.000E+00  0.000E+00  3.95106E+01  1.356E-01  2.000E+01  2.000E+04 -3.581E-01
   1   10   26     2     5    6.8555E+04 -4.8298E+03   7.3385E+04  0.000E+00  0.000E+00  0.000E+00  3.92680E+01  1.430E-01  2.000E+01  2.000E+04 -2.415E-01
   1   11   25     2     6    7.3385E+04 -3.7292E+03   7.7114E+04  0.000E+00  0.000E+00  0.000E+00  3.90231E+01  1.481E-01  2.000E+01  2.000E+04 -1.865E-01
   1   12   24     2     7    7.7114E+04 -2.7264E+03   7.9840E+04  0.000E+00  0.000E+00  0.000E+00  3.87769E+01  1.519E-01  2.000E+01  2.000E+04 -1.363E-01
   1   13   23     2     8    7.9840E+04 -1.6337E+03   8.1474E+04  0.000E+00  0.000E+00  0.000E+00  3.85294E+01  1.544E-01  2.000E+01  2.000E+04 -8.169E-02
   1   14   22     2     9    8.1474E+04  2.2580E+03   7.9216E+04  0.000E+00  0.000E+00  0.000E+00  3.82790E+01  1.540E-01  2.000E+01  2.000E+04  1.129E-01
   1   14   22     3     1    2.5852E+05 -7.9277E+03   2.6645E+05  0.000E+00  0.000E+00  0.000E+00  3.77697E+01  2.142E-01  2.000E+01  2.000E+04 -3.964E-01
   1   15   23     3     2    2.6645E+05  8.1156E+02   2.6563E+05  0.000E+00  0.000E+00  0.000E+00  3.68826E+01  2.159E-01  2.000E+01  2.000E+04  4.058E-02
   1   15   24     3     3    2.6563E+05 -1.0405E+03   2.6667E+05  0.000E+00  0.000E+00  0.000E+00  3.59937E+01  2.160E-01  2.000E+01  2.000E+04 -5.203E-02
   1   15   25     3     4    2.6667E+05 -1.6263E+03   2.6830E+05  0.000E+00  0.000E+00  0.000E+00  3.51055E+01  2.166E-01  2.000E+01  2.000E+04 -8.132E-02
   1   15   26     3     5    2.6830E+05 -2.6077E+03   2.7091E+05  0.000E+00  0.000E+00  0.000E+00  3.42176E+01  2.176E-01  2.000E+01  2.000E+04 -1.304E-01
   1   16   27     3     6    2.7091E+05 -3.4529E+03   2.7436E+05  0.000E+00  0.000E+00  0.000E+00  3.33302E+01  2.191E-01  2.000E+01  2.000E+04 -1.726E-01
   1   17   28     3     7    2.7436E+05 -4.4479E+03   2.7881E+05  0.000E+00  0.000E+00  0.000E+00  3.24432E+01  2.210E-01  2.000E+01  2.000E+04 -2.224E-01
   1   18   29     3     8    2.7881E+05 -6.1784E+03   2.8499E+05  0.000E+00  0.000E+00  0.000E+00  3.15569E+01  2.235E-01  2.000E+01  2.000E+04 -3.089E-01
   1   18   30     3     9    2.8499E+05 -5.2846E+03   2.9027E+05  0.000E+00  0.000E+00  0.000E+00  3.06707E+01  2.263E-01  2.000E+01  2.000E+04 -2.642E-01



1
              HEAD IN LAYER   1 AT END OF TIME STEP   1 IN STRESS PERIOD    2
  ---------------------------------------------------------------------------

          1      2      3      4      5      6      7      8      9     10
         11     12     13     14     15     16     17     18     19     20
         21     22     23     24     25     26     27     28     29     30
 .........................................................................
   1  ****** ****** ****** ****** ****** ****** ****** ****** ****** ******
      ****** ****** ****** ****** ****** ****** ****** ****** ****** ******
      ****** ****** ****** ****** ****** ****** ****** ****** ****** ******
   2  ****** ****** ****** ****** ****** ****** ****** ****** ****** ******
      ****** ****** ****** ****** ****** ****** ****** ****** ****** ******
      ****** ****** ****** ****** ****** ****** ****** ****** ****** ******
   3  ****** ****** ****** ****** ****** ****** ****** ****** ****** ******
      ****** ****** ****** ****** ****** ****** ****** ****** ****** ******
      ****** ****** ****** ****** ****** ****** ****** ****** ****** ******
   4  ****** ****** ****** ****** ****** ****** ****** ****** ****** ******
      ****** ****** ****** ****** ****** ****** ****** ****** ****** ******
      ****** ****** ****** ****** ****** ****** ****** ****** ****** ******
   5  ****** ****** ****** ****** ****** ****** ****** ****** ****** ******
      ****** ****** ****** ****** ****** ****** ****** ****** ****** ******
      ****** ****** ****** ****** ****** ****** ****** ****** ****** ******
   6  ****** ****** ****** ****** ****** ****** ****** ****** ****** ******
      ****** ****** ****** ****** ****** ****** ****** ****** ****** ******
      ****** ****** ****** ****** ****** ****** ****** ****** ****** ******
   7  ****** ****** ****** ****** ****** ****** ****** ****** ****** ******
      ****** ****** ****** ****** ****** ****** ****** ****** ****** ******
      ****** ****** ****** ****** ****** ****** ****** ****** ****** ******
   8  ****** ****** ****** ****** ****** ****** ****** ****** ****** ******
      ****** ****** ****** ****** ****** ****** ****** ****** ****** ******
      ****** ****** ****** ****** ****** ****** ****** ****** ****** ******
   9  ****** ****** ****** ****** ****** ****** ****** ****** ****** ******
      ****** ****** ****** ****** ****** ****** ****** ****** ****** ******
      ****** ****** ****** ****** ****** ****** ****** ****** ****** ******
  10  ****** ****** ****** ****** ****** ****** ****** ****** ****** ******
      ****** ****** ****** ****** ****** ****** ****** ****** ****** ******
      ****** ****** ****** ****** ****** ****** ****** ****** ****** ******
  11  ****** ****** ****** ****** ****** ****** ****** ****** ****** ******
      ****** ****** ****** ****** ****** ****** ****** ****** ****** ******
      ****** ****** ****** ****** ****** ****** ****** ****** ****** ******
  12  ****** ****** ****** ****** ****** ****** ****** ****** ****** ******
      ****** ****** ****** ****** ****** ****** ****** ****** ****** ******
      ****** ****** ****** ****** ****** ****** ****** ****** ****** ******
  13  ****** ****** ****** ****** ****** ****** ****** ****** ****** ******
      ****** ****** ****** ****** ****** ****** ****** ****** ****** ******
      ****** ****** ****** ****** ****** ****** ****** ****** ****** ******
  14  ****** ****** ****** ****** ****** ****** ****** ****** ****** ******
      ****** ****** ****** ****** ****** ****** ****** ****** ****** ******
      ****** ****** ****** ****** ****** ****** ****** ****** ****** ******
  15  ****** ****** ****** ****** ****** ****** ****** ****** ****** ******
      ****** ****** ****** ****** ****** ****** ****** ****** ****** ******
      ****** ****** ****** ****** ****** ****** ****** ****** ****** ******
  16  ****** ****** ****** ****** ****** ****** ****** ****** ****** ******
      ****** ****** ****** ****** ****** ****** ****** ****** ****** ******
      ****** ****** ****** ****** ****** ****** ****** ****** ****** ******
  17  ****** ****** ****** ****** ****** ****** ****** ****** ****** ******
      ****** ****** ****** ****** ****** ****** ****** ****** ****** ******
      ****** ****** ****** ****** ****** ****** ****** ****** ****** ******
  18  ****** ****** ****** ****** ****** ****** ****** ****** ****** ******
      ****** ****** ****** ****** ****** ****** ****** ****** ****** ******
      ****** ****** ****** ****** ****** ****** ****** ****** ****** ******
  19  ****** ****** ****** ****** ****** ****** ****** ****** ****** ******
      ****** ****** ****** ****** ****** ****** ****** ****** ****** ******
      ****** ****** ****** ****** ****** ****** ****** ****** ****** ******
  20  ****** ****** ****** ****** ****** ****** ****** ****** ****** ******
      ****** ****** ****** ****** ****** ****** ****** ****** ****** ******
      ****** ****** ****** ****** ****** ****** ****** ****** ****** ******
  21  ****** ****** ****** ****** ****** ****** ****** ****** ****** ******
      ****** ****** ****** ****** ****** ****** ****** ****** ****** ******
      ****** ****** ****** ****** ****** ****** ****** ****** ****** ******
  22  ****** ****** ****** ****** ****** ****** ****** ****** ****** ******
      ****** ****** ****** ****** ****** ****** ****** ****** ****** ******
      ****** ****** ****** ****** ****** ****** ****** ****** ****** ******
  23  ****** ****** ****** ****** ****** ****** ****** ****** ****** ******
      ****** ****** ****** ****** ****** ****** ****** ****** ****** ******
      ****** ****** ****** ****** ****** ****** ****** ****** ****** ******
  24  ****** ****** ****** ****** ****** ****** ****** ****** ****** ******
      ****** ****** ****** ****** ****** ****** ****** ****** ****** ******
      ****** ****** ****** ****** ****** ****** ****** ****** ****** ******
  25  ****** ****** ****** ****** ****** ****** ****** ****** ****** ******
      ****** ****** ****** ****** ****** ****** ****** ****** ****** ******
      ****** ****** ****** ****** ****** ****** ****** ****** ****** ******

 HEAD WILL BE SAVED ON UNIT   51 AT END OF TIME STEP    1, STRESS PERIOD    2
1
  VOLUMETRIC BUDGET FOR ENTIRE MODEL AT END OF TIME STEP    1, STRESS PERIOD   2
  ------------------------------------------------------------------------------

     CUMULATIVE VOLUMES      L**3       RATES FOR THIS TIME STEP      L**3/T
     ------------------                 ------------------------

           IN:                                      IN:
           ---                                      ---
             STORAGE =    19318970.2685               STORAGE =       30759.9908
       CONSTANT HEAD =    16511538.8866         CONSTANT HEAD =       96559.2935
               WELLS =           0.0000                 WELLS =           0.0000
            RECHARGE =     6292800.0000              RECHARGE =       55200.0000
      STREAM LEAKAGE =     1498932.7247        STREAM LEAKAGE =       10093.4998

            TOTAL IN =    43622241.8798              TOTAL IN =      192612.7841

          OUT:                                     OUT:
          ----                                     ----
             STORAGE =           0.0000               STORAGE =           0.0000
       CONSTANT HEAD =           0.0000         CONSTANT HEAD =           0.0000
               WELLS =     7731184.2081                 WELLS =       42246.9082
            RECHARGE =           0.0000              RECHARGE =           0.0000
      STREAM LEAKAGE =    35891058.2577        STREAM LEAKAGE =      150365.8807

           TOTAL OUT =    43622242.4657             TOTAL OUT =      192612.7890

            IN - OUT =          -0.5859              IN - OUT =      -4.9082E-03

 PERCENT DISCREPANCY =          -0.00     PERCENT DISCREPANCY =          -0.00






         TIME SUMMARY AT END OF TIME STEP    1 IN STRESS PERIOD    2
                    SECONDS     MINUTES      HOURS       DAYS        YEARS
                    -----------------------------------------------------------
   TIME STEP LENGTH 7.86240E+06 1.31040E+05  2184.0      91.000     0.24914    
 STRESS PERIOD TIME 7.86240E+06 1.31040E+05  2184.0      91.000     0.24914    
         TOTAL TIME 1.58112E+07 2.63520E+05  4392.0      183.00     0.50103    
1
1
                            STRESS PERIOD NO.    3, LENGTH =   91.00000    
                            -----------------------------------------------

                              NUMBER OF TIME STEPS =     1

                               MULTIPLIER FOR DELT =     1.500

                            INITIAL TIME STEP SIZE =   91.00000    

 WELL NO.  LAYER   ROW   COL   STRESS RATE         
 --------------------------------------------------
      1      1     17     21     -0.3064E+05
      2      1     16     17     -0.1161E+05
      3      1     13     18       0.000    
      4      1     14     25       0.000    

      4 WELLS

                 RECHARGE =   0.00000    

 REUSING STREAM SEGMENT DATA FROM LAST STRESS PERIOD
 
 SOLVING FOR HEAD 


     7 CALLS TO PCG ROUTINE FOR TIME STEP   1 IN STRESS PERIOD    3
    27 TOTAL ITERATIONS

 OUTPUT CONTROL FOR STRESS PERIOD    3   TIME STEP    1
    SAVE BUDGET
    SAVE HEAD FOR ALL LAYERS
    PRINT HEAD FOR ALL LAYERS
 UBDSV2 SAVING "STREAMFLOW OUT  " ON UNIT  50 AT TIME STEP  1, STRESS PERIOD   3



 STREAM LISTING     PERIOD      3   STEP        1

 LAYER ROW COL. STREAM  RCH.  FLOW INTO     FLOW TO   FLOW OUT OF   OVRLND.     DIRECT     STREAM       STREAM     STREAM     STREAM   STREAMBED  STREAMBED
                SEG.NO.  NO.  STRM. RCH.    AQUIFER    STRM. RCH.    RUNOFF     PRECIP       ET          HEAD       DEPTH      WIDTH   CONDCTNC.   GRADIENT

   1   13    1     1     1    1.0000E+05 -2.9388E+03   1.0294E+05  0.000E+00  0.000E+00  0.000E+00  4.84073E+01  1.459E-01  2.000E+01  2.000E+04 -1.469E-01
   1   13    2     1     2    1.0294E+05 -4.9546E+03   1.0789E+05  0.000E+00  0.000E+00  0.000E+00  4.79334E+01  1.493E-01  2.000E+01  2.000E+04 -2.477E-01
   1   14    3     1     3    1.0789E+05 -3.9258E+03   1.1182E+05  0.000E+00  0.000E+00  0.000E+00  4.74599E+01  1.530E-01  2.000E+01  2.000E+04 -1.963E-01
   1   15    4     1     4    1.1182E+05 -3.7917E+03   1.1561E+05  0.000E+00  0.000E+00  0.000E+00  4.69858E+01  1.562E-01  2.000E+01  2.000E+04 -1.896E-01
   1   16    5     1     5    1.1561E+05 -4.0708E+03   1.1968E+05  0.000E+00  0.000E+00  0.000E+00  4.65117E+01  1.595E-01  2.000E+01  2.000E+04 -2.035E-01
   1   16    6     1     6    1.1968E+05 -3.2267E+03   1.2291E+05  0.000E+00  0.000E+00  0.000E+00  4.60374E+01  1.624E-01  2.000E+01  2.000E+04 -1.613E-01
   1   16    7     1     7    1.2291E+05 -3.2910E+03   1.2620E+05  0.000E+00  0.000E+00  0.000E+00  4.55627E+01  1.650E-01  2.000E+01  2.000E+04 -1.645E-01
   1   16    8     1     8    1.2620E+05 -3.3140E+03   1.2951E+05  0.000E+00  0.000E+00  0.000E+00  4.50881E+01  1.676E-01  2.000E+01  2.000E+04 -1.657E-01
   1   16    9     1     9    1.2951E+05 -3.2782E+03   1.3279E+05  0.000E+00  0.000E+00  0.000E+00  4.46134E+01  1.702E-01  2.000E+01  2.000E+04 -1.639E-01
   1   16   10     1    10    1.3279E+05 -3.1760E+03   1.3597E+05  0.000E+00  0.000E+00  0.000E+00  4.41386E+01  1.727E-01  2.000E+01  2.000E+04 -1.588E-01
   1   16   11     1    11    1.3597E+05 -2.9970E+03   1.3896E+05  0.000E+00  0.000E+00  0.000E+00  4.36637E+01  1.751E-01  2.000E+01  2.000E+04 -1.499E-01
   1   16   12     1    12    1.3896E+05 -3.2632E+03   1.4223E+05  0.000E+00  0.000E+00  0.000E+00  4.31888E+01  1.775E-01  2.000E+01  2.000E+04 -1.632E-01
   1   15   13     1    13    1.4223E+05 -2.6316E+03   1.4486E+05  0.000E+00  0.000E+00  0.000E+00  4.27138E+01  1.797E-01  2.000E+01  2.000E+04 -1.316E-01
   1   14   14     1    14    1.4486E+05 -2.4072E+03   1.4727E+05  0.000E+00  0.000E+00  0.000E+00  4.22384E+01  1.816E-01  2.000E+01  2.000E+04 -1.204E-01
   1   13   15     1    15    1.4727E+05 -2.8118E+03   1.5008E+05  0.000E+00  0.000E+00  0.000E+00  4.17631E+01  1.835E-01  2.000E+01  2.000E+04 -1.406E-01
   1   12   16     1    16    1.5008E+05 -4.8718E+03   1.5495E+05  0.000E+00  0.000E+00  0.000E+00  4.12886E+01  1.863E-01  2.000E+01  2.000E+04 -2.436E-01
   1   12   17     1    17    1.5495E+05 -2.6106E+03   1.5756E+05  0.000E+00  0.000E+00  0.000E+00  4.08141E+01  1.891E-01  2.000E+01  2.000E+04 -1.305E-01
   1   12   18     1    18    1.5756E+05 -2.4243E+03   1.5999E+05  0.000E+00  0.000E+00  0.000E+00  4.03386E+01  1.909E-01  2.000E+01  2.000E+04 -1.212E-01
   1   12   19     1    19    1.5999E+05 -3.7083E+03   1.6369E+05  0.000E+00  0.000E+00  0.000E+00  3.98636E+01  1.931E-01  2.000E+01  2.000E+04 -1.854E-01
   1   13   20     1    20    1.6369E+05 -6.5999E+02   1.6435E+05  0.000E+00  0.000E+00  0.000E+00  3.93878E+01  1.947E-01  2.000E+01  2.000E+04 -3.300E-02
   1   14   21     1    21    1.6435E+05  2.5537E+03   1.6180E+05  0.000E+00  0.000E+00  0.000E+00  3.89099E+01  1.940E-01  2.000E+01  2.000E+04  1.277E-01
   1   14   22     1    22    1.6180E+05  5.7714E+03   1.5603E+05  0.000E+00  0.000E+00  0.000E+00  3.84296E+01  1.910E-01  2.000E+01  2.000E+04  2.886E-01
   1    9   30     2     1    5.0000E+04 -2.6892E+03   5.2689E+04  0.000E+00  0.000E+00  0.000E+00  4.02427E+01  1.177E-01  2.000E+01  2.000E+04 -1.345E-01
   1    9   29     2     2    5.2689E+04 -3.0233E+03   5.5712E+04  0.000E+00  0.000E+00  0.000E+00  3.99966E+01  1.216E-01  2.000E+01  2.000E+04 -1.512E-01
   1    9   28     2     3    5.5712E+04 -3.4102E+03   5.9123E+04  0.000E+00  0.000E+00  0.000E+00  3.97509E+01  1.259E-01  2.000E+01  2.000E+04 -1.705E-01
   1    9   27     2     4    5.9123E+04 -6.1544E+03   6.5277E+04  0.000E+00  0.000E+00  0.000E+00  3.95071E+01  1.321E-01  2.000E+01  2.000E+04 -3.077E-01
   1   10   26     2     5    6.5277E+04 -3.7637E+03   6.9041E+04  0.000E+00  0.000E+00  0.000E+00  3.92633E+01  1.383E-01  2.000E+01  2.000E+04 -1.882E-01
   1   11   25     2     6    6.9041E+04 -2.7126E+03   7.1753E+04  0.000E+00  0.000E+00  0.000E+00  3.90173E+01  1.423E-01  2.000E+01  2.000E+04 -1.356E-01
   1   12   24     2     7    7.1753E+04 -1.8533E+03   7.3607E+04  0.000E+00  0.000E+00  0.000E+00  3.87700E+01  1.450E-01  2.000E+01  2.000E+04 -9.267E-02
   1   13   23     2     8    7.3607E+04 -9.8645E+02   7.4593E+04  0.000E+00  0.000E+00  0.000E+00  3.85217E+01  1.467E-01  2.000E+01  2.000E+04 -4.932E-02
   1   14   22     2     9    7.4593E+04  2.5938E+03   7.1999E+04  0.000E+00  0.000E+00  0.000E+00  3.82708E+01  1.458E-01  2.000E+01  2.000E+04  1.297E-01
   1   14   22     3     1    2.2803E+05 -7.7336E+03   2.3576E+05  0.000E+00  0.000E+00  0.000E+00  3.77544E+01  1.988E-01  2.000E+01  2.000E+04 -3.867E-01
   1   15   23     3     2    2.3576E+05  1.8593E+03   2.3390E+05  0.000E+00  0.000E+00  0.000E+00  3.68670E+01  2.003E-01  2.000E+01  2.000E+04  9.296E-02
   1   15   24     3     3    2.3390E+05 -3.6191E+02   2.3426E+05  0.000E+00  0.000E+00  0.000E+00  3.59777E+01  2.000E-01  2.000E+01  2.000E+04 -1.810E-02
   1   15   25     3     4    2.3426E+05 -9.7183E+02   2.3524E+05  0.000E+00  0.000E+00  0.000E+00  3.50892E+01  2.003E-01  2.000E+01  2.000E+04 -4.859E-02
   1   15   26     3     5    2.3524E+05 -1.7557E+03   2.3699E+05  0.000E+00  0.000E+00  0.000E+00  3.42010E+01  2.010E-01  2.000E+01  2.000E+04 -8.778E-02
   1   16   27     3     6    2.3699E+05 -2.3479E+03   2.3934E+05  0.000E+00  0.000E+00  0.000E+00  3.33131E+01  2.020E-01  2.000E+01  2.000E+04 -1.174E-01
   1   17   28     3     7    2.3934E+05 -3.3354E+03   2.4267E+05  0.000E+00  0.000E+00  0.000E+00  3.24257E+01  2.035E-01  2.000E+01  2.000E+04 -1.668E-01
   1   18   29     3     8    2.4267E+05 -5.1661E+03   2.4784E+05  0.000E+00  0.000E+00  0.000E+00  3.15390E+01  2.056E-01  2.000E+01  2.000E+04 -2.583E-01
   1   18   30     3     9    2.4784E+05 -4.5469E+03   2.5239E+05  0.000E+00  0.000E+00  0.000E+00  3.06525E+01  2.081E-01  2.000E+01  2.000E+04 -2.273E-01



1
              HEAD IN LAYER   1 AT END OF TIME STEP   1 IN STRESS PERIOD    3
  ---------------------------------------------------------------------------

          1      2      3      4      5      6      7      8      9     10
         11     12     13     14     15     16     17     18     19     20
         21     22     23     24     25     26     27     28     29     30
 .........................................................................
   1  ****** ****** ****** ****** ****** ****** ****** ****** ****** ******
      ****** ****** ****** ****** ****** ****** ****** ****** ****** ******
      ****** ****** ****** ****** ****** ****** ****** ****** ****** ******
   2  ****** ****** ****** ****** ****** ****** ****** ****** ****** ******
      ****** ****** ****** ****** ****** ****** ****** ****** ****** ******
      ****** ****** ****** ****** ****** ****** ****** ****** ****** ******
   3  ****** ****** ****** ****** ****** ****** ****** ****** ****** ******
      ****** ****** ****** ****** ****** ****** ****** ****** ****** ******
      ****** ****** ****** ****** ****** ****** ****** ****** ****** ******
   4  ****** ****** ****** ****** ****** ****** ****** ****** ****** ******
      ****** ****** ****** ****** ****** ****** ****** ****** ****** ******
      ****** ****** ****** ****** ****** ****** ****** ****** ****** ******
   5  ****** ****** ****** ****** ****** ****** ****** ****** ****** ******
      ****** ****** ****** ****** ****** ****** ****** ****** ****** ******
      ****** ****** ****** ****** ****** ****** ****** ****** ****** ******
   6  ****** ****** ****** ****** ****** ****** ****** ****** ****** ******
      ****** ****** ****** ****** ****** ****** ****** ****** ****** ******
      ****** ****** ****** ****** ****** ****** ****** ****** ****** ******
   7  ****** ****** ****** ****** ****** ****** ****** ****** ****** ******
      ****** ****** ****** ****** ****** ****** ****** ****** ****** ******
      ****** ****** ****** ****** ****** ****** ****** ****** ****** ******
   8  ****** ****** ****** ****** ****** ****** ****** ****** ****** ******
      ****** ****** ****** ****** ****** ****** ****** ****** ****** ******
      ****** ****** ****** ****** ****** ****** ****** ****** ****** ******
   9  ****** ****** ****** ****** ****** ****** ****** ****** ****** ******
      ****** ****** ****** ****** ****** ****** ****** ****** ****** ******
      ****** ****** ****** ****** ****** ****** ****** ****** ****** ******
  10  ****** ****** ****** ****** ****** ****** ****** ****** ****** ******
      ****** ****** ****** ****** ****** ****** ****** ****** ****** ******
      ****** ****** ****** ****** ****** ****** ****** ****** ****** ******
  11  ****** ****** ****** ****** ****** ****** ****** ****** ****** ******
      ****** ****** ****** ****** ****** ****** ****** ****** ****** ******
      ****** ****** ****** ****** ****** ****** ****** ****** ****** ******
  12  ****** ****** ****** ****** ****** ****** ****** ****** ****** ******
      ****** ****** ****** ****** ****** ****** ****** ****** ****** ******
      ****** ****** ****** ****** ****** ****** ****** ****** ****** ******
  13  ****** ****** ****** ****** ****** ****** ****** ****** ****** ******
      ****** ****** ****** ****** ****** ****** ****** ****** ****** ******
      ****** ****** ****** ****** ****** ****** ****** ****** ****** ******
  14  ****** ****** ****** ****** ****** ****** ****** ****** ****** ******
      ****** ****** ****** ****** ****** ****** ****** ****** ****** ******
      ****** ****** ****** ****** ****** ****** ****** ****** ****** ******
  15  ****** ****** ****** ****** ****** ****** ****** ****** ****** ******
      ****** ****** ****** ****** ****** ****** ****** ****** ****** ******
      ****** ****** ****** ****** ****** ****** ****** ****** ****** ******
  16  ****** ****** ****** ****** ****** ****** ****** ****** ****** ******
      ****** ****** ****** ****** ****** ****** ****** ****** ****** ******
      ****** ****** ****** ****** ****** ****** ****** ****** ****** ******
  17  ****** ****** ****** ****** ****** ****** ****** ****** ****** ******
      ****** ****** ****** ****** ****** ****** ****** ****** ****** ******
      ****** ****** ****** ****** ****** ****** ****** ****** ****** ******
  18  ****** ****** ****** ****** ****** ****** ****** ****** ****** ******
      ****** ****** ****** ****** ****** ****** ****** ****** ****** ******
      ****** ****** ****** ****** ****** ****** ****** ****** ****** ******
  19  ****** ****** ****** ****** ****** ****** ****** ****** ****** ******
      ****** ****** ****** ****** ****** ****** ****** ****** ****** ******
      ****** ****** ****** ****** ****** ****** ****** ****** ****** ******
  20  ****** ****** ****** ****** ****** ****** ****** ****** ****** ******
      ****** ****** ****** ****** ****** ****** ****** ****** ****** ******
      ****** ****** ****** ****** ****** ****** ****** ****** ****** ******
  21  ****** ****** ****** ****** ****** ****** ****** ****** ****** ******
      ****** ****** ****** ****** ****** ****** ****** ****** ****** ******
      ****** ****** ****** ****** ****** ****** ****** ****** ****** ******
  22  ****** ****** ****** ****** ****** ****** ****** ****** ****** ******
      ****** ****** ****** ****** ****** ****** ****** ****** ****** ******
      ****** ****** ****** ****** ****** ****** ****** ****** ****** ******
  23  ****** ****** ****** ****** ****** ****** ****** ****** ****** ******
      ****** ****** ****** ****** ****** ****** ****** ****** ****** ******
      ****** ****** ****** ****** ****** ****** ****** ****** ****** ******
  24  ****** ****** ****** ****** ****** ****** ****** ****** ****** ******
      ****** ****** ****** ****** ****** ****** ****** ****** ****** ******
      ****** ****** ****** ****** ****** ****** ****** ****** ****** ******
  25  ****** ****** ****** ****** ****** ****** ****** ****** ****** ******
      ****** ****** ****** ****** ****** ****** ****** ****** ****** ******
      ****** ****** ****** ****** ****** ****** ****** ****** ****** ******

 HEAD WILL BE SAVED ON UNIT   51 AT END OF TIME STEP    1, STRESS PERIOD    3
1
  VOLUMETRIC BUDGET FOR ENTIRE MODEL AT END OF TIME STEP    1, STRESS PERIOD   3
  ------------------------------------------------------------------------------

     CUMULATIVE VOLUMES      L**3       RATES FOR THIS TIME STEP      L**3/T
     ------------------                 ------------------------

           IN:                                      IN:
           ---                                      ---
             STORAGE =    21634191.4791               STORAGE =       25441.9913
       CONSTANT HEAD =    27358082.3683         CONSTANT HEAD =      119192.7855
               WELLS =           0.0000                 WELLS =           0.0000
            RECHARGE =     6292800.0000              RECHARGE =           0.0000
      STREAM LEAKAGE =     2661749.8466        STREAM LEAKAGE =       12778.2101

            TOTAL IN =    57946823.6940              TOTAL IN =      157412.9870

          OUT:                                     OUT:
          ----                                     ----
             STORAGE =           0.0000               STORAGE =           0.0000
       CONSTANT HEAD =           0.0000         CONSTANT HEAD =           0.0000
               WELLS =    11575652.8580                 WELLS =       42246.9082
            RECHARGE =           0.0000              RECHARGE =           0.0000
      STREAM LEAKAGE =    46371171.6554        STREAM LEAKAGE =      115166.0813

           TOTAL OUT =    57946824.5134             TOTAL OUT =      157412.9895

            IN - OUT =          -0.8194              IN - OUT =      -2.5656E-03

 PERCENT DISCREPANCY =          -0.00     PERCENT DISCREPANCY =          -0.00






         TIME SUMMARY AT END OF TIME STEP    1 IN STRESS PERIOD    3
                    SECONDS     MINUTES      HOURS       DAYS        YEARS
                    -----------------------------------------------------------
   TIME STEP LENGTH 7.86240E+06 1.31040E+05  2184.0      91.000     0.24914    
 STRESS PERIOD TIME 7.86240E+06 1.31040E+05  2184.0      91.000     0.24914    
         TOTAL TIME 2.36736E+07 3.94560E+05  6576.0      274.00     0.75017    
1
1
                            STRESS PERIOD NO.    4, LENGTH =   91.00000    
                            -----------------------------------------------

                              NUMBER OF TIME STEPS =     1

                               MULTIPLIER FOR DELT =     1.500

                            INITIAL TIME STEP SIZE =   91.00000    

 WELL NO.  LAYER   ROW   COL   STRESS RATE         
 --------------------------------------------------
      1      1     17     21     -0.3064E+05
      2      1     16     17     -0.1161E+05
      3      1     13     18       0.000    
      4      1     14     25       0.000    

      4 WELLS

                 RECHARGE =  1.000000E-03

 REUSING STREAM SEGMENT DATA FROM LAST STRESS PERIOD
 
 SOLVING FOR HEAD 


     6 CALLS TO PCG ROUTINE FOR TIME STEP   1 IN STRESS PERIOD    4
    21 TOTAL ITERATIONS

 OUTPUT CONTROL FOR STRESS PERIOD    4   TIME STEP    1
    SAVE BUDGET
    SAVE HEAD FOR ALL LAYERS
    PRINT HEAD FOR ALL LAYERS
 UBDSV2 SAVING "STREAMFLOW OUT  " ON UNIT  50 AT TIME STEP  1, STRESS PERIOD   4



 STREAM LISTING     PERIOD      4   STEP        1

 LAYER ROW COL. STREAM  RCH.  FLOW INTO     FLOW TO   FLOW OUT OF   OVRLND.     DIRECT     STREAM       STREAM     STREAM     STREAM   STREAMBED  STREAMBED
                SEG.NO.  NO.  STRM. RCH.    AQUIFER    STRM. RCH.    RUNOFF     PRECIP       ET          HEAD       DEPTH      WIDTH   CONDCTNC.   GRADIENT

   1   13    1     1     1    1.0000E+05 -2.9635E+03   1.0296E+05  0.000E+00  0.000E+00  0.000E+00  4.84073E+01  1.459E-01  2.000E+01  2.000E+04 -1.482E-01
   1   13    2     1     2    1.0296E+05 -4.9499E+03   1.0791E+05  0.000E+00  0.000E+00  0.000E+00  4.79334E+01  1.493E-01  2.000E+01  2.000E+04 -2.475E-01
   1   14    3     1     3    1.0791E+05 -3.9761E+03   1.1189E+05  0.000E+00  0.000E+00  0.000E+00  4.74599E+01  1.531E-01  2.000E+01  2.000E+04 -1.988E-01
   1   15    4     1     4    1.1189E+05 -3.8592E+03   1.1575E+05  0.000E+00  0.000E+00  0.000E+00  4.69859E+01  1.563E-01  2.000E+01  2.000E+04 -1.930E-01
   1   16    5     1     5    1.1575E+05 -4.1457E+03   1.1989E+05  0.000E+00  0.000E+00  0.000E+00  4.65119E+01  1.596E-01  2.000E+01  2.000E+04 -2.073E-01
   1   16    6     1     6    1.1989E+05 -3.2812E+03   1.2318E+05  0.000E+00  0.000E+00  0.000E+00  4.60376E+01  1.626E-01  2.000E+01  2.000E+04 -1.641E-01
   1   16    7     1     7    1.2318E+05 -3.3408E+03   1.2652E+05  0.000E+00  0.000E+00  0.000E+00  4.55630E+01  1.653E-01  2.000E+01  2.000E+04 -1.670E-01
   1   16    8     1     8    1.2652E+05 -3.3604E+03   1.2988E+05  0.000E+00  0.000E+00  0.000E+00  4.50884E+01  1.679E-01  2.000E+01  2.000E+04 -1.680E-01
   1   16    9     1     9    1.2988E+05 -3.3222E+03   1.3320E+05  0.000E+00  0.000E+00  0.000E+00  4.46137E+01  1.705E-01  2.000E+01  2.000E+04 -1.661E-01
   1   16   10     1    10    1.3320E+05 -3.2182E+03   1.3642E+05  0.000E+00  0.000E+00  0.000E+00  4.41390E+01  1.730E-01  2.000E+01  2.000E+04 -1.609E-01
   1   16   11     1    11    1.3642E+05 -3.0367E+03   1.3945E+05  0.000E+00  0.000E+00  0.000E+00  4.36641E+01  1.754E-01  2.000E+01  2.000E+04 -1.518E-01
   1   16   12     1    12    1.3945E+05 -3.2910E+03   1.4275E+05  0.000E+00  0.000E+00  0.000E+00  4.31892E+01  1.778E-01  2.000E+01  2.000E+04 -1.646E-01
   1   15   13     1    13    1.4275E+05 -2.6559E+03   1.4540E+05  0.000E+00  0.000E+00  0.000E+00  4.27142E+01  1.801E-01  2.000E+01  2.000E+04 -1.328E-01
   1   14   14     1    14    1.4540E+05 -2.4251E+03   1.4783E+05  0.000E+00  0.000E+00  0.000E+00  4.22388E+01  1.820E-01  2.000E+01  2.000E+04 -1.213E-01
   1   13   15     1    15    1.4783E+05 -2.8291E+03   1.5066E+05  0.000E+00  0.000E+00  0.000E+00  4.17635E+01  1.839E-01  2.000E+01  2.000E+04 -1.415E-01
   1   12   16     1    16    1.5066E+05 -4.8722E+03   1.5553E+05  0.000E+00  0.000E+00  0.000E+00  4.12890E+01  1.868E-01  2.000E+01  2.000E+04 -2.436E-01
   1   12   17     1    17    1.5553E+05 -2.6373E+03   1.5816E+05  0.000E+00  0.000E+00  0.000E+00  4.08145E+01  1.895E-01  2.000E+01  2.000E+04 -1.319E-01
   1   12   18     1    18    1.5816E+05 -2.4587E+03   1.6062E+05  0.000E+00  0.000E+00  0.000E+00  4.03391E+01  1.913E-01  2.000E+01  2.000E+04 -1.229E-01
   1   12   19     1    19    1.6062E+05 -3.7608E+03   1.6438E+05  0.000E+00  0.000E+00  0.000E+00  3.98640E+01  1.936E-01  2.000E+01  2.000E+04 -1.880E-01
   1   13   20     1    20    1.6438E+05 -7.2838E+02   1.6511E+05  0.000E+00  0.000E+00  0.000E+00  3.93884E+01  1.952E-01  2.000E+01  2.000E+04 -3.642E-02
   1   14   21     1    21    1.6511E+05  2.5204E+03   1.6259E+05  0.000E+00  0.000E+00  0.000E+00  3.89104E+01  1.945E-01  2.000E+01  2.000E+04  1.260E-01
   1   14   22     1    22    1.6259E+05  5.7426E+03   1.5685E+05  0.000E+00  0.000E+00  0.000E+00  3.84302E+01  1.916E-01  2.000E+01  2.000E+04  2.871E-01
   1    9   30     2     1    5.0000E+04 -2.8014E+03   5.2801E+04  0.000E+00  0.000E+00  0.000E+00  4.02428E+01  1.178E-01  2.000E+01  2.000E+04 -1.401E-01
   1    9   29     2     2    5.2801E+04 -3.1339E+03   5.5935E+04  0.000E+00  0.000E+00  0.000E+00  3.99968E+01  1.218E-01  2.000E+01  2.000E+04 -1.567E-01
   1    9   28     2     3    5.5935E+04 -3.5167E+03   5.9452E+04  0.000E+00  0.000E+00  0.000E+00  3.97513E+01  1.263E-01  2.000E+01  2.000E+04 -1.758E-01
   1    9   27     2     4    5.9452E+04 -6.2650E+03   6.5717E+04  0.000E+00  0.000E+00  0.000E+00  3.95076E+01  1.326E-01  2.000E+01  2.000E+04 -3.132E-01
   1   10   26     2     5    6.5717E+04 -3.8925E+03   6.9610E+04  0.000E+00  0.000E+00  0.000E+00  3.92639E+01  1.389E-01  2.000E+01  2.000E+04 -1.946E-01
   1   11   25     2     6    6.9610E+04 -2.8423E+03   7.2452E+04  0.000E+00  0.000E+00  0.000E+00  3.90180E+01  1.430E-01  2.000E+01  2.000E+04 -1.421E-01
   1   12   24     2     7    7.2452E+04 -1.9801E+03   7.4432E+04  0.000E+00  0.000E+00  0.000E+00  3.87709E+01  1.459E-01  2.000E+01  2.000E+04 -9.900E-02
   1   13   23     2     8    7.4432E+04 -1.1001E+03   7.5532E+04  0.000E+00  0.000E+00  0.000E+00  3.85228E+01  1.478E-01  2.000E+01  2.000E+04 -5.501E-02
   1   14   22     2     9    7.5532E+04  2.5760E+03   7.2956E+04  0.000E+00  0.000E+00  0.000E+00  3.82719E+01  1.469E-01  2.000E+01  2.000E+04  1.288E-01
   1   14   22     3     1    2.2981E+05 -7.7556E+03   2.3756E+05  0.000E+00  0.000E+00  0.000E+00  3.77553E+01  1.997E-01  2.000E+01  2.000E+04 -3.878E-01
   1   15   23     3     2    2.3756E+05  1.8276E+03   2.3573E+05  0.000E+00  0.000E+00  0.000E+00  3.68679E+01  2.013E-01  2.000E+01  2.000E+04  9.138E-02
   1   15   24     3     3    2.3573E+05 -4.2399E+02   2.3616E+05  0.000E+00  0.000E+00  0.000E+00  3.59787E+01  2.009E-01  2.000E+01  2.000E+04 -2.120E-02
   1   15   25     3     4    2.3616E+05 -1.0520E+03   2.3721E+05  0.000E+00  0.000E+00  0.000E+00  3.50902E+01  2.013E-01  2.000E+01  2.000E+04 -5.260E-02
   1   15   26     3     5    2.3721E+05 -1.8751E+03   2.3908E+05  0.000E+00  0.000E+00  0.000E+00  3.42020E+01  2.020E-01  2.000E+01  2.000E+04 -9.375E-02
   1   16   27     3     6    2.3908E+05 -2.4673E+03   2.4155E+05  0.000E+00  0.000E+00  0.000E+00  3.33142E+01  2.031E-01  2.000E+01  2.000E+04 -1.234E-01
   1   17   28     3     7    2.4155E+05 -3.4542E+03   2.4501E+05  0.000E+00  0.000E+00  0.000E+00  3.24268E+01  2.046E-01  2.000E+01  2.000E+04 -1.727E-01
   1   18   29     3     8    2.4501E+05 -5.2688E+03   2.5027E+05  0.000E+00  0.000E+00  0.000E+00  3.15402E+01  2.068E-01  2.000E+01  2.000E+04 -2.634E-01
   1   18   30     3     9    2.5027E+05 -4.6468E+03   2.5492E+05  0.000E+00  0.000E+00  0.000E+00  3.06537E+01  2.093E-01  2.000E+01  2.000E+04 -2.323E-01



1
              HEAD IN LAYER   1 AT END OF TIME STEP   1 IN STRESS PERIOD    4
  ---------------------------------------------------------------------------

          1      2      3      4      5      6      7      8      9     10
         11     12     13     14     15     16     17     18     19     20
         21     22     23     24     25     26     27     28     29     30
 .........................................................................
   1  ****** ****** ****** ****** ****** ****** ****** ****** ****** ******
      ****** ****** ****** ****** ****** ****** ****** ****** ****** ******
      ****** ****** ****** ****** ****** ****** ****** ****** ****** ******
   2  ****** ****** ****** ****** ****** ****** ****** ****** ****** ******
      ****** ****** ****** ****** ****** ****** ****** ****** ****** ******
      ****** ****** ****** ****** ****** ****** ****** ****** ****** ******
   3  ****** ****** ****** ****** ****** ****** ****** ****** ****** ******
      ****** ****** ****** ****** ****** ****** ****** ****** ****** ******
      ****** ****** ****** ****** ****** ****** ****** ****** ****** ******
   4  ****** ****** ****** ****** ****** ****** ****** ****** ****** ******
      ****** ****** ****** ****** ****** ****** ****** ****** ****** ******
      ****** ****** ****** ****** ****** ****** ****** ****** ****** ******
   5  ****** ****** ****** ****** ****** ****** ****** ****** ****** ******
      ****** ****** ****** ****** ****** ****** ****** ****** ****** ******
      ****** ****** ****** ****** ****** ****** ****** ****** ****** ******
   6  ****** ****** ****** ****** ****** ****** ****** ****** ****** ******
      ****** ****** ****** ****** ****** ****** ****** ****** ****** ******
      ****** ****** ****** ****** ****** ****** ****** ****** ****** ******
   7  ****** ****** ****** ****** ****** ****** ****** ****** ****** ******
      ****** ****** ****** ****** ****** ****** ****** ****** ****** ******
      ****** ****** ****** ****** ****** ****** ****** ****** ****** ******
   8  ****** ****** ****** ****** ****** ****** ****** ****** ****** ******
      ****** ****** ****** ****** ****** ****** ****** ****** ****** ******
      ****** ****** ****** ****** ****** ****** ****** ****** ****** ******
   9  ****** ****** ****** ****** ****** ****** ****** ****** ****** ******
      ****** ****** ****** ****** ****** ****** ****** ****** ****** ******
      ****** ****** ****** ****** ****** ****** ****** ****** ****** ******
  10  ****** ****** ****** ****** ****** ****** ****** ****** ****** ******
      ****** ****** ****** ****** ****** ****** ****** ****** ****** ******
      ****** ****** ****** ****** ****** ****** ****** ****** ****** ******
  11  ****** ****** ****** ****** ****** ****** ****** ****** ****** ******
      ****** ****** ****** ****** ****** ****** ****** ****** ****** ******
      ****** ****** ****** ****** ****** ****** ****** ****** ****** ******
  12  ****** ****** ****** ****** ****** ****** ****** ****** ****** ******
      ****** ****** ****** ****** ****** ****** ****** ****** ****** ******
      ****** ****** ****** ****** ****** ****** ****** ****** ****** ******
  13  ****** ****** ****** ****** ****** ****** ****** ****** ****** ******
      ****** ****** ****** ****** ****** ****** ****** ****** ****** ******
      ****** ****** ****** ****** ****** ****** ****** ****** ****** ******
  14  ****** ****** ****** ****** ****** ****** ****** ****** ****** ******
      ****** ****** ****** ****** ****** ****** ****** ****** ****** ******
      ****** ****** ****** ****** ****** ****** ****** ****** ****** ******
  15  ****** ****** ****** ****** ****** ****** ****** ****** ****** ******
      ****** ****** ****** ****** ****** ****** ****** ****** ****** ******
      ****** ****** ****** ****** ****** ****** ****** ****** ****** ******
  16  ****** ****** ****** ****** ****** ****** ****** ****** ****** ******
      ****** ****** ****** ****** ****** ****** ****** ****** ****** ******
      ****** ****** ****** ****** ****** ****** ****** ****** ****** ******
  17  ****** ****** ****** ****** ****** ****** ****** ****** ****** ******
      ****** ****** ****** ****** ****** ****** ****** ****** ****** ******
      ****** ****** ****** ****** ****** ****** ****** ****** ****** ******
  18  ****** ****** ****** ****** ****** ****** ****** ****** ****** ******
      ****** ****** ****** ****** ****** ****** ****** ****** ****** ******
      ****** ****** ****** ****** ****** ****** ****** ****** ****** ******
  19  ****** ****** ****** ****** ****** ****** ****** ****** ****** ******
      ****** ****** ****** ****** ****** ****** ****** ****** ****** ******
      ****** ****** ****** ****** ****** ****** ****** ****** ****** ******
  20  ****** ****** ****** ****** ****** ****** ****** ****** ****** ******
      ****** ****** ****** ****** ****** ****** ****** ****** ****** ******
      ****** ****** ****** ****** ****** ****** ****** ****** ****** ******
  21  ****** ****** ****** ****** ****** ****** ****** ****** ****** ******
      ****** ****** ****** ****** ****** ****** ****** ****** ****** ******
      ****** ****** ****** ****** ****** ****** ****** ****** ****** ******
  22  ****** ****** ****** ****** ****** ****** ****** ****** ****** ******
      ****** ****** ****** ****** ****** ****** ****** ****** ****** ******
      ****** ****** ****** ****** ****** ****** ****** ****** ****** ******
  23  ****** ****** ****** ****** ****** ****** ****** ****** ****** ******
      ****** ****** ****** ****** ****** ****** ****** ****** ****** ******
      ****** ****** ****** ****** ****** ****** ****** ****** ****** ******
  24  ****** ****** ****** ****** ****** ****** ****** ****** ****** ******
      ****** ****** ****** ****** ****** ****** ****** ****** ****** ******
      ****** ****** ****** ****** ****** ****** ****** ****** ****** ******
  25  ****** ****** ****** ****** ****** ****** ****** ****** ****** ******
      ****** ****** ****** ****** ****** ****** ****** ****** ****** ******
      ****** ****** ****** ****** ****** ****** ****** ****** ****** ******

 HEAD WILL BE SAVED ON UNIT   51 AT END OF TIME STEP    1, STRESS PERIOD    4
1
  VOLUMETRIC BUDGET FOR ENTIRE MODEL AT END OF TIME STEP    1, STRESS PERIOD   4
  ------------------------------------------------------------------------------

     CUMULATIVE VOLUMES      L**3       RATES FOR THIS TIME STEP      L**3/T
     ------------------                 ------------------------

           IN:                                      IN:
           ---                                      ---
             STORAGE =    21758422.5625               STORAGE =        1365.1767
       CONSTANT HEAD =    38142538.1490         CONSTANT HEAD =      118510.5031
               WELLS =           0.0000                 WELLS =           0.0000
            RECHARGE =     8804400.0000              RECHARGE =       27600.0000
      STREAM LEAKAGE =     3814408.2473        STREAM LEAKAGE =       12666.5758

            TOTAL IN =    72519768.9588              TOTAL IN =      160142.2557

          OUT:                                     OUT:
          ----                                     ----
             STORAGE =       27938.8345               STORAGE =         307.0202
       CONSTANT HEAD =           0.0000         CONSTANT HEAD =           0.0000
               WELLS =    15420121.5079                 WELLS =       42246.9082
            RECHARGE =           0.0000              RECHARGE =           0.0000
      STREAM LEAKAGE =    57071709.2496        STREAM LEAKAGE =      117588.3252

           TOTAL OUT =    72519769.5919             TOTAL OUT =      160142.2536

            IN - OUT =          -0.6332              IN - OUT =       2.0464E-03

 PERCENT DISCREPANCY =          -0.00     PERCENT DISCREPANCY =           0.00






         TIME SUMMARY AT END OF TIME STEP    1 IN STRESS PERIOD    4
                    SECONDS     MINUTES      HOURS       DAYS        YEARS
                    -----------------------------------------------------------
   TIME STEP LENGTH 7.86240E+06 1.31040E+05  2184.0      91.000     0.24914    
 STRESS PERIOD TIME 7.86240E+06 1.31040E+05  2184.0      91.000     0.24914    
         TOTAL TIME 3.15360E+07 5.25600E+05  8760.0      365.00     0.99932    
1
1
                            STRESS PERIOD NO.    5, LENGTH =   92.00000    
                            -----------------------------------------------

                              NUMBER OF TIME STEPS =     1

                               MULTIPLIER FOR DELT =     1.500

                            INITIAL TIME STEP SIZE =   92.00000    

 WELL NO.  LAYER   ROW   COL   STRESS RATE         
 --------------------------------------------------
      1      1     17     21     -0.3064E+05
      2      1     16     17     -0.1161E+05
      3      1     13     18       0.000    
      4      1     14     25       0.000    

      4 WELLS

                 RECHARGE =  5.000000E-04

 REUSING STREAM SEGMENT DATA FROM LAST STRESS PERIOD
 
 SOLVING FOR HEAD 


     6 CALLS TO PCG ROUTINE FOR TIME STEP   1 IN STRESS PERIOD    5
    23 TOTAL ITERATIONS

 OUTPUT CONTROL FOR STRESS PERIOD    5   TIME STEP    1
    SAVE BUDGET
    SAVE HEAD FOR ALL LAYERS
    PRINT HEAD FOR ALL LAYERS
 UBDSV2 SAVING "STREAMFLOW OUT  " ON UNIT  50 AT TIME STEP  1, STRESS PERIOD   5



 STREAM LISTING     PERIOD      5   STEP        1

 LAYER ROW COL. STREAM  RCH.  FLOW INTO     FLOW TO   FLOW OUT OF   OVRLND.     DIRECT     STREAM       STREAM     STREAM     STREAM   STREAMBED  STREAMBED
                SEG.NO.  NO.  STRM. RCH.    AQUIFER    STRM. RCH.    RUNOFF     PRECIP       ET          HEAD       DEPTH      WIDTH   CONDCTNC.   GRADIENT

   1   13    1     1     1    1.0000E+05 -2.7905E+03   1.0279E+05  0.000E+00  0.000E+00  0.000E+00  4.84072E+01  1.459E-01  2.000E+01  2.000E+04 -1.395E-01
   1   13    2     1     2    1.0279E+05 -4.7098E+03   1.0750E+05  0.000E+00  0.000E+00  0.000E+00  4.79332E+01  1.491E-01  2.000E+01  2.000E+04 -2.355E-01
   1   14    3     1     3    1.0750E+05 -3.7526E+03   1.1125E+05  0.000E+00  0.000E+00  0.000E+00  4.74595E+01  1.526E-01  2.000E+01  2.000E+04 -1.876E-01
   1   15    4     1     4    1.1125E+05 -3.6467E+03   1.1490E+05  0.000E+00  0.000E+00  0.000E+00  4.69853E+01  1.557E-01  2.000E+01  2.000E+04 -1.823E-01
   1   16    5     1     5    1.1490E+05 -3.9603E+03   1.1886E+05  0.000E+00  0.000E+00  0.000E+00  4.65111E+01  1.588E-01  2.000E+01  2.000E+04 -1.980E-01
   1   16    6     1     6    1.1886E+05 -3.1286E+03   1.2199E+05  0.000E+00  0.000E+00  0.000E+00  4.60367E+01  1.617E-01  2.000E+01  2.000E+04 -1.564E-01
   1   16    7     1     7    1.2199E+05 -3.1834E+03   1.2517E+05  0.000E+00  0.000E+00  0.000E+00  4.55620E+01  1.642E-01  2.000E+01  2.000E+04 -1.592E-01
   1   16    8     1     8    1.2517E+05 -3.2004E+03   1.2837E+05  0.000E+00  0.000E+00  0.000E+00  4.50872E+01  1.668E-01  2.000E+01  2.000E+04 -1.600E-01
   1   16    9     1     9    1.2837E+05 -3.1616E+03   1.3153E+05  0.000E+00  0.000E+00  0.000E+00  4.46125E+01  1.693E-01  2.000E+01  2.000E+04 -1.581E-01
   1   16   10     1    10    1.3153E+05 -3.0588E+03   1.3459E+05  0.000E+00  0.000E+00  0.000E+00  4.41376E+01  1.717E-01  2.000E+01  2.000E+04 -1.529E-01
   1   16   11     1    11    1.3459E+05 -2.8795E+03   1.3747E+05  0.000E+00  0.000E+00  0.000E+00  4.36626E+01  1.740E-01  2.000E+01  2.000E+04 -1.440E-01
   1   16   12     1    12    1.3747E+05 -3.0882E+03   1.4056E+05  0.000E+00  0.000E+00  0.000E+00  4.31876E+01  1.763E-01  2.000E+01  2.000E+04 -1.544E-01
   1   15   13     1    13    1.4056E+05 -2.4282E+03   1.4299E+05  0.000E+00  0.000E+00  0.000E+00  4.27124E+01  1.784E-01  2.000E+01  2.000E+04 -1.214E-01
   1   14   14     1    14    1.4299E+05 -2.1899E+03   1.4518E+05  0.000E+00  0.000E+00  0.000E+00  4.22369E+01  1.801E-01  2.000E+01  2.000E+04 -1.095E-01
   1   13   15     1    15    1.4518E+05 -2.5963E+03   1.4777E+05  0.000E+00  0.000E+00  0.000E+00  4.17614E+01  1.819E-01  2.000E+01  2.000E+04 -1.298E-01
   1   12   16     1    16    1.4777E+05 -4.6448E+03   1.5242E+05  0.000E+00  0.000E+00  0.000E+00  4.12868E+01  1.846E-01  2.000E+01  2.000E+04 -2.322E-01
   1   12   17     1    17    1.5242E+05 -2.4766E+03   1.5490E+05  0.000E+00  0.000E+00  0.000E+00  4.08122E+01  1.872E-01  2.000E+01  2.000E+04 -1.238E-01
   1   12   18     1    18    1.5490E+05 -2.3040E+03   1.5720E+05  0.000E+00  0.000E+00  0.000E+00  4.03366E+01  1.889E-01  2.000E+01  2.000E+04 -1.152E-01
   1   12   19     1    19    1.5720E+05 -3.5768E+03   1.6078E+05  0.000E+00  0.000E+00  0.000E+00  3.98615E+01  1.910E-01  2.000E+01  2.000E+04 -1.788E-01
   1   13   20     1    20    1.6078E+05 -5.5290E+02   1.6133E+05  0.000E+00  0.000E+00  0.000E+00  3.93857E+01  1.925E-01  2.000E+01  2.000E+04 -2.765E-02
   1   14   21     1    21    1.6133E+05  2.6866E+03   1.5864E+05  0.000E+00  0.000E+00  0.000E+00  3.89077E+01  1.918E-01  2.000E+01  2.000E+04  1.343E-01
   1   14   22     1    22    1.5864E+05  5.7686E+03   1.5287E+05  0.000E+00  0.000E+00  0.000E+00  3.84273E+01  1.887E-01  2.000E+01  2.000E+04  2.884E-01
   1    9   30     2     1    5.0000E+04 -2.6860E+03   5.2686E+04  0.000E+00  0.000E+00  0.000E+00  4.02427E+01  1.177E-01  2.000E+01  2.000E+04 -1.343E-01
   1    9   29     2     2    5.2686E+04 -3.0188E+03   5.5705E+04  0.000E+00  0.000E+00  0.000E+00  3.99966E+01  1.216E-01  2.000E+01  2.000E+04 -1.509E-01
   1    9   28     2     3    5.5705E+04 -3.4008E+03   5.9106E+04  0.000E+00  0.000E+00  0.000E+00  3.97509E+01  1.259E-01  2.000E+01  2.000E+04 -1.700E-01
   1    9   27     2     4    5.9106E+04 -6.1039E+03   6.5209E+04  0.000E+00  0.000E+00  0.000E+00  3.95070E+01  1.320E-01  2.000E+01  2.000E+04 -3.052E-01
   1   10   26     2     5    6.5209E+04 -3.7266E+03   6.8936E+04  0.000E+00  0.000E+00  0.000E+00  3.92632E+01  1.382E-01  2.000E+01  2.000E+04 -1.863E-01
   1   11   25     2     6    6.8936E+04 -2.6826E+03   7.1619E+04  0.000E+00  0.000E+00  0.000E+00  3.90171E+01  1.421E-01  2.000E+01  2.000E+04 -1.341E-01
   1   12   24     2     7    7.1619E+04 -1.8381E+03   7.3457E+04  0.000E+00  0.000E+00  0.000E+00  3.87698E+01  1.448E-01  2.000E+01  2.000E+04 -9.191E-02
   1   13   23     2     8    7.3457E+04 -9.8887E+02   7.4446E+04  0.000E+00  0.000E+00  0.000E+00  3.85215E+01  1.465E-01  2.000E+01  2.000E+04 -4.944E-02
   1   14   22     2     9    7.4446E+04  2.6328E+03   7.1813E+04  0.000E+00  0.000E+00  0.000E+00  3.82706E+01  1.456E-01  2.000E+01  2.000E+04  1.316E-01
   1   14   22     3     1    2.2469E+05 -7.7252E+03   2.3241E+05  0.000E+00  0.000E+00  0.000E+00  3.77527E+01  1.971E-01  2.000E+01  2.000E+04 -3.863E-01
   1   15   23     3     2    2.3241E+05  1.9822E+03   2.3043E+05  0.000E+00  0.000E+00  0.000E+00  3.68652E+01  1.986E-01  2.000E+01  2.000E+04  9.911E-02
   1   15   24     3     3    2.3043E+05 -3.1877E+02   2.3075E+05  0.000E+00  0.000E+00  0.000E+00  3.59759E+01  1.982E-01  2.000E+01  2.000E+04 -1.594E-02
   1   15   25     3     4    2.3075E+05 -9.5080E+02   2.3170E+05  0.000E+00  0.000E+00  0.000E+00  3.50874E+01  1.985E-01  2.000E+01  2.000E+04 -4.754E-02
   1   15   26     3     5    2.3170E+05 -1.7524E+03   2.3345E+05  0.000E+00  0.000E+00  0.000E+00  3.41992E+01  1.992E-01  2.000E+01  2.000E+04 -8.762E-02
   1   16   27     3     6    2.3345E+05 -2.3085E+03   2.3576E+05  0.000E+00  0.000E+00  0.000E+00  3.33113E+01  2.002E-01  2.000E+01  2.000E+04 -1.154E-01
   1   17   28     3     7    2.3576E+05 -3.2918E+03   2.3905E+05  0.000E+00  0.000E+00  0.000E+00  3.24239E+01  2.016E-01  2.000E+01  2.000E+04 -1.646E-01
   1   18   29     3     8    2.3905E+05 -5.1149E+03   2.4417E+05  0.000E+00  0.000E+00  0.000E+00  3.15371E+01  2.038E-01  2.000E+01  2.000E+04 -2.557E-01
   1   18   30     3     9    2.4417E+05 -4.5347E+03   2.4870E+05  0.000E+00  0.000E+00  0.000E+00  3.06507E+01  2.062E-01  2.000E+01  2.000E+04 -2.267E-01



1
              HEAD IN LAYER   1 AT END OF TIME STEP   1 IN STRESS PERIOD    5
  ---------------------------------------------------------------------------

          1      2      3      4      5      6      7      8      9     10
         11     12     13     14     15     16     17     18     19     20
         21     22     23     24     25     26     27     28     29     30
 .........................................................................
   1  ****** ****** ****** ****** ****** ****** ****** ****** ****** ******
      ****** ****** ****** ****** ****** ****** ****** ****** ****** ******
      ****** ****** ****** ****** ****** ****** ****** ****** ****** ******
   2  ****** ****** ****** ****** ****** ****** ****** ****** ****** ******
      ****** ****** ****** ****** ****** ****** ****** ****** ****** ******
      ****** ****** ****** ****** ****** ****** ****** ****** ****** ******
   3  ****** ****** ****** ****** ****** ****** ****** ****** ****** ******
      ****** ****** ****** ****** ****** ****** ****** ****** ****** ******
      ****** ****** ****** ****** ****** ****** ****** ****** ****** ******
   4  ****** ****** ****** ****** ****** ****** ****** ****** ****** ******
      ****** ****** ****** ****** ****** ****** ****** ****** ****** ******
      ****** ****** ****** ****** ****** ****** ****** ****** ****** ******
   5  ****** ****** ****** ****** ****** ****** ****** ****** ****** ******
      ****** ****** ****** ****** ****** ****** ****** ****** ****** ******
      ****** ****** ****** ****** ****** ****** ****** ****** ****** ******
   6  ****** ****** ****** ****** ****** ****** ****** ****** ****** ******
      ****** ****** ****** ****** ****** ****** ****** ****** ****** ******
      ****** ****** ****** ****** ****** ****** ****** ****** ****** ******
   7  ****** ****** ****** ****** ****** ****** ****** ****** ****** ******
      ****** ****** ****** ****** ****** ****** ****** ****** ****** ******
      ****** ****** ****** ****** ****** ****** ****** ****** ****** ******
   8  ****** ****** ****** ****** ****** ****** ****** ****** ****** ******
      ****** ****** ****** ****** ****** ****** ****** ****** ****** ******
      ****** ****** ****** ****** ****** ****** ****** ****** ****** ******
   9  ****** ****** ****** ****** ****** ****** ****** ****** ****** ******
      ****** ****** ****** ****** ****** ****** ****** ****** ****** ******
      ****** ****** ****** ****** ****** ****** ****** ****** ****** ******
  10  ****** ****** ****** ****** ****** ****** ****** ****** ****** ******
      ****** ****** ****** ****** ****** ****** ****** ****** ****** ******
      ****** ****** ****** ****** ****** ****** ****** ****** ****** ******
  11  ****** ****** ****** ****** ****** ****** ****** ****** ****** ******
      ****** ****** ****** ****** ****** ****** ****** ****** ****** ******
      ****** ****** ****** ****** ****** ****** ****** ****** ****** ******
  12  ****** ****** ****** ****** ****** ****** ****** ****** ****** ******
      ****** ****** ****** ****** ****** ****** ****** ****** ****** ******
      ****** ****** ****** ****** ****** ****** ****** ****** ****** ******
  13  ****** ****** ****** ****** ****** ****** ****** ****** ****** ******
      ****** ****** ****** ****** ****** ****** ****** ****** ****** ******
      ****** ****** ****** ****** ****** ****** ****** ****** ****** ******
  14  ****** ****** ****** ****** ****** ****** ****** ****** ****** ******
      ****** ****** ****** ****** ****** ****** ****** ****** ****** ******
      ****** ****** ****** ****** ****** ****** ****** ****** ****** ******
  15  ****** ****** ****** ****** ****** ****** ****** ****** ****** ******
      ****** ****** ****** ****** ****** ****** ****** ****** ****** ******
      ****** ****** ****** ****** ****** ****** ****** ****** ****** ******
  16  ****** ****** ****** ****** ****** ****** ****** ****** ****** ******
      ****** ****** ****** ****** ****** ****** ****** ****** ****** ******
      ****** ****** ****** ****** ****** ****** ****** ****** ****** ******
  17  ****** ****** ****** ****** ****** ****** ****** ****** ****** ******
      ****** ****** ****** ****** ****** ****** ****** ****** ****** ******
      ****** ****** ****** ****** ****** ****** ****** ****** ****** ******
  18  ****** ****** ****** ****** ****** ****** ****** ****** ****** ******
      ****** ****** ****** ****** ****** ****** ****** ****** ****** ******
      ****** ****** ****** ****** ****** ****** ****** ****** ****** ******
  19  ****** ****** ****** ****** ****** ****** ****** ****** ****** ******
      ****** ****** ****** ****** ****** ****** ****** ****** ****** ******
      ****** ****** ****** ****** ****** ****** ****** ****** ****** ******
  20  ****** ****** ****** ****** ****** ****** ****** ****** ****** ******
      ****** ****** ****** ****** ****** ****** ****** ****** ****** ******
      ****** ****** ****** ****** ****** ****** ****** ****** ****** ******
  21  ****** ****** ****** ****** ****** ****** ****** ****** ****** ******
      ****** ****** ****** ****** ****** ****** ****** ****** ****** ******
      ****** ****** ****** ****** ****** ****** ****** ****** ****** ******
  22  ****** ****** ****** ****** ****** ****** ****** ****** ****** ******
      ****** ****** ****** ****** ****** ****** ****** ****** ****** ******
      ****** ****** ****** ****** ****** ****** ****** ****** ****** ******
  23  ****** ****** ****** ****** ****** ****** ****** ****** ****** ******
      ****** ****** ****** ****** ****** ****** ****** ****** ****** ******
      ****** ****** ****** ****** ****** ****** ****** ****** ****** ******
  24  ****** ****** ****** ****** ****** ****** ****** ****** ****** ******
      ****** ****** ****** ****** ****** ****** ****** ****** ****** ******
      ****** ****** ****** ****** ****** ****** ****** ****** ****** ******
  25  ****** ****** ****** ****** ****** ****** ****** ****** ****** ******
      ****** ****** ****** ****** ****** ****** ****** ****** ****** ******
      ****** ****** ****** ****** ****** ****** ****** ****** ****** ******

 HEAD WILL BE SAVED ON UNIT   51 AT END OF TIME STEP    1, STRESS PERIOD    5
1
  VOLUMETRIC BUDGET FOR ENTIRE MODEL AT END OF TIME STEP    1, STRESS PERIOD   5
  ------------------------------------------------------------------------------

     CUMULATIVE VOLUMES      L**3       RATES FOR THIS TIME STEP      L**3/T
     ------------------                 ------------------------

           IN:                                      IN:
           ---                                      ---
             STORAGE =    22162171.7984               STORAGE =        4388.5787
       CONSTANT HEAD =    49436515.9860         CONSTANT HEAD =      122760.6287
               WELLS =           0.0000                 WELLS =           0.0000
            RECHARGE =    10074000.0000              RECHARGE =       13800.0000
      STREAM LEAKAGE =     5016865.1939        STREAM LEAKAGE =       13070.1842

            TOTAL IN =    86689552.9783              TOTAL IN =      154019.3915

          OUT:                                     OUT:
          ----                                     ----
             STORAGE =       27938.8345               STORAGE =           0.0000
       CONSTANT HEAD =           0.0000         CONSTANT HEAD =           0.0000
               WELLS =    19306837.0660                 WELLS =       42246.9082
            RECHARGE =           0.0000              RECHARGE =           0.0000
      STREAM LEAKAGE =    67354777.7809        STREAM LEAKAGE =      111772.4840

           TOTAL OUT =    86689553.6814             TOTAL OUT =      154019.3923

            IN - OUT =          -0.7031              IN - OUT =      -7.5991E-04

 PERCENT DISCREPANCY =          -0.00     PERCENT DISCREPANCY =          -0.00






         TIME SUMMARY AT END OF TIME STEP    1 IN STRESS PERIOD    5
                    SECONDS     MINUTES      HOURS       DAYS        YEARS
                    -----------------------------------------------------------
   TIME STEP LENGTH 7.94880E+06 1.32480E+05  2208.0      92.000     0.25188    
 STRESS PERIOD TIME 7.94880E+06 1.32480E+05  2208.0      92.000     0.25188    
         TOTAL TIME 3.94848E+07 6.58080E+05  10968.      457.00      1.2512    
1
1
                            STRESS PERIOD NO.    6, LENGTH =   91.00000    
                            -----------------------------------------------

                              NUMBER OF TIME STEPS =     1

                               MULTIPLIER FOR DELT =     1.500

                            INITIAL TIME STEP SIZE =   91.00000    

 WELL NO.  LAYER   ROW   COL   STRESS RATE         
 --------------------------------------------------
      1      1     17     21     -0.3064E+05
      2      1     16     17     -0.1161E+05
      3      1     13     18       0.000    
      4      1     14     25       0.000    

      4 WELLS

                 RECHARGE =  2.000000E-03

 REUSING STREAM SEGMENT DATA FROM LAST STRESS PERIOD
 
 SOLVING FOR HEAD 


     7 CALLS TO PCG ROUTINE FOR TIME STEP   1 IN STRESS PERIOD    6
    26 TOTAL ITERATIONS

 OUTPUT CONTROL FOR STRESS PERIOD    6   TIME STEP    1
    SAVE BUDGET
    SAVE HEAD FOR ALL LAYERS
    PRINT HEAD FOR ALL LAYERS
 UBDSV2 SAVING "STREAMFLOW OUT  " ON UNIT  50 AT TIME STEP  1, STRESS PERIOD   6



 STREAM LISTING     PERIOD      6   STEP        1

 LAYER ROW COL. STREAM  RCH.  FLOW INTO     FLOW TO   FLOW OUT OF   OVRLND.     DIRECT     STREAM       STREAM     STREAM     STREAM   STREAMBED  STREAMBED
                SEG.NO.  NO.  STRM. RCH.    AQUIFER    STRM. RCH.    RUNOFF     PRECIP       ET          HEAD       DEPTH      WIDTH   CONDCTNC.   GRADIENT

   1   13    1     1     1    1.0000E+05 -3.1902E+03   1.0319E+05  0.000E+00  0.000E+00  0.000E+00  4.84074E+01  1.460E-01  2.000E+01  2.000E+04 -1.595E-01
   1   13    2     1     2    1.0319E+05 -5.2355E+03   1.0843E+05  0.000E+00  0.000E+00  0.000E+00  4.79337E+01  1.496E-01  2.000E+01  2.000E+04 -2.618E-01
   1   14    3     1     3    1.0843E+05 -4.2922E+03   1.1272E+05  0.000E+00  0.000E+00  0.000E+00  4.74605E+01  1.536E-01  2.000E+01  2.000E+04 -2.146E-01
   1   15    4     1     4    1.1272E+05 -4.1836E+03   1.1690E+05  0.000E+00  0.000E+00  0.000E+00  4.69867E+01  1.571E-01  2.000E+01  2.000E+04 -2.092E-01
   1   16    5     1     5    1.1690E+05 -4.4589E+03   1.2136E+05  0.000E+00  0.000E+00  0.000E+00  4.65129E+01  1.607E-01  2.000E+01  2.000E+04 -2.229E-01
   1   16    6     1     6    1.2136E+05 -3.5205E+03   1.2488E+05  0.000E+00  0.000E+00  0.000E+00  4.60389E+01  1.639E-01  2.000E+01  2.000E+04 -1.760E-01
   1   16    7     1     7    1.2488E+05 -3.5808E+03   1.2846E+05  0.000E+00  0.000E+00  0.000E+00  4.55644E+01  1.667E-01  2.000E+01  2.000E+04 -1.790E-01
   1   16    8     1     8    1.2846E+05 -3.6010E+03   1.3206E+05  0.000E+00  0.000E+00  0.000E+00  4.50900E+01  1.695E-01  2.000E+01  2.000E+04 -1.801E-01
   1   16    9     1     9    1.3206E+05 -3.5620E+03   1.3562E+05  0.000E+00  0.000E+00  0.000E+00  4.46155E+01  1.723E-01  2.000E+01  2.000E+04 -1.781E-01
   1   16   10     1    10    1.3562E+05 -3.4555E+03   1.3908E+05  0.000E+00  0.000E+00  0.000E+00  4.41409E+01  1.750E-01  2.000E+01  2.000E+04 -1.728E-01
   1   16   11     1    11    1.3908E+05 -3.2709E+03   1.4235E+05  0.000E+00  0.000E+00  0.000E+00  4.36662E+01  1.776E-01  2.000E+01  2.000E+04 -1.635E-01
   1   16   12     1    12    1.4235E+05 -3.5917E+03   1.4594E+05  0.000E+00  0.000E+00  0.000E+00  4.31915E+01  1.801E-01  2.000E+01  2.000E+04 -1.796E-01
   1   15   13     1    13    1.4594E+05 -2.9742E+03   1.4892E+05  0.000E+00  0.000E+00  0.000E+00  4.27167E+01  1.826E-01  2.000E+01  2.000E+04 -1.487E-01
   1   14   14     1    14    1.4892E+05 -2.7453E+03   1.5166E+05  0.000E+00  0.000E+00  0.000E+00  4.22415E+01  1.847E-01  2.000E+01  2.000E+04 -1.373E-01
   1   13   15     1    15    1.5166E+05 -3.1423E+03   1.5480E+05  0.000E+00  0.000E+00  0.000E+00  4.17664E+01  1.869E-01  2.000E+01  2.000E+04 -1.571E-01
   1   12   16     1    16    1.5480E+05 -5.1667E+03   1.5997E+05  0.000E+00  0.000E+00  0.000E+00  4.12922E+01  1.899E-01  2.000E+01  2.000E+04 -2.583E-01
   1   12   17     1    17    1.5997E+05 -2.8668E+03   1.6284E+05  0.000E+00  0.000E+00  0.000E+00  4.08178E+01  1.928E-01  2.000E+01  2.000E+04 -1.433E-01
   1   12   18     1    18    1.6284E+05 -2.6882E+03   1.6553E+05  0.000E+00  0.000E+00  0.000E+00  4.03425E+01  1.948E-01  2.000E+01  2.000E+04 -1.344E-01
   1   12   19     1    19    1.6553E+05 -4.0460E+03   1.6957E+05  0.000E+00  0.000E+00  0.000E+00  3.98676E+01  1.972E-01  2.000E+01  2.000E+04 -2.023E-01
   1   13   20     1    20    1.6957E+05 -1.0109E+03   1.7058E+05  0.000E+00  0.000E+00  0.000E+00  3.93921E+01  1.989E-01  2.000E+01  2.000E+04 -5.055E-02
   1   14   21     1    21    1.7058E+05  2.2661E+03   1.6832E+05  0.000E+00  0.000E+00  0.000E+00  3.89144E+01  1.985E-01  2.000E+01  2.000E+04  1.133E-01
   1   14   22     1    22    1.6832E+05  5.6899E+03   1.6263E+05  0.000E+00  0.000E+00  0.000E+00  3.84343E+01  1.957E-01  2.000E+01  2.000E+04  2.845E-01
   1    9   30     2     1    5.0000E+04 -3.0431E+03   5.3043E+04  0.000E+00  0.000E+00  0.000E+00  4.02430E+01  1.180E-01  2.000E+01  2.000E+04 -1.522E-01
   1    9   29     2     2    5.3043E+04 -3.3730E+03   5.6416E+04  0.000E+00  0.000E+00  0.000E+00  3.99973E+01  1.223E-01  2.000E+01  2.000E+04 -1.687E-01
   1    9   28     2     3    5.6416E+04 -3.7528E+03   6.0169E+04  0.000E+00  0.000E+00  0.000E+00  3.97520E+01  1.270E-01  2.000E+01  2.000E+04 -1.876E-01
   1    9   27     2     4    6.0169E+04 -6.5734E+03   6.6742E+04  0.000E+00  0.000E+00  0.000E+00  3.95087E+01  1.337E-01  2.000E+01  2.000E+04 -3.287E-01
   1   10   26     2     5    6.6742E+04 -4.2126E+03   7.0955E+04  0.000E+00  0.000E+00  0.000E+00  3.92654E+01  1.404E-01  2.000E+01  2.000E+04 -2.106E-01
   1   11   25     2     6    7.0955E+04 -3.1476E+03   7.4103E+04  0.000E+00  0.000E+00  0.000E+00  3.90198E+01  1.448E-01  2.000E+01  2.000E+04 -1.574E-01
   1   12   24     2     7    7.4103E+04 -2.2492E+03   7.6352E+04  0.000E+00  0.000E+00  0.000E+00  3.87730E+01  1.480E-01  2.000E+01  2.000E+04 -1.125E-01
   1   13   23     2     8    7.6352E+04 -1.3096E+03   7.7661E+04  0.000E+00  0.000E+00  0.000E+00  3.85251E+01  1.501E-01  2.000E+01  2.000E+04 -6.548E-02
   1   14   22     2     9    7.7661E+04  2.4924E+03   7.5169E+04  0.000E+00  0.000E+00  0.000E+00  3.82744E+01  1.494E-01  2.000E+01  2.000E+04  1.246E-01
   1   14   22     3     1    2.3780E+05 -7.8088E+03   2.4561E+05  0.000E+00  0.000E+00  0.000E+00  3.77594E+01  2.038E-01  2.000E+01  2.000E+04 -3.904E-01
   1   15   23     3     2    2.4561E+05  1.5895E+03   2.4402E+05  0.000E+00  0.000E+00  0.000E+00  3.68721E+01  2.054E-01  2.000E+01  2.000E+04  7.947E-02
   1   15   24     3     3    2.4402E+05 -6.0391E+02   2.4462E+05  0.000E+00  0.000E+00  0.000E+00  3.59829E+01  2.052E-01  2.000E+01  2.000E+04 -3.020E-02
   1   15   25     3     4    2.4462E+05 -1.2373E+03   2.4586E+05  0.000E+00  0.000E+00  0.000E+00  3.50945E+01  2.056E-01  2.000E+01  2.000E+04 -6.186E-02
   1   15   26     3     5    2.4586E+05 -2.1227E+03   2.4798E+05  0.000E+00  0.000E+00  0.000E+00  3.42065E+01  2.065E-01  2.000E+01  2.000E+04 -1.061E-01
   1   16   27     3     6    2.4798E+05 -2.7724E+03   2.5075E+05  0.000E+00  0.000E+00  0.000E+00  3.33188E+01  2.077E-01  2.000E+01  2.000E+04 -1.386E-01
   1   17   28     3     7    2.5075E+05 -3.7653E+03   2.5452E+05  0.000E+00  0.000E+00  0.000E+00  3.24315E+01  2.093E-01  2.000E+01  2.000E+04 -1.883E-01
   1   18   29     3     8    2.5452E+05 -5.5590E+03   2.6008E+05  0.000E+00  0.000E+00  0.000E+00  3.15450E+01  2.116E-01  2.000E+01  2.000E+04 -2.779E-01
   1   18   30     3     9    2.6008E+05 -4.8703E+03   2.6495E+05  0.000E+00  0.000E+00  0.000E+00  3.06586E+01  2.142E-01  2.000E+01  2.000E+04 -2.435E-01



1
              HEAD IN LAYER   1 AT END OF TIME STEP   1 IN STRESS PERIOD    6
  ---------------------------------------------------------------------------

          1      2      3      4      5      6      7      8      9     10
         11     12     13     14     15     16     17     18     19     20
         21     22     23     24     25     26     27     28     29     30
 .........................................................................
   1  ****** ****** ****** ****** ****** ****** ****** ****** ****** ******
      ****** ****** ****** ****** ****** ****** ****** ****** ****** ******
      ****** ****** ****** ****** ****** ****** ****** ****** ****** ******
   2  ****** ****** ****** ****** ****** ****** ****** ****** ****** ******
      ****** ****** ****** ****** ****** ****** ****** ****** ****** ******
      ****** ****** ****** ****** ****** ****** ****** ****** ****** ******
   3  ****** ****** ****** ****** ****** ****** ****** ****** ****** ******
      ****** ****** ****** ****** ****** ****** ****** ****** ****** ******
      ****** ****** ****** ****** ****** ****** ****** ****** ****** ******
   4  ****** ****** ****** ****** ****** ****** ****** ****** ****** ******
      ****** ****** ****** ****** ****** ****** ****** ****** ****** ******
      ****** ****** ****** ****** ****** ****** ****** ****** ****** ******
   5  ****** ****** ****** ****** ****** ****** ****** ****** ****** ******
      ****** ****** ****** ****** ****** ****** ****** ****** ****** ******
      ****** ****** ****** ****** ****** ****** ****** ****** ****** ******
   6  ****** ****** ****** ****** ****** ****** ****** ****** ****** ******
      ****** ****** ****** ****** ****** ****** ****** ****** ****** ******
      ****** ****** ****** ****** ****** ****** ****** ****** ****** ******
   7  ****** ****** ****** ****** ****** ****** ****** ****** ****** ******
      ****** ****** ****** ****** ****** ****** ****** ****** ****** ******
      ****** ****** ****** ****** ****** ****** ****** ****** ****** ******
   8  ****** ****** ****** ****** ****** ****** ****** ****** ****** ******
      ****** ****** ****** ****** ****** ****** ****** ****** ****** ******
      ****** ****** ****** ****** ****** ****** ****** ****** ****** ******
   9  ****** ****** ****** ****** ****** ****** ****** ****** ****** ******
      ****** ****** ****** ****** ****** ****** ****** ****** ****** ******
      ****** ****** ****** ****** ****** ****** ****** ****** ****** ******
  10  ****** ****** ****** ****** ****** ****** ****** ****** ****** ******
      ****** ****** ****** ****** ****** ****** ****** ****** ****** ******
      ****** ****** ****** ****** ****** ****** ****** ****** ****** ******
  11  ****** ****** ****** ****** ****** ****** ****** ****** ****** ******
      ****** ****** ****** ****** ****** ****** ****** ****** ****** ******
      ****** ****** ****** ****** ****** ****** ****** ****** ****** ******
  12  ****** ****** ****** ****** ****** ****** ****** ****** ****** ******
      ****** ****** ****** ****** ****** ****** ****** ****** ****** ******
      ****** ****** ****** ****** ****** ****** ****** ****** ****** ******
  13  ****** ****** ****** ****** ****** ****** ****** ****** ****** ******
      ****** ****** ****** ****** ****** ****** ****** ****** ****** ******
      ****** ****** ****** ****** ****** ****** ****** ****** ****** ******
  14  ****** ****** ****** ****** ****** ****** ****** ****** ****** ******
      ****** ****** ****** ****** ****** ****** ****** ****** ****** ******
      ****** ****** ****** ****** ****** ****** ****** ****** ****** ******
  15  ****** ****** ****** ****** ****** ****** ****** ****** ****** ******
      ****** ****** ****** ****** ****** ****** ****** ****** ****** ******
      ****** ****** ****** ****** ****** ****** ****** ****** ****** ******
  16  ****** ****** ****** ****** ****** ****** ****** ****** ****** ******
      ****** ****** ****** ****** ****** ****** ****** ****** ****** ******
      ****** ****** ****** ****** ****** ****** ****** ****** ****** ******
  17  ****** ****** ****** ****** ****** ****** ****** ****** ****** ******
      ****** ****** ****** ****** ****** ****** ****** ****** ****** ******
      ****** ****** ****** ****** ****** ****** ****** ****** ****** ******
  18  ****** ****** ****** ****** ****** ****** ****** ****** ****** ******
      ****** ****** ****** ****** ****** ****** ****** ****** ****** ******
      ****** ****** ****** ****** ****** ****** ****** ****** ****** ******
  19  ****** ****** ****** ****** ****** ****** ****** ****** ****** ******
      ****** ****** ****** ****** ****** ****** ****** ****** ****** ******
      ****** ****** ****** ****** ****** ****** ****** ****** ****** ******
  20  ****** ****** ****** ****** ****** ****** ****** ****** ****** ******
      ****** ****** ****** ****** ****** ****** ****** ****** ****** ******
      ****** ****** ****** ****** ****** ****** ****** ****** ****** ******
  21  ****** ****** ****** ****** ****** ****** ****** ****** ****** ******
      ****** ****** ****** ****** ****** ****** ****** ****** ****** ******
      ****** ****** ****** ****** ****** ****** ****** ****** ****** ******
  22  ****** ****** ****** ****** ****** ****** ****** ****** ****** ******
      ****** ****** ****** ****** ****** ****** ****** ****** ****** ******
      ****** ****** ****** ****** ****** ****** ****** ****** ****** ******
  23  ****** ****** ****** ****** ****** ****** ****** ****** ****** ******
      ****** ****** ****** ****** ****** ****** ****** ****** ****** ******
      ****** ****** ****** ****** ****** ****** ****** ****** ****** ******
  24  ****** ****** ****** ****** ****** ****** ****** ****** ****** ******
      ****** ****** ****** ****** ****** ****** ****** ****** ****** ******
      ****** ****** ****** ****** ****** ****** ****** ****** ****** ******
  25  ****** ****** ****** ****** ****** ****** ****** ****** ****** ******
      ****** ****** ****** ****** ****** ****** ****** ****** ****** ******
      ****** ****** ****** ****** ****** ****** ****** ****** ****** ******

 HEAD WILL BE SAVED ON UNIT   51 AT END OF TIME STEP    1, STRESS PERIOD    6
1
  VOLUMETRIC BUDGET FOR ENTIRE MODEL AT END OF TIME STEP    1, STRESS PERIOD   6
  ------------------------------------------------------------------------------

     CUMULATIVE VOLUMES      L**3       RATES FOR THIS TIME STEP      L**3/T
     ------------------                 ------------------------

           IN:                                      IN:
           ---                                      ---
             STORAGE =    22162171.7984               STORAGE =           0.0000
       CONSTANT HEAD =    59638242.1788         CONSTANT HEAD =      112106.8812
               WELLS =           0.0000                 WELLS =           0.0000
            RECHARGE =    15097200.0000              RECHARGE =       55200.0000
      STREAM LEAKAGE =     6112314.0064        STREAM LEAKAGE =       12037.8990

            TOTAL IN =   103009927.9837              TOTAL IN =      179344.7803

          OUT:                                     OUT:
          ----                                     ----
             STORAGE =      948276.3033               STORAGE =       10113.5986
       CONSTANT HEAD =           0.0000         CONSTANT HEAD =           0.0000
               WELLS =    23151305.7159                 WELLS =       42246.9082
            RECHARGE =           0.0000              RECHARGE =           0.0000
      STREAM LEAKAGE =    78910346.5158        STREAM LEAKAGE =      126984.2718

           TOTAL OUT =   103009928.5351             TOTAL OUT =      179344.7786

            IN - OUT =          -0.5514              IN - OUT =       1.6666E-03

 PERCENT DISCREPANCY =          -0.00     PERCENT DISCREPANCY =           0.00






         TIME SUMMARY AT END OF TIME STEP    1 IN STRESS PERIOD    6
                    SECONDS     MINUTES      HOURS       DAYS        YEARS
                    -----------------------------------------------------------
   TIME STEP LENGTH 7.86240E+06 1.31040E+05  2184.0      91.000     0.24914    
 STRESS PERIOD TIME 7.86240E+06 1.31040E+05  2184.0      91.000     0.24914    
         TOTAL TIME 4.73472E+07 7.89120E+05  13152.      548.00      1.5003    
1
1
                            STRESS PERIOD NO.    7, LENGTH =   91.00000    
                            -----------------------------------------------

                              NUMBER OF TIME STEPS =     1

                               MULTIPLIER FOR DELT =     1.500

                            INITIAL TIME STEP SIZE =   91.00000    

 WELL NO.  LAYER   ROW   COL   STRESS RATE         
 --------------------------------------------------
      1      1     17     21     -0.3064E+05
      2      1     16     17     -0.1161E+05
      3      1     13     18       0.000    
      4      1     14     25       0.000    

      4 WELLS

                 RECHARGE =   0.00000    

 REUSING STREAM SEGMENT DATA FROM LAST STRESS PERIOD
 
 SOLVING FOR HEAD 


     7 CALLS TO PCG ROUTINE FOR TIME STEP   1 IN STRESS PERIOD    7
    26 TOTAL ITERATIONS

 OUTPUT CONTROL FOR STRESS PERIOD    7   TIME STEP    1
    SAVE BUDGET
    SAVE HEAD FOR ALL LAYERS
    PRINT HEAD FOR ALL LAYERS
 UBDSV2 SAVING "STREAMFLOW OUT  " ON UNIT  50 AT TIME STEP  1, STRESS PERIOD   7



 STREAM LISTING     PERIOD      7   STEP        1

 LAYER ROW COL. STREAM  RCH.  FLOW INTO     FLOW TO   FLOW OUT OF   OVRLND.     DIRECT     STREAM       STREAM     STREAM     STREAM   STREAMBED  STREAMBED
                SEG.NO.  NO.  STRM. RCH.    AQUIFER    STRM. RCH.    RUNOFF     PRECIP       ET          HEAD       DEPTH      WIDTH   CONDCTNC.   GRADIENT

   1   13    1     1     1    1.0000E+05 -2.6962E+03   1.0270E+05  0.000E+00  0.000E+00  0.000E+00  4.84072E+01  1.458E-01  2.000E+01  2.000E+04 -1.348E-01
   1   13    2     1     2    1.0270E+05 -4.5871E+03   1.0728E+05  0.000E+00  0.000E+00  0.000E+00  4.79330E+01  1.489E-01  2.000E+01  2.000E+04 -2.294E-01
   1   14    3     1     3    1.0728E+05 -3.6263E+03   1.1091E+05  0.000E+00  0.000E+00  0.000E+00  4.74592E+01  1.524E-01  2.000E+01  2.000E+04 -1.813E-01
   1   15    4     1     4    1.1091E+05 -3.5231E+03   1.1443E+05  0.000E+00  0.000E+00  0.000E+00  4.69849E+01  1.554E-01  2.000E+01  2.000E+04 -1.762E-01
   1   16    5     1     5    1.1443E+05 -3.8514E+03   1.1828E+05  0.000E+00  0.000E+00  0.000E+00  4.65107E+01  1.584E-01  2.000E+01  2.000E+04 -1.926E-01
   1   16    6     1     6    1.1828E+05 -3.0387E+03   1.2132E+05  0.000E+00  0.000E+00  0.000E+00  4.60362E+01  1.612E-01  2.000E+01  2.000E+04 -1.519E-01
   1   16    7     1     7    1.2132E+05 -3.0916E+03   1.2441E+05  0.000E+00  0.000E+00  0.000E+00  4.55614E+01  1.637E-01  2.000E+01  2.000E+04 -1.546E-01
   1   16    8     1     8    1.2441E+05 -3.1075E+03   1.2752E+05  0.000E+00  0.000E+00  0.000E+00  4.50866E+01  1.661E-01  2.000E+01  2.000E+04 -1.554E-01
   1   16    9     1     9    1.2752E+05 -3.0686E+03   1.3059E+05  0.000E+00  0.000E+00  0.000E+00  4.46118E+01  1.686E-01  2.000E+01  2.000E+04 -1.534E-01
   1   16   10     1    10    1.3059E+05 -2.9665E+03   1.3356E+05  0.000E+00  0.000E+00  0.000E+00  4.41368E+01  1.709E-01  2.000E+01  2.000E+04 -1.483E-01
   1   16   11     1    11    1.3356E+05 -2.7884E+03   1.3635E+05  0.000E+00  0.000E+00  0.000E+00  4.36618E+01  1.732E-01  2.000E+01  2.000E+04 -1.394E-01
   1   16   12     1    12    1.3635E+05 -2.9748E+03   1.3932E+05  0.000E+00  0.000E+00  0.000E+00  4.31867E+01  1.754E-01  2.000E+01  2.000E+04 -1.487E-01
   1   15   13     1    13    1.3932E+05 -2.3008E+03   1.4162E+05  0.000E+00  0.000E+00  0.000E+00  4.27115E+01  1.774E-01  2.000E+01  2.000E+04 -1.150E-01
   1   14   14     1    14    1.4162E+05 -2.0598E+03   1.4368E+05  0.000E+00  0.000E+00  0.000E+00  4.22358E+01  1.790E-01  2.000E+01  2.000E+04 -1.030E-01
   1   13   15     1    15    1.4368E+05 -2.4685E+03   1.4615E+05  0.000E+00  0.000E+00  0.000E+00  4.17603E+01  1.807E-01  2.000E+01  2.000E+04 -1.234E-01
   1   12   16     1    16    1.4615E+05 -4.5271E+03   1.5068E+05  0.000E+00  0.000E+00  0.000E+00  4.12856E+01  1.833E-01  2.000E+01  2.000E+04 -2.264E-01
   1   12   17     1    17    1.5068E+05 -2.3865E+03   1.5306E+05  0.000E+00  0.000E+00  0.000E+00  4.08109E+01  1.859E-01  2.000E+01  2.000E+04 -1.193E-01
   1   12   18     1    18    1.5306E+05 -2.2153E+03   1.5528E+05  0.000E+00  0.000E+00  0.000E+00  4.03353E+01  1.876E-01  2.000E+01  2.000E+04 -1.108E-01
   1   12   19     1    19    1.5528E+05 -3.4700E+03   1.5875E+05  0.000E+00  0.000E+00  0.000E+00  3.98601E+01  1.896E-01  2.000E+01  2.000E+04 -1.735E-01
   1   13   20     1    20    1.5875E+05 -4.4289E+02   1.5919E+05  0.000E+00  0.000E+00  0.000E+00  3.93842E+01  1.910E-01  2.000E+01  2.000E+04 -2.214E-02
   1   14   21     1    21    1.5919E+05  2.7861E+03   1.5641E+05  0.000E+00  0.000E+00  0.000E+00  3.89061E+01  1.902E-01  2.000E+01  2.000E+04  1.393E-01
   1   14   22     1    22    1.5641E+05  5.7895E+03   1.5062E+05  0.000E+00  0.000E+00  0.000E+00  3.84257E+01  1.871E-01  2.000E+01  2.000E+04  2.895E-01
   1    9   30     2     1    5.0000E+04 -2.6004E+03   5.2600E+04  0.000E+00  0.000E+00  0.000E+00  4.02427E+01  1.177E-01  2.000E+01  2.000E+04 -1.300E-01
   1    9   29     2     2    5.2600E+04 -2.9340E+03   5.5534E+04  0.000E+00  0.000E+00  0.000E+00  3.99964E+01  1.214E-01  2.000E+01  2.000E+04 -1.467E-01
   1    9   28     2     3    5.5534E+04 -3.3170E+03   5.8851E+04  0.000E+00  0.000E+00  0.000E+00  3.97506E+01  1.256E-01  2.000E+01  2.000E+04 -1.659E-01
   1    9   27     2     4    5.8851E+04 -5.9983E+03   6.4850E+04  0.000E+00  0.000E+00  0.000E+00  3.95066E+01  1.316E-01  2.000E+01  2.000E+04 -2.999E-01
   1   10   26     2     5    6.4850E+04 -3.6117E+03   6.8461E+04  0.000E+00  0.000E+00  0.000E+00  3.92627E+01  1.377E-01  2.000E+01  2.000E+04 -1.806E-01
   1   11   25     2     6    6.8461E+04 -2.5701E+03   7.1032E+04  0.000E+00  0.000E+00  0.000E+00  3.90165E+01  1.415E-01  2.000E+01  2.000E+04 -1.285E-01
   1   12   24     2     7    7.1032E+04 -1.7352E+03   7.2767E+04  0.000E+00  0.000E+00  0.000E+00  3.87691E+01  1.441E-01  2.000E+01  2.000E+04 -8.676E-02
   1   13   23     2     8    7.2767E+04 -9.0454E+02   7.3671E+04  0.000E+00  0.000E+00  0.000E+00  3.85207E+01  1.457E-01  2.000E+01  2.000E+04 -4.523E-02
   1   14   22     2     9    7.3671E+04  2.6675E+03   7.1004E+04  0.000E+00  0.000E+00  0.000E+00  3.82696E+01  1.446E-01  2.000E+01  2.000E+04  1.334E-01
   1   14   22     3     1    2.2162E+05 -7.7035E+03   2.2932E+05  0.000E+00  0.000E+00  0.000E+00  3.77511E+01  1.955E-01  2.000E+01  2.000E+04 -3.852E-01
   1   15   23     3     2    2.2932E+05  2.0752E+03   2.2725E+05  0.000E+00  0.000E+00  0.000E+00  3.68636E+01  1.970E-01  2.000E+01  2.000E+04  1.038E-01
   1   15   24     3     3    2.2725E+05 -2.4673E+02   2.2749E+05  0.000E+00  0.000E+00  0.000E+00  3.59743E+01  1.965E-01  2.000E+01  2.000E+04 -1.234E-02
   1   15   25     3     4    2.2749E+05 -8.7697E+02   2.2837E+05  0.000E+00  0.000E+00  0.000E+00  3.50857E+01  1.968E-01  2.000E+01  2.000E+04 -4.385E-02
   1   15   26     3     5    2.2837E+05 -1.6573E+03   2.3003E+05  0.000E+00  0.000E+00  0.000E+00  3.41974E+01  1.974E-01  2.000E+01  2.000E+04 -8.287E-02
   1   16   27     3     6    2.3003E+05 -2.1940E+03   2.3222E+05  0.000E+00  0.000E+00  0.000E+00  3.33095E+01  1.984E-01  2.000E+01  2.000E+04 -1.097E-01
   1   17   28     3     7    2.3222E+05 -3.1762E+03   2.3540E+05  0.000E+00  0.000E+00  0.000E+00  3.24220E+01  1.998E-01  2.000E+01  2.000E+04 -1.588E-01
   1   18   29     3     8    2.3540E+05 -5.0094E+03   2.4041E+05  0.000E+00  0.000E+00  0.000E+00  3.15352E+01  2.019E-01  2.000E+01  2.000E+04 -2.505E-01
   1   18   30     3     9    2.4041E+05 -4.4518E+03   2.4486E+05  0.000E+00  0.000E+00  0.000E+00  3.06487E+01  2.043E-01  2.000E+01  2.000E+04 -2.226E-01



1
              HEAD IN LAYER   1 AT END OF TIME STEP   1 IN STRESS PERIOD    7
  ---------------------------------------------------------------------------

          1      2      3      4      5      6      7      8      9     10
         11     12     13     14     15     16     17     18     19     20
         21     22     23     24     25     26     27     28     29     30
 .........................................................................
   1  ****** ****** ****** ****** ****** ****** ****** ****** ****** ******
      ****** ****** ****** ****** ****** ****** ****** ****** ****** ******
      ****** ****** ****** ****** ****** ****** ****** ****** ****** ******
   2  ****** ****** ****** ****** ****** ****** ****** ****** ****** ******
      ****** ****** ****** ****** ****** ****** ****** ****** ****** ******
      ****** ****** ****** ****** ****** ****** ****** ****** ****** ******
   3  ****** ****** ****** ****** ****** ****** ****** ****** ****** ******
      ****** ****** ****** ****** ****** ****** ****** ****** ****** ******
      ****** ****** ****** ****** ****** ****** ****** ****** ****** ******
   4  ****** ****** ****** ****** ****** ****** ****** ****** ****** ******
      ****** ****** ****** ****** ****** ****** ****** ****** ****** ******
      ****** ****** ****** ****** ****** ****** ****** ****** ****** ******
   5  ****** ****** ****** ****** ****** ****** ****** ****** ****** ******
      ****** ****** ****** ****** ****** ****** ****** ****** ****** ******
      ****** ****** ****** ****** ****** ****** ****** ****** ****** ******
   6  ****** ****** ****** ****** ****** ****** ****** ****** ****** ******
      ****** ****** ****** ****** ****** ****** ****** ****** ****** ******
      ****** ****** ****** ****** ****** ****** ****** ****** ****** ******
   7  ****** ****** ****** ****** ****** ****** ****** ****** ****** ******
      ****** ****** ****** ****** ****** ****** ****** ****** ****** ******
      ****** ****** ****** ****** ****** ****** ****** ****** ****** ******
   8  ****** ****** ****** ****** ****** ****** ****** ****** ****** ******
      ****** ****** ****** ****** ****** ****** ****** ****** ****** ******
      ****** ****** ****** ****** ****** ****** ****** ****** ****** ******
   9  ****** ****** ****** ****** ****** ****** ****** ****** ****** ******
      ****** ****** ****** ****** ****** ****** ****** ****** ****** ******
      ****** ****** ****** ****** ****** ****** ****** ****** ****** ******
  10  ****** ****** ****** ****** ****** ****** ****** ****** ****** ******
      ****** ****** ****** ****** ****** ****** ****** ****** ****** ******
      ****** ****** ****** ****** ****** ****** ****** ****** ****** ******
  11  ****** ****** ****** ****** ****** ****** ****** ****** ****** ******
      ****** ****** ****** ****** ****** ****** ****** ****** ****** ******
      ****** ****** ****** ****** ****** ****** ****** ****** ****** ******
  12  ****** ****** ****** ****** ****** ****** ****** ****** ****** ******
      ****** ****** ****** ****** ****** ****** ****** ****** ****** ******
      ****** ****** ****** ****** ****** ****** ****** ****** ****** ******
  13  ****** ****** ****** ****** ****** ****** ****** ****** ****** ******
      ****** ****** ****** ****** ****** ****** ****** ****** ****** ******
      ****** ****** ****** ****** ****** ****** ****** ****** ****** ******
  14  ****** ****** ****** ****** ****** ****** ****** ****** ****** ******
      ****** ****** ****** ****** ****** ****** ****** ****** ****** ******
      ****** ****** ****** ****** ****** ****** ****** ****** ****** ******
  15  ****** ****** ****** ****** ****** ****** ****** ****** ****** ******
      ****** ****** ****** ****** ****** ****** ****** ****** ****** ******
      ****** ****** ****** ****** ****** ****** ****** ****** ****** ******
  16  ****** ****** ****** ****** ****** ****** ****** ****** ****** ******
      ****** ****** ****** ****** ****** ****** ****** ****** ****** ******
      ****** ****** ****** ****** ****** ****** ****** ****** ****** ******
  17  ****** ****** ****** ****** ****** ****** ****** ****** ****** ******
      ****** ****** ****** ****** ****** ****** ****** ****** ****** ******
      ****** ****** ****** ****** ****** ****** ****** ****** ****** ******
  18  ****** ****** ****** ****** ****** ****** ****** ****** ****** ******
      ****** ****** ****** ****** ****** ****** ****** ****** ****** ******
      ****** ****** ****** ****** ****** ****** ****** ****** ****** ******
  19  ****** ****** ****** ****** ****** ****** ****** ****** ****** ******
      ****** ****** ****** ****** ****** ****** ****** ****** ****** ******
      ****** ****** ****** ****** ****** ****** ****** ****** ****** ******
  20  ****** ****** ****** ****** ****** ****** ****** ****** ****** ******
      ****** ****** ****** ****** ****** ****** ****** ****** ****** ******
      ****** ****** ****** ****** ****** ****** ****** ****** ****** ******
  21  ****** ****** ****** ****** ****** ****** ****** ****** ****** ******
      ****** ****** ****** ****** ****** ****** ****** ****** ****** ******
      ****** ****** ****** ****** ****** ****** ****** ****** ****** ******
  22  ****** ****** ****** ****** ****** ****** ****** ****** ****** ******
      ****** ****** ****** ****** ****** ****** ****** ****** ****** ******
      ****** ****** ****** ****** ****** ****** ****** ****** ****** ******
  23  ****** ****** ****** ****** ****** ****** ****** ****** ****** ******
      ****** ****** ****** ****** ****** ****** ****** ****** ****** ******
      ****** ****** ****** ****** ****** ****** ****** ****** ****** ******
  24  ****** ****** ****** ****** ****** ****** ****** ****** ****** ******
      ****** ****** ****** ****** ****** ****** ****** ****** ****** ******
      ****** ****** ****** ****** ****** ****** ****** ****** ****** ******
  25  ****** ****** ****** ****** ****** ****** ****** ****** ****** ******
      ****** ****** ****** ****** ****** ****** ****** ****** ****** ******
      ****** ****** ****** ****** ****** ****** ****** ****** ****** ******

 HEAD WILL BE SAVED ON UNIT   51 AT END OF TIME STEP    1, STRESS PERIOD    7
1
  VOLUMETRIC BUDGET FOR ENTIRE MODEL AT END OF TIME STEP    1, STRESS PERIOD   7
  ------------------------------------------------------------------------------

     CUMULATIVE VOLUMES      L**3       RATES FOR THIS TIME STEP      L**3/T
     ------------------                 ------------------------

           IN:                                      IN:
           ---                                      ---
             STORAGE =    23263187.1377               STORAGE =       12099.0697
       CONSTANT HEAD =    71013940.7704         CONSTANT HEAD =      125007.6768
               WELLS =           0.0000                 WELLS =           0.0000
            RECHARGE =    15097200.0000              RECHARGE =           0.0000
      STREAM LEAKAGE =     7324279.9279        STREAM LEAKAGE =       13318.3068

            TOTAL IN =   116698607.8360              TOTAL IN =      150425.0533

          OUT:                                     OUT:
          ----                                     ----
             STORAGE =      948276.3033               STORAGE =           0.0000
       CONSTANT HEAD =           0.0000         CONSTANT HEAD =           0.0000
               WELLS =    26995774.3659                 WELLS =       42246.9082
            RECHARGE =           0.0000              RECHARGE =           0.0000
      STREAM LEAKAGE =    88754557.9164        STREAM LEAKAGE =      108178.1473

           TOTAL OUT =   116698608.5855             TOTAL OUT =      150425.0555

            IN - OUT =          -0.7495              IN - OUT =      -2.1768E-03

 PERCENT DISCREPANCY =          -0.00     PERCENT DISCREPANCY =          -0.00






         TIME SUMMARY AT END OF TIME STEP    1 IN STRESS PERIOD    7
                    SECONDS     MINUTES      HOURS       DAYS        YEARS
                    -----------------------------------------------------------
   TIME STEP LENGTH 7.86240E+06 1.31040E+05  2184.0      91.000     0.24914    
 STRESS PERIOD TIME 7.86240E+06 1.31040E+05  2184.0      91.000     0.24914    
         TOTAL TIME 5.52096E+07 9.20160E+05  15336.      639.00      1.7495    
1
1
                            STRESS PERIOD NO.    8, LENGTH =   91.00000    
                            -----------------------------------------------

                              NUMBER OF TIME STEPS =     1

                               MULTIPLIER FOR DELT =     1.500

                            INITIAL TIME STEP SIZE =   91.00000    

 WELL NO.  LAYER   ROW   COL   STRESS RATE         
 --------------------------------------------------
      1      1     17     21     -0.3064E+05
      2      1     16     17     -0.1161E+05
      3      1     13     18       0.000    
      4      1     14     25       0.000    

      4 WELLS

                 RECHARGE =  1.000000E-03

 REUSING STREAM SEGMENT DATA FROM LAST STRESS PERIOD
 
 SOLVING FOR HEAD 


     6 CALLS TO PCG ROUTINE FOR TIME STEP   1 IN STRESS PERIOD    8
    23 TOTAL ITERATIONS

 OUTPUT CONTROL FOR STRESS PERIOD    8   TIME STEP    1
    SAVE BUDGET
    SAVE HEAD FOR ALL LAYERS
    PRINT HEAD FOR ALL LAYERS
 UBDSV2 SAVING "STREAMFLOW OUT  " ON UNIT  50 AT TIME STEP  1, STRESS PERIOD   8



 STREAM LISTING     PERIOD      8   STEP        1

 LAYER ROW COL. STREAM  RCH.  FLOW INTO     FLOW TO   FLOW OUT OF   OVRLND.     DIRECT     STREAM       STREAM     STREAM     STREAM   STREAMBED  STREAMBED
                SEG.NO.  NO.  STRM. RCH.    AQUIFER    STRM. RCH.    RUNOFF     PRECIP       ET          HEAD       DEPTH      WIDTH   CONDCTNC.   GRADIENT

   1   13    1     1     1    1.0000E+05 -2.8656E+03   1.0287E+05  0.000E+00  0.000E+00  0.000E+00  4.84073E+01  1.459E-01  2.000E+01  2.000E+04 -1.433E-01
   1   13    2     1     2    1.0287E+05 -4.7986E+03   1.0766E+05  0.000E+00  0.000E+00  0.000E+00  4.79333E+01  1.492E-01  2.000E+01  2.000E+04 -2.399E-01
   1   14    3     1     3    1.0766E+05 -3.8608E+03   1.1152E+05  0.000E+00  0.000E+00  0.000E+00  4.74596E+01  1.528E-01  2.000E+01  2.000E+04 -1.930E-01
   1   15    4     1     4    1.1152E+05 -3.7606E+03   1.1529E+05  0.000E+00  0.000E+00  0.000E+00  4.69855E+01  1.560E-01  2.000E+01  2.000E+04 -1.880E-01
   1   16    5     1     5    1.1529E+05 -4.0717E+03   1.1936E+05  0.000E+00  0.000E+00  0.000E+00  4.65115E+01  1.592E-01  2.000E+01  2.000E+04 -2.036E-01
   1   16    6     1     6    1.1936E+05 -3.2136E+03   1.2257E+05  0.000E+00  0.000E+00  0.000E+00  4.60372E+01  1.622E-01  2.000E+01  2.000E+04 -1.607E-01
   1   16    7     1     7    1.2257E+05 -3.2681E+03   1.2584E+05  0.000E+00  0.000E+00  0.000E+00  4.55625E+01  1.647E-01  2.000E+01  2.000E+04 -1.634E-01
   1   16    8     1     8    1.2584E+05 -3.2850E+03   1.2912E+05  0.000E+00  0.000E+00  0.000E+00  4.50878E+01  1.673E-01  2.000E+01  2.000E+04 -1.643E-01
   1   16    9     1     9    1.2912E+05 -3.2460E+03   1.3237E+05  0.000E+00  0.000E+00  0.000E+00  4.46131E+01  1.699E-01  2.000E+01  2.000E+04 -1.623E-01
   1   16   10     1    10    1.3237E+05 -3.1428E+03   1.3551E+05  0.000E+00  0.000E+00  0.000E+00  4.41383E+01  1.724E-01  2.000E+01  2.000E+04 -1.571E-01
   1   16   11     1    11    1.3551E+05 -2.9630E+03   1.3848E+05  0.000E+00  0.000E+00  0.000E+00  4.36634E+01  1.747E-01  2.000E+01  2.000E+04 -1.482E-01
   1   16   12     1    12    1.3848E+05 -3.1950E+03   1.4167E+05  0.000E+00  0.000E+00  0.000E+00  4.31884E+01  1.771E-01  2.000E+01  2.000E+04 -1.598E-01
   1   15   13     1    13    1.4167E+05 -2.5405E+03   1.4421E+05  0.000E+00  0.000E+00  0.000E+00  4.27133E+01  1.792E-01  2.000E+01  2.000E+04 -1.270E-01
   1   14   14     1    14    1.4421E+05 -2.3017E+03   1.4651E+05  0.000E+00  0.000E+00  0.000E+00  4.22379E+01  1.810E-01  2.000E+01  2.000E+04 -1.151E-01
   1   13   15     1    15    1.4651E+05 -2.7047E+03   1.4922E+05  0.000E+00  0.000E+00  0.000E+00  4.17625E+01  1.829E-01  2.000E+01  2.000E+04 -1.352E-01
   1   12   16     1    16    1.4922E+05 -4.7418E+03   1.5396E+05  0.000E+00  0.000E+00  0.000E+00  4.12879E+01  1.857E-01  2.000E+01  2.000E+04 -2.371E-01
   1   12   17     1    17    1.5396E+05 -2.5576E+03   1.5652E+05  0.000E+00  0.000E+00  0.000E+00  4.08133E+01  1.883E-01  2.000E+01  2.000E+04 -1.279E-01
   1   12   18     1    18    1.5652E+05 -2.3863E+03   1.5890E+05  0.000E+00  0.000E+00  0.000E+00  4.03379E+01  1.901E-01  2.000E+01  2.000E+04 -1.193E-01
   1   12   19     1    19    1.5890E+05 -3.6788E+03   1.6258E+05  0.000E+00  0.000E+00  0.000E+00  3.98628E+01  1.923E-01  2.000E+01  2.000E+04 -1.839E-01
   1   13   20     1    20    1.6258E+05 -6.6001E+02   1.6324E+05  0.000E+00  0.000E+00  0.000E+00  3.93870E+01  1.939E-01  2.000E+01  2.000E+04 -3.300E-02
   1   14   21     1    21    1.6324E+05  2.5907E+03   1.6065E+05  0.000E+00  0.000E+00  0.000E+00  3.89091E+01  1.932E-01  2.000E+01  2.000E+04  1.295E-01
   1   14   22     1    22    1.6065E+05  5.7462E+03   1.5491E+05  0.000E+00  0.000E+00  0.000E+00  3.84288E+01  1.902E-01  2.000E+01  2.000E+04  2.873E-01
   1    9   30     2     1    5.0000E+04 -2.7794E+03   5.2779E+04  0.000E+00  0.000E+00  0.000E+00  4.02428E+01  1.178E-01  2.000E+01  2.000E+04 -1.390E-01
   1    9   29     2     2    5.2779E+04 -3.1112E+03   5.5891E+04  0.000E+00  0.000E+00  0.000E+00  3.99968E+01  1.218E-01  2.000E+01  2.000E+04 -1.556E-01
   1    9   28     2     3    5.5891E+04 -3.4916E+03   5.9382E+04  0.000E+00  0.000E+00  0.000E+00  3.97512E+01  1.262E-01  2.000E+01  2.000E+04 -1.746E-01
   1    9   27     2     4    5.9382E+04 -6.2177E+03   6.5600E+04  0.000E+00  0.000E+00  0.000E+00  3.95075E+01  1.325E-01  2.000E+01  2.000E+04 -3.109E-01
   1   10   26     2     5    6.5600E+04 -3.8481E+03   6.9448E+04  0.000E+00  0.000E+00  0.000E+00  3.92638E+01  1.388E-01  2.000E+01  2.000E+04 -1.924E-01
   1   11   25     2     6    6.9448E+04 -2.8000E+03   7.2248E+04  0.000E+00  0.000E+00  0.000E+00  3.90178E+01  1.428E-01  2.000E+01  2.000E+04 -1.400E-01
   1   12   24     2     7    7.2248E+04 -1.9439E+03   7.4192E+04  0.000E+00  0.000E+00  0.000E+00  3.87707E+01  1.457E-01  2.000E+01  2.000E+04 -9.720E-02
   1   13   23     2     8    7.4192E+04 -1.0742E+03   7.5266E+04  0.000E+00  0.000E+00  0.000E+00  3.85225E+01  1.475E-01  2.000E+01  2.000E+04 -5.371E-02
   1   14   22     2     9    7.5266E+04  2.6010E+03   7.2665E+04  0.000E+00  0.000E+00  0.000E+00  3.82716E+01  1.466E-01  2.000E+01  2.000E+04  1.301E-01
   1   14   22     3     1    2.2757E+05 -7.7470E+03   2.3532E+05  0.000E+00  0.000E+00  0.000E+00  3.77542E+01  1.986E-01  2.000E+01  2.000E+04 -3.874E-01
   1   15   23     3     2    2.3532E+05  1.8919E+03   2.3343E+05  0.000E+00  0.000E+00  0.000E+00  3.68668E+01  2.001E-01  2.000E+01  2.000E+04  9.460E-02
   1   15   24     3     3    2.3343E+05 -3.9048E+02   2.3382E+05  0.000E+00  0.000E+00  0.000E+00  3.59775E+01  1.997E-01  2.000E+01  2.000E+04 -1.952E-02
   1   15   25     3     4    2.3382E+05 -1.0256E+03   2.3484E+05  0.000E+00  0.000E+00  0.000E+00  3.50890E+01  2.001E-01  2.000E+01  2.000E+04 -5.128E-02
   1   15   26     3     5    2.3484E+05 -1.8519E+03   2.3669E+05  0.000E+00  0.000E+00  0.000E+00  3.42008E+01  2.008E-01  2.000E+01  2.000E+04 -9.260E-02
   1   16   27     3     6    2.3669E+05 -2.4277E+03   2.3912E+05  0.000E+00  0.000E+00  0.000E+00  3.33130E+01  2.019E-01  2.000E+01  2.000E+04 -1.214E-01
   1   17   28     3     7    2.3912E+05 -3.4124E+03   2.4253E+05  0.000E+00  0.000E+00  0.000E+00  3.24256E+01  2.034E-01  2.000E+01  2.000E+04 -1.706E-01
   1   18   29     3     8    2.4253E+05 -5.2253E+03   2.4776E+05  0.000E+00  0.000E+00  0.000E+00  3.15389E+01  2.056E-01  2.000E+01  2.000E+04 -2.613E-01
   1   18   30     3     9    2.4776E+05 -4.6222E+03   2.5238E+05  0.000E+00  0.000E+00  0.000E+00  3.06525E+01  2.080E-01  2.000E+01  2.000E+04 -2.311E-01



1
              HEAD IN LAYER   1 AT END OF TIME STEP   1 IN STRESS PERIOD    8
  ---------------------------------------------------------------------------

          1      2      3      4      5      6      7      8      9     10
         11     12     13     14     15     16     17     18     19     20
         21     22     23     24     25     26     27     28     29     30
 .........................................................................
   1  ****** ****** ****** ****** ****** ****** ****** ****** ****** ******
      ****** ****** ****** ****** ****** ****** ****** ****** ****** ******
      ****** ****** ****** ****** ****** ****** ****** ****** ****** ******
   2  ****** ****** ****** ****** ****** ****** ****** ****** ****** ******
      ****** ****** ****** ****** ****** ****** ****** ****** ****** ******
      ****** ****** ****** ****** ****** ****** ****** ****** ****** ******
   3  ****** ****** ****** ****** ****** ****** ****** ****** ****** ******
      ****** ****** ****** ****** ****** ****** ****** ****** ****** ******
      ****** ****** ****** ****** ****** ****** ****** ****** ****** ******
   4  ****** ****** ****** ****** ****** ****** ****** ****** ****** ******
      ****** ****** ****** ****** ****** ****** ****** ****** ****** ******
      ****** ****** ****** ****** ****** ****** ****** ****** ****** ******
   5  ****** ****** ****** ****** ****** ****** ****** ****** ****** ******
      ****** ****** ****** ****** ****** ****** ****** ****** ****** ******
      ****** ****** ****** ****** ****** ****** ****** ****** ****** ******
   6  ****** ****** ****** ****** ****** ****** ****** ****** ****** ******
      ****** ****** ****** ****** ****** ****** ****** ****** ****** ******
      ****** ****** ****** ****** ****** ****** ****** ****** ****** ******
   7  ****** ****** ****** ****** ****** ****** ****** ****** ****** ******
      ****** ****** ****** ****** ****** ****** ****** ****** ****** ******
      ****** ****** ****** ****** ****** ****** ****** ****** ****** ******
   8  ****** ****** ****** ****** ****** ****** ****** ****** ****** ******
      ****** ****** ****** ****** ****** ****** ****** ****** ****** ******
      ****** ****** ****** ****** ****** ****** ****** ****** ****** ******
   9  ****** ****** ****** ****** ****** ****** ****** ****** ****** ******
      ****** ****** ****** ****** ****** ****** ****** ****** ****** ******
      ****** ****** ****** ****** ****** ****** ****** ****** ****** ******
  10  ****** ****** ****** ****** ****** ****** ****** ****** ****** ******
      ****** ****** ****** ****** ****** ****** ****** ****** ****** ******
      ****** ****** ****** ****** ****** ****** ****** ****** ****** ******
  11  ****** ****** ****** ****** ****** ****** ****** ****** ****** ******
      ****** ****** ****** ****** ****** ****** ****** ****** ****** ******
      ****** ****** ****** ****** ****** ****** ****** ****** ****** ******
  12  ****** ****** ****** ****** ****** ****** ****** ****** ****** ******
      ****** ****** ****** ****** ****** ****** ****** ****** ****** ******
      ****** ****** ****** ****** ****** ****** ****** ****** ****** ******
  13  ****** ****** ****** ****** ****** ****** ****** ****** ****** ******
      ****** ****** ****** ****** ****** ****** ****** ****** ****** ******
      ****** ****** ****** ****** ****** ****** ****** ****** ****** ******
  14  ****** ****** ****** ****** ****** ****** ****** ****** ****** ******
      ****** ****** ****** ****** ****** ****** ****** ****** ****** ******
      ****** ****** ****** ****** ****** ****** ****** ****** ****** ******
  15  ****** ****** ****** ****** ****** ****** ****** ****** ****** ******
      ****** ****** ****** ****** ****** ****** ****** ****** ****** ******
      ****** ****** ****** ****** ****** ****** ****** ****** ****** ******
  16  ****** ****** ****** ****** ****** ****** ****** ****** ****** ******
      ****** ****** ****** ****** ****** ****** ****** ****** ****** ******
      ****** ****** ****** ****** ****** ****** ****** ****** ****** ******
  17  ****** ****** ****** ****** ****** ****** ****** ****** ****** ******
      ****** ****** ****** ****** ****** ****** ****** ****** ****** ******
      ****** ****** ****** ****** ****** ****** ****** ****** ****** ******
  18  ****** ****** ****** ****** ****** ****** ****** ****** ****** ******
      ****** ****** ****** ****** ****** ****** ****** ****** ****** ******
      ****** ****** ****** ****** ****** ****** ****** ****** ****** ******
  19  ****** ****** ****** ****** ****** ****** ****** ****** ****** ******
      ****** ****** ****** ****** ****** ****** ****** ****** ****** ******
      ****** ****** ****** ****** ****** ****** ****** ****** ****** ******
  20  ****** ****** ****** ****** ****** ****** ****** ****** ****** ******
      ****** ****** ****** ****** ****** ****** ****** ****** ****** ******
      ****** ****** ****** ****** ****** ****** ****** ****** ****** ******
  21  ****** ****** ****** ****** ****** ****** ****** ****** ****** ******
      ****** ****** ****** ****** ****** ****** ****** ****** ****** ******
      ****** ****** ****** ****** ****** ****** ****** ****** ****** ******
  22  ****** ****** ****** ****** ****** ****** ****** ****** ****** ******
      ****** ****** ****** ****** ****** ****** ****** ****** ****** ******
      ****** ****** ****** ****** ****** ****** ****** ****** ****** ******
  23  ****** ****** ****** ****** ****** ****** ****** ****** ****** ******
      ****** ****** ****** ****** ****** ****** ****** ****** ****** ******
      ****** ****** ****** ****** ****** ****** ****** ****** ****** ******
  24  ****** ****** ****** ****** ****** ****** ****** ****** ****** ******
      ****** ****** ****** ****** ****** ****** ****** ****** ****** ******
      ****** ****** ****** ****** ****** ****** ****** ****** ****** ******
  25  ****** ****** ****** ****** ****** ****** ****** ****** ****** ******
      ****** ****** ****** ****** ****** ****** ****** ****** ****** ******
      ****** ****** ****** ****** ****** ****** ****** ****** ****** ******

 HEAD WILL BE SAVED ON UNIT   51 AT END OF TIME STEP    1, STRESS PERIOD    8
1
  VOLUMETRIC BUDGET FOR ENTIRE MODEL AT END OF TIME STEP    1, STRESS PERIOD   8
  ------------------------------------------------------------------------------

     CUMULATIVE VOLUMES      L**3       RATES FOR THIS TIME STEP      L**3/T
     ------------------                 ------------------------

           IN:                                      IN:
           ---                                      ---
             STORAGE =    23263187.1377               STORAGE =           0.0000
       CONSTANT HEAD =    81994292.9105         CONSTANT HEAD =      120663.2103
               WELLS =           0.0000                 WELLS =           0.0000
            RECHARGE =    17608800.0000              RECHARGE =       27600.0000
      STREAM LEAKAGE =     8491797.7523        STREAM LEAKAGE =       12829.8662

            TOTAL IN =   131358077.8006              TOTAL IN =      161093.0765

          OUT:                                     OUT:
          ----                                     ----
             STORAGE =     1279089.9013               STORAGE =        3635.3143
       CONSTANT HEAD =           0.0000         CONSTANT HEAD =           0.0000
               WELLS =    30840243.0158                 WELLS =       42246.9082
            RECHARGE =           0.0000              RECHARGE =           0.0000
      STREAM LEAKAGE =    99238745.5574        STREAM LEAKAGE =      115210.8532

           TOTAL OUT =   131358078.4744             TOTAL OUT =      161093.0757

            IN - OUT =          -0.6738              IN - OUT =       8.3175E-04

 PERCENT DISCREPANCY =          -0.00     PERCENT DISCREPANCY =           0.00






         TIME SUMMARY AT END OF TIME STEP    1 IN STRESS PERIOD    8
                    SECONDS     MINUTES      HOURS       DAYS        YEARS
                    -----------------------------------------------------------
   TIME STEP LENGTH 7.86240E+06 1.31040E+05  2184.0      91.000     0.24914    
 STRESS PERIOD TIME 7.86240E+06 1.31040E+05  2184.0      91.000     0.24914    
         TOTAL TIME 6.30720E+07 1.05120E+06  17520.      730.00      1.9986    
1
1
                            STRESS PERIOD NO.    9, LENGTH =   92.00000    
                            -----------------------------------------------

                              NUMBER OF TIME STEPS =     1

                               MULTIPLIER FOR DELT =     1.500

                            INITIAL TIME STEP SIZE =   92.00000    

 WELL NO.  LAYER   ROW   COL   STRESS RATE         
 --------------------------------------------------
      1      1     17     21     -0.3064E+05
      2      1     16     17     -0.1161E+05
      3      1     13     18       0.000    
      4      1     14     25       0.000    

      4 WELLS

                 RECHARGE =  5.000000E-04

 REUSING STREAM SEGMENT DATA FROM LAST STRESS PERIOD
 
 SOLVING FOR HEAD 


     6 CALLS TO PCG ROUTINE FOR TIME STEP   1 IN STRESS PERIOD    9
    22 TOTAL ITERATIONS

 OUTPUT CONTROL FOR STRESS PERIOD    9   TIME STEP    1
    SAVE BUDGET
    SAVE HEAD FOR ALL LAYERS
    PRINT HEAD FOR ALL LAYERS
 UBDSV2 SAVING "STREAMFLOW OUT  " ON UNIT  50 AT TIME STEP  1, STRESS PERIOD   9



 STREAM LISTING     PERIOD      9   STEP        1

 LAYER ROW COL. STREAM  RCH.  FLOW INTO     FLOW TO   FLOW OUT OF   OVRLND.     DIRECT     STREAM       STREAM     STREAM     STREAM   STREAMBED  STREAMBED
                SEG.NO.  NO.  STRM. RCH.    AQUIFER    STRM. RCH.    RUNOFF     PRECIP       ET          HEAD       DEPTH      WIDTH   CONDCTNC.   GRADIENT

   1   13    1     1     1    1.0000E+05 -2.7500E+03   1.0275E+05  0.000E+00  0.000E+00  0.000E+00  4.84072E+01  1.458E-01  2.000E+01  2.000E+04 -1.375E-01
   1   13    2     1     2    1.0275E+05 -4.6466E+03   1.0740E+05  0.000E+00  0.000E+00  0.000E+00  4.79331E+01  1.490E-01  2.000E+01  2.000E+04 -2.323E-01
   1   14    3     1     3    1.0740E+05 -3.7065E+03   1.1110E+05  0.000E+00  0.000E+00  0.000E+00  4.74594E+01  1.525E-01  2.000E+01  2.000E+04 -1.853E-01
   1   15    4     1     4    1.1110E+05 -3.6088E+03   1.1471E+05  0.000E+00  0.000E+00  0.000E+00  4.69851E+01  1.556E-01  2.000E+01  2.000E+04 -1.804E-01
   1   16    5     1     5    1.1471E+05 -3.9343E+03   1.1865E+05  0.000E+00  0.000E+00  0.000E+00  4.65110E+01  1.587E-01  2.000E+01  2.000E+04 -1.967E-01
   1   16    6     1     6    1.1865E+05 -3.1032E+03   1.2175E+05  0.000E+00  0.000E+00  0.000E+00  4.60365E+01  1.615E-01  2.000E+01  2.000E+04 -1.552E-01
   1   16    7     1     7    1.2175E+05 -3.1558E+03   1.2491E+05  0.000E+00  0.000E+00  0.000E+00  4.55618E+01  1.640E-01  2.000E+01  2.000E+04 -1.578E-01
   1   16    8     1     8    1.2491E+05 -3.1717E+03   1.2808E+05  0.000E+00  0.000E+00  0.000E+00  4.50870E+01  1.666E-01  2.000E+01  2.000E+04 -1.586E-01
   1   16    9     1     9    1.2808E+05 -3.1328E+03   1.3121E+05  0.000E+00  0.000E+00  0.000E+00  4.46122E+01  1.690E-01  2.000E+01  2.000E+04 -1.566E-01
   1   16   10     1    10    1.3121E+05 -3.0306E+03   1.3424E+05  0.000E+00  0.000E+00  0.000E+00  4.41373E+01  1.714E-01  2.000E+01  2.000E+04 -1.515E-01
   1   16   11     1    11    1.3424E+05 -2.8526E+03   1.3709E+05  0.000E+00  0.000E+00  0.000E+00  4.36623E+01  1.737E-01  2.000E+01  2.000E+04 -1.426E-01
   1   16   12     1    12    1.3709E+05 -3.0556E+03   1.4015E+05  0.000E+00  0.000E+00  0.000E+00  4.31873E+01  1.760E-01  2.000E+01  2.000E+04 -1.528E-01
   1   15   13     1    13    1.4015E+05 -2.3864E+03   1.4254E+05  0.000E+00  0.000E+00  0.000E+00  4.27121E+01  1.780E-01  2.000E+01  2.000E+04 -1.193E-01
   1   14   14     1    14    1.4254E+05 -2.1444E+03   1.4468E+05  0.000E+00  0.000E+00  0.000E+00  4.22366E+01  1.797E-01  2.000E+01  2.000E+04 -1.072E-01
   1   13   15     1    15    1.4468E+05 -2.5494E+03   1.4723E+05  0.000E+00  0.000E+00  0.000E+00  4.17610E+01  1.815E-01  2.000E+01  2.000E+04 -1.275E-01
   1   12   16     1    16    1.4723E+05 -4.5941E+03   1.5182E+05  0.000E+00  0.000E+00  0.000E+00  4.12864E+01  1.841E-01  2.000E+01  2.000E+04 -2.297E-01
   1   12   17     1    17    1.5182E+05 -2.4471E+03   1.5427E+05  0.000E+00  0.000E+00  0.000E+00  4.08117E+01  1.867E-01  2.000E+01  2.000E+04 -1.224E-01
   1   12   18     1    18    1.5427E+05 -2.2779E+03   1.5655E+05  0.000E+00  0.000E+00  0.000E+00  4.03362E+01  1.885E-01  2.000E+01  2.000E+04 -1.139E-01
   1   12   19     1    19    1.5655E+05 -3.5473E+03   1.6010E+05  0.000E+00  0.000E+00  0.000E+00  3.98610E+01  1.906E-01  2.000E+01  2.000E+04 -1.774E-01
   1   13   20     1    20    1.6010E+05 -5.3036E+02   1.6063E+05  0.000E+00  0.000E+00  0.000E+00  3.93852E+01  1.920E-01  2.000E+01  2.000E+04 -2.652E-02
   1   14   21     1    21    1.6063E+05  2.7085E+03   1.5792E+05  0.000E+00  0.000E+00  0.000E+00  3.89072E+01  1.913E-01  2.000E+01  2.000E+04  1.354E-01
   1   14   22     1    22    1.5792E+05  5.7691E+03   1.5215E+05  0.000E+00  0.000E+00  0.000E+00  3.84268E+01  1.882E-01  2.000E+01  2.000E+04  2.885E-01
   1    9   30     2     1    5.0000E+04 -2.6798E+03   5.2680E+04  0.000E+00  0.000E+00  0.000E+00  4.02427E+01  1.177E-01  2.000E+01  2.000E+04 -1.340E-01
   1    9   29     2     2    5.2680E+04 -3.0123E+03   5.5692E+04  0.000E+00  0.000E+00  0.000E+00  3.99966E+01  1.216E-01  2.000E+01  2.000E+04 -1.506E-01
   1    9   28     2     3    5.5692E+04 -3.3933E+03   5.9085E+04  0.000E+00  0.000E+00  0.000E+00  3.97509E+01  1.259E-01  2.000E+01  2.000E+04 -1.697E-01
   1    9   27     2     4    5.9085E+04 -6.0884E+03   6.5174E+04  0.000E+00  0.000E+00  0.000E+00  3.95070E+01  1.320E-01  2.000E+01  2.000E+04 -3.044E-01
   1   10   26     2     5    6.5174E+04 -3.7122E+03   6.8886E+04  0.000E+00  0.000E+00  0.000E+00  3.92631E+01  1.381E-01  2.000E+01  2.000E+04 -1.856E-01
   1   11   25     2     6    6.8886E+04 -2.6687E+03   7.1555E+04  0.000E+00  0.000E+00  0.000E+00  3.90171E+01  1.421E-01  2.000E+01  2.000E+04 -1.334E-01
   1   12   24     2     7    7.1555E+04 -1.8259E+03   7.3381E+04  0.000E+00  0.000E+00  0.000E+00  3.87698E+01  1.448E-01  2.000E+01  2.000E+04 -9.130E-02
   1   13   23     2     8    7.3381E+04 -9.7991E+02   7.4360E+04  0.000E+00  0.000E+00  0.000E+00  3.85214E+01  1.464E-01  2.000E+01  2.000E+04 -4.900E-02
   1   14   22     2     9    7.4360E+04  2.6416E+03   7.1719E+04  0.000E+00  0.000E+00  0.000E+00  3.82704E+01  1.454E-01  2.000E+01  2.000E+04  1.321E-01
   1   14   22     3     1    2.2387E+05 -7.7227E+03   2.3159E+05  0.000E+00  0.000E+00  0.000E+00  3.77522E+01  1.967E-01  2.000E+01  2.000E+04 -3.861E-01
   1   15   23     3     2    2.3159E+05  2.0017E+03   2.2959E+05  0.000E+00  0.000E+00  0.000E+00  3.68648E+01  1.982E-01  2.000E+01  2.000E+04  1.001E-01
   1   15   24     3     3    2.2959E+05 -3.0875E+02   2.2990E+05  0.000E+00  0.000E+00  0.000E+00  3.59755E+01  1.977E-01  2.000E+01  2.000E+04 -1.544E-02
   1   15   25     3     4    2.2990E+05 -9.4314E+02   2.3084E+05  0.000E+00  0.000E+00  0.000E+00  3.50869E+01  1.980E-01  2.000E+01  2.000E+04 -4.716E-02
   1   15   26     3     5    2.3084E+05 -1.7464E+03   2.3259E+05  0.000E+00  0.000E+00  0.000E+00  3.41987E+01  1.987E-01  2.000E+01  2.000E+04 -8.732E-02
   1   16   27     3     6    2.3259E+05 -2.2976E+03   2.3488E+05  0.000E+00  0.000E+00  0.000E+00  3.33109E+01  1.998E-01  2.000E+01  2.000E+04 -1.149E-01
   1   17   28     3     7    2.3488E+05 -3.2801E+03   2.3816E+05  0.000E+00  0.000E+00  0.000E+00  3.24234E+01  2.012E-01  2.000E+01  2.000E+04 -1.640E-01
   1   18   29     3     8    2.3816E+05 -5.1024E+03   2.4327E+05  0.000E+00  0.000E+00  0.000E+00  3.15367E+01  2.033E-01  2.000E+01  2.000E+04 -2.551E-01
   1   18   30     3     9    2.4327E+05 -4.5279E+03   2.4779E+05  0.000E+00  0.000E+00  0.000E+00  3.06502E+01  2.058E-01  2.000E+01  2.000E+04 -2.264E-01



1
              HEAD IN LAYER   1 AT END OF TIME STEP   1 IN STRESS PERIOD    9
  ---------------------------------------------------------------------------

          1      2      3      4      5      6      7      8      9     10
         11     12     13     14     15     16     17     18     19     20
         21     22     23     24     25     26     27     28     29     30
 .........................................................................
   1  ****** ****** ****** ****** ****** ****** ****** ****** ****** ******
      ****** ****** ****** ****** ****** ****** ****** ****** ****** ******
      ****** ****** ****** ****** ****** ****** ****** ****** ****** ******
   2  ****** ****** ****** ****** ****** ****** ****** ****** ****** ******
      ****** ****** ****** ****** ****** ****** ****** ****** ****** ******
      ****** ****** ****** ****** ****** ****** ****** ****** ****** ******
   3  ****** ****** ****** ****** ****** ****** ****** ****** ****** ******
      ****** ****** ****** ****** ****** ****** ****** ****** ****** ******
      ****** ****** ****** ****** ****** ****** ****** ****** ****** ******
   4  ****** ****** ****** ****** ****** ****** ****** ****** ****** ******
      ****** ****** ****** ****** ****** ****** ****** ****** ****** ******
      ****** ****** ****** ****** ****** ****** ****** ****** ****** ******
   5  ****** ****** ****** ****** ****** ****** ****** ****** ****** ******
      ****** ****** ****** ****** ****** ****** ****** ****** ****** ******
      ****** ****** ****** ****** ****** ****** ****** ****** ****** ******
   6  ****** ****** ****** ****** ****** ****** ****** ****** ****** ******
      ****** ****** ****** ****** ****** ****** ****** ****** ****** ******
      ****** ****** ****** ****** ****** ****** ****** ****** ****** ******
   7  ****** ****** ****** ****** ****** ****** ****** ****** ****** ******
      ****** ****** ****** ****** ****** ****** ****** ****** ****** ******
      ****** ****** ****** ****** ****** ****** ****** ****** ****** ******
   8  ****** ****** ****** ****** ****** ****** ****** ****** ****** ******
      ****** ****** ****** ****** ****** ****** ****** ****** ****** ******
      ****** ****** ****** ****** ****** ****** ****** ****** ****** ******
   9  ****** ****** ****** ****** ****** ****** ****** ****** ****** ******
      ****** ****** ****** ****** ****** ****** ****** ****** ****** ******
      ****** ****** ****** ****** ****** ****** ****** ****** ****** ******
  10  ****** ****** ****** ****** ****** ****** ****** ****** ****** ******
      ****** ****** ****** ****** ****** ****** ****** ****** ****** ******
      ****** ****** ****** ****** ****** ****** ****** ****** ****** ******
  11  ****** ****** ****** ****** ****** ****** ****** ****** ****** ******
      ****** ****** ****** ****** ****** ****** ****** ****** ****** ******
      ****** ****** ****** ****** ****** ****** ****** ****** ****** ******
  12  ****** ****** ****** ****** ****** ****** ****** ****** ****** ******
      ****** ****** ****** ****** ****** ****** ****** ****** ****** ******
      ****** ****** ****** ****** ****** ****** ****** ****** ****** ******
  13  ****** ****** ****** ****** ****** ****** ****** ****** ****** ******
      ****** ****** ****** ****** ****** ****** ****** ****** ****** ******
      ****** ****** ****** ****** ****** ****** ****** ****** ****** ******
  14  ****** ****** ****** ****** ****** ****** ****** ****** ****** ******
      ****** ****** ****** ****** ****** ****** ****** ****** ****** ******
      ****** ****** ****** ****** ****** ****** ****** ****** ****** ******
  15  ****** ****** ****** ****** ****** ****** ****** ****** ****** ******
      ****** ****** ****** ****** ****** ****** ****** ****** ****** ******
      ****** ****** ****** ****** ****** ****** ****** ****** ****** ******
  16  ****** ****** ****** ****** ****** ****** ****** ****** ****** ******
      ****** ****** ****** ****** ****** ****** ****** ****** ****** ******
      ****** ****** ****** ****** ****** ****** ****** ****** ****** ******
  17  ****** ****** ****** ****** ****** ****** ****** ****** ****** ******
      ****** ****** ****** ****** ****** ****** ****** ****** ****** ******
      ****** ****** ****** ****** ****** ****** ****** ****** ****** ******
  18  ****** ****** ****** ****** ****** ****** ****** ****** ****** ******
      ****** ****** ****** ****** ****** ****** ****** ****** ****** ******
      ****** ****** ****** ****** ****** ****** ****** ****** ****** ******
  19  ****** ****** ****** ****** ****** ****** ****** ****** ****** ******
      ****** ****** ****** ****** ****** ****** ****** ****** ****** ******
      ****** ****** ****** ****** ****** ****** ****** ****** ****** ******
  20  ****** ****** ****** ****** ****** ****** ****** ****** ****** ******
      ****** ****** ****** ****** ****** ****** ****** ****** ****** ******
      ****** ****** ****** ****** ****** ****** ****** ****** ****** ******
  21  ****** ****** ****** ****** ****** ****** ****** ****** ****** ******
      ****** ****** ****** ****** ****** ****** ****** ****** ****** ******
      ****** ****** ****** ****** ****** ****** ****** ****** ****** ******
  22  ****** ****** ****** ****** ****** ****** ****** ****** ****** ******
      ****** ****** ****** ****** ****** ****** ****** ****** ****** ******
      ****** ****** ****** ****** ****** ****** ****** ****** ****** ******
  23  ****** ****** ****** ****** ****** ****** ****** ****** ****** ******
      ****** ****** ****** ****** ****** ****** ****** ****** ****** ******
      ****** ****** ****** ****** ****** ****** ****** ****** ****** ******
  24  ****** ****** ****** ****** ****** ****** ****** ****** ****** ******
      ****** ****** ****** ****** ****** ****** ****** ****** ****** ******
      ****** ****** ****** ****** ****** ****** ****** ****** ****** ******
  25  ****** ****** ****** ****** ****** ****** ****** ****** ****** ******
      ****** ****** ****** ****** ****** ****** ****** ****** ****** ******
      ****** ****** ****** ****** ****** ****** ****** ****** ****** ******

 HEAD WILL BE SAVED ON UNIT   51 AT END OF TIME STEP    1, STRESS PERIOD    9
1
  VOLUMETRIC BUDGET FOR ENTIRE MODEL AT END OF TIME STEP    1, STRESS PERIOD   9
  ------------------------------------------------------------------------------

     CUMULATIVE VOLUMES      L**3       RATES FOR THIS TIME STEP      L**3/T
     ------------------                 ------------------------

           IN:                                      IN:
           ---                                      ---
             STORAGE =    23509753.2163               STORAGE =        2680.0661
       CONSTANT HEAD =    93361902.7415         CONSTANT HEAD =      123560.9764
               WELLS =           0.0000                 WELLS =           0.0000
            RECHARGE =    18878400.0000              RECHARGE =       13800.0000
      STREAM LEAKAGE =     9698921.3597        STREAM LEAKAGE =       13120.9088

            TOTAL IN =   145448977.3176              TOTAL IN =      153161.9513

          OUT:                                     OUT:
          ----                                     ----
             STORAGE =     1279089.9013               STORAGE =           0.0000
       CONSTANT HEAD =           0.0000         CONSTANT HEAD =           0.0000
               WELLS =    34726958.5739                 WELLS =       42246.9082
            RECHARGE =           0.0000              RECHARGE =           0.0000
      STREAM LEAKAGE =   109442929.8012        STREAM LEAKAGE =      110915.0461

           TOTAL OUT =   145448978.2764             TOTAL OUT =      153161.9544

            IN - OUT =          -0.9588              IN - OUT =      -3.0977E-03

 PERCENT DISCREPANCY =          -0.00     PERCENT DISCREPANCY =          -0.00






         TIME SUMMARY AT END OF TIME STEP    1 IN STRESS PERIOD    9
                    SECONDS     MINUTES      HOURS       DAYS        YEARS
                    -----------------------------------------------------------
   TIME STEP LENGTH 7.94880E+06 1.32480E+05  2208.0      92.000     0.25188    
 STRESS PERIOD TIME 7.94880E+06 1.32480E+05  2208.0      92.000     0.25188    
         TOTAL TIME 7.10208E+07 1.18368E+06  19728.      822.00      2.2505    
1
1
                            STRESS PERIOD NO.   10, LENGTH =   91.00000    
                            -----------------------------------------------

                              NUMBER OF TIME STEPS =     1

                               MULTIPLIER FOR DELT =     1.500

                            INITIAL TIME STEP SIZE =   91.00000    

 WELL NO.  LAYER   ROW   COL   STRESS RATE         
 --------------------------------------------------
      1      1     17     21     -0.3064E+05
      2      1     16     17     -0.1161E+05
      3      1     13     18       0.000    
      4      1     14     25       0.000    

      4 WELLS

                 RECHARGE =  2.000000E-03

 REUSING STREAM SEGMENT DATA FROM LAST STRESS PERIOD
 
 SOLVING FOR HEAD 


     7 CALLS TO PCG ROUTINE FOR TIME STEP   1 IN STRESS PERIOD   10
    26 TOTAL ITERATIONS

 OUTPUT CONTROL FOR STRESS PERIOD   10   TIME STEP    1
    SAVE BUDGET
    SAVE HEAD FOR ALL LAYERS
    PRINT HEAD FOR ALL LAYERS
 UBDSV2 SAVING "STREAMFLOW OUT  " ON UNIT  50 AT TIME STEP  1, STRESS PERIOD  10



 STREAM LISTING     PERIOD     10   STEP        1

 LAYER ROW COL. STREAM  RCH.  FLOW INTO     FLOW TO   FLOW OUT OF   OVRLND.     DIRECT     STREAM       STREAM     STREAM     STREAM   STREAMBED  STREAMBED
                SEG.NO.  NO.  STRM. RCH.    AQUIFER    STRM. RCH.    RUNOFF     PRECIP       ET          HEAD       DEPTH      WIDTH   CONDCTNC.   GRADIENT

   1   13    1     1     1    1.0000E+05 -3.1732E+03   1.0317E+05  0.000E+00  0.000E+00  0.000E+00  4.84074E+01  1.460E-01  2.000E+01  2.000E+04 -1.587E-01
   1   13    2     1     2    1.0317E+05 -5.2088E+03   1.0838E+05  0.000E+00  0.000E+00  0.000E+00  4.79337E+01  1.496E-01  2.000E+01  2.000E+04 -2.604E-01
   1   14    3     1     3    1.0838E+05 -4.2733E+03   1.1266E+05  0.000E+00  0.000E+00  0.000E+00  4.74604E+01  1.536E-01  2.000E+01  2.000E+04 -2.137E-01
   1   15    4     1     4    1.1266E+05 -4.1686E+03   1.1682E+05  0.000E+00  0.000E+00  0.000E+00  4.69866E+01  1.571E-01  2.000E+01  2.000E+04 -2.084E-01
   1   16    5     1     5    1.1682E+05 -4.4494E+03   1.2127E+05  0.000E+00  0.000E+00  0.000E+00  4.65129E+01  1.606E-01  2.000E+01  2.000E+04 -2.225E-01
   1   16    6     1     6    1.2127E+05 -3.5107E+03   1.2478E+05  0.000E+00  0.000E+00  0.000E+00  4.60388E+01  1.638E-01  2.000E+01  2.000E+04 -1.755E-01
   1   16    7     1     7    1.2478E+05 -3.5700E+03   1.2835E+05  0.000E+00  0.000E+00  0.000E+00  4.55643E+01  1.666E-01  2.000E+01  2.000E+04 -1.785E-01
   1   16    8     1     8    1.2835E+05 -3.5898E+03   1.3194E+05  0.000E+00  0.000E+00  0.000E+00  4.50899E+01  1.694E-01  2.000E+01  2.000E+04 -1.795E-01
   1   16    9     1     9    1.3194E+05 -3.5507E+03   1.3549E+05  0.000E+00  0.000E+00  0.000E+00  4.46154E+01  1.722E-01  2.000E+01  2.000E+04 -1.775E-01
   1   16   10     1    10    1.3549E+05 -3.4447E+03   1.3894E+05  0.000E+00  0.000E+00  0.000E+00  4.41408E+01  1.749E-01  2.000E+01  2.000E+04 -1.722E-01
   1   16   11     1    11    1.3894E+05 -3.2608E+03   1.4220E+05  0.000E+00  0.000E+00  0.000E+00  4.36661E+01  1.774E-01  2.000E+01  2.000E+04 -1.630E-01
   1   16   12     1    12    1.4220E+05 -3.5803E+03   1.4578E+05  0.000E+00  0.000E+00  0.000E+00  4.31914E+01  1.800E-01  2.000E+01  2.000E+04 -1.790E-01
   1   15   13     1    13    1.4578E+05 -2.9585E+03   1.4874E+05  0.000E+00  0.000E+00  0.000E+00  4.27166E+01  1.825E-01  2.000E+01  2.000E+04 -1.479E-01
   1   14   14     1    14    1.4874E+05 -2.7279E+03   1.5147E+05  0.000E+00  0.000E+00  0.000E+00  4.22414E+01  1.846E-01  2.000E+01  2.000E+04 -1.364E-01
   1   13   15     1    15    1.5147E+05 -3.1241E+03   1.5459E+05  0.000E+00  0.000E+00  0.000E+00  4.17663E+01  1.867E-01  2.000E+01  2.000E+04 -1.562E-01
   1   12   16     1    16    1.5459E+05 -5.1464E+03   1.5974E+05  0.000E+00  0.000E+00  0.000E+00  4.12920E+01  1.897E-01  2.000E+01  2.000E+04 -2.573E-01
   1   12   17     1    17    1.5974E+05 -2.8555E+03   1.6259E+05  0.000E+00  0.000E+00  0.000E+00  4.08176E+01  1.926E-01  2.000E+01  2.000E+04 -1.428E-01
   1   12   18     1    18    1.6259E+05 -2.6783E+03   1.6527E+05  0.000E+00  0.000E+00  0.000E+00  4.03423E+01  1.946E-01  2.000E+01  2.000E+04 -1.339E-01
   1   12   19     1    19    1.6527E+05 -4.0349E+03   1.6931E+05  0.000E+00  0.000E+00  0.000E+00  3.98674E+01  1.970E-01  2.000E+01  2.000E+04 -2.017E-01
   1   13   20     1    20    1.6931E+05 -1.0032E+03   1.7031E+05  0.000E+00  0.000E+00  0.000E+00  3.93919E+01  1.987E-01  2.000E+01  2.000E+04 -5.016E-02
   1   14   21     1    21    1.7031E+05  2.2731E+03   1.6804E+05  0.000E+00  0.000E+00  0.000E+00  3.89142E+01  1.983E-01  2.000E+01  2.000E+04  1.137E-01
   1   14   22     1    22    1.6804E+05  5.6899E+03   1.6235E+05  0.000E+00  0.000E+00  0.000E+00  3.84341E+01  1.955E-01  2.000E+01  2.000E+04  2.845E-01
   1    9   30     2     1    5.0000E+04 -3.0411E+03   5.3041E+04  0.000E+00  0.000E+00  0.000E+00  4.02430E+01  1.180E-01  2.000E+01  2.000E+04 -1.521E-01
   1    9   29     2     2    5.3041E+04 -3.3710E+03   5.6412E+04  0.000E+00  0.000E+00  0.000E+00  3.99973E+01  1.223E-01  2.000E+01  2.000E+04 -1.685E-01
   1    9   28     2     3    5.6412E+04 -3.7503E+03   6.0162E+04  0.000E+00  0.000E+00  0.000E+00  3.97520E+01  1.270E-01  2.000E+01  2.000E+04 -1.875E-01
   1    9   27     2     4    6.0162E+04 -6.5680E+03   6.6730E+04  0.000E+00  0.000E+00  0.000E+00  3.95087E+01  1.337E-01  2.000E+01  2.000E+04 -3.284E-01
   1   10   26     2     5    6.6730E+04 -4.2075E+03   7.0938E+04  0.000E+00  0.000E+00  0.000E+00  3.92654E+01  1.404E-01  2.000E+01  2.000E+04 -2.104E-01
   1   11   25     2     6    7.0938E+04 -3.1427E+03   7.4081E+04  0.000E+00  0.000E+00  0.000E+00  3.90198E+01  1.448E-01  2.000E+01  2.000E+04 -1.571E-01
   1   12   24     2     7    7.4081E+04 -2.2447E+03   7.6325E+04  0.000E+00  0.000E+00  0.000E+00  3.87730E+01  1.480E-01  2.000E+01  2.000E+04 -1.122E-01
   1   13   23     2     8    7.6325E+04 -1.3063E+03   7.7632E+04  0.000E+00  0.000E+00  0.000E+00  3.85251E+01  1.501E-01  2.000E+01  2.000E+04 -6.531E-02
   1   14   22     2     9    7.7632E+04  2.4956E+03   7.5136E+04  0.000E+00  0.000E+00  0.000E+00  3.82744E+01  1.494E-01  2.000E+01  2.000E+04  1.248E-01
   1   14   22     3     1    2.3748E+05 -7.8081E+03   2.4529E+05  0.000E+00  0.000E+00  0.000E+00  3.77592E+01  2.037E-01  2.000E+01  2.000E+04 -3.904E-01
   1   15   23     3     2    2.4529E+05  1.5955E+03   2.4369E+05  0.000E+00  0.000E+00  0.000E+00  3.68719E+01  2.052E-01  2.000E+01  2.000E+04  7.978E-02
   1   15   24     3     3    2.4369E+05 -6.0083E+02   2.4430E+05  0.000E+00  0.000E+00  0.000E+00  3.59828E+01  2.050E-01  2.000E+01  2.000E+04 -3.004E-02
   1   15   25     3     4    2.4430E+05 -1.2350E+03   2.4553E+05  0.000E+00  0.000E+00  0.000E+00  3.50943E+01  2.055E-01  2.000E+01  2.000E+04 -6.175E-02
   1   15   26     3     5    2.4553E+05 -2.1210E+03   2.4765E+05  0.000E+00  0.000E+00  0.000E+00  3.42063E+01  2.063E-01  2.000E+01  2.000E+04 -1.061E-01
   1   16   27     3     6    2.4765E+05 -2.7692E+03   2.5042E+05  0.000E+00  0.000E+00  0.000E+00  3.33186E+01  2.075E-01  2.000E+01  2.000E+04 -1.385E-01
   1   17   28     3     7    2.5042E+05 -3.7619E+03   2.5418E+05  0.000E+00  0.000E+00  0.000E+00  3.24314E+01  2.091E-01  2.000E+01  2.000E+04 -1.881E-01
   1   18   29     3     8    2.5418E+05 -5.5552E+03   2.5974E+05  0.000E+00  0.000E+00  0.000E+00  3.15448E+01  2.115E-01  2.000E+01  2.000E+04 -2.778E-01
   1   18   30     3     9    2.5974E+05 -4.8683E+03   2.6461E+05  0.000E+00  0.000E+00  0.000E+00  3.06585E+01  2.140E-01  2.000E+01  2.000E+04 -2.434E-01



1
              HEAD IN LAYER   1 AT END OF TIME STEP   1 IN STRESS PERIOD   10
  ---------------------------------------------------------------------------

          1      2      3      4      5      6      7      8      9     10
         11     12     13     14     15     16     17     18     19     20
         21     22     23     24     25     26     27     28     29     30
 .........................................................................
   1  ****** ****** ****** ****** ****** ****** ****** ****** ****** ******
      ****** ****** ****** ****** ****** ****** ****** ****** ****** ******
      ****** ****** ****** ****** ****** ****** ****** ****** ****** ******
   2  ****** ****** ****** ****** ****** ****** ****** ****** ****** ******
      ****** ****** ****** ****** ****** ****** ****** ****** ****** ******
      ****** ****** ****** ****** ****** ****** ****** ****** ****** ******
   3  ****** ****** ****** ****** ****** ****** ****** ****** ****** ******
      ****** ****** ****** ****** ****** ****** ****** ****** ****** ******
      ****** ****** ****** ****** ****** ****** ****** ****** ****** ******
   4  ****** ****** ****** ****** ****** ****** ****** ****** ****** ******
      ****** ****** ****** ****** ****** ****** ****** ****** ****** ******
      ****** ****** ****** ****** ****** ****** ****** ****** ****** ******
   5  ****** ****** ****** ****** ****** ****** ****** ****** ****** ******
      ****** ****** ****** ****** ****** ****** ****** ****** ****** ******
      ****** ****** ****** ****** ****** ****** ****** ****** ****** ******
   6  ****** ****** ****** ****** ****** ****** ****** ****** ****** ******
      ****** ****** ****** ****** ****** ****** ****** ****** ****** ******
      ****** ****** ****** ****** ****** ****** ****** ****** ****** ******
   7  ****** ****** ****** ****** ****** ****** ****** ****** ****** ******
      ****** ****** ****** ****** ****** ****** ****** ****** ****** ******
      ****** ****** ****** ****** ****** ****** ****** ****** ****** ******
   8  ****** ****** ****** ****** ****** ****** ****** ****** ****** ******
      ****** ****** ****** ****** ****** ****** ****** ****** ****** ******
      ****** ****** ****** ****** ****** ****** ****** ****** ****** ******
   9  ****** ****** ****** ****** ****** ****** ****** ****** ****** ******
      ****** ****** ****** ****** ****** ****** ****** ****** ****** ******
      ****** ****** ****** ****** ****** ****** ****** ****** ****** ******
  10  ****** ****** ****** ****** ****** ****** ****** ****** ****** ******
      ****** ****** ****** ****** ****** ****** ****** ****** ****** ******
      ****** ****** ****** ****** ****** ****** ****** ****** ****** ******
  11  ****** ****** ****** ****** ****** ****** ****** ****** ****** ******
      ****** ****** ****** ****** ****** ****** ****** ****** ****** ******
      ****** ****** ****** ****** ****** ****** ****** ****** ****** ******
  12  ****** ****** ****** ****** ****** ****** ****** ****** ****** ******
      ****** ****** ****** ****** ****** ****** ****** ****** ****** ******
      ****** ****** ****** ****** ****** ****** ****** ****** ****** ******
  13  ****** ****** ****** ****** ****** ****** ****** ****** ****** ******
      ****** ****** ****** ****** ****** ****** ****** ****** ****** ******
      ****** ****** ****** ****** ****** ****** ****** ****** ****** ******
  14  ****** ****** ****** ****** ****** ****** ****** ****** ****** ******
      ****** ****** ****** ****** ****** ****** ****** ****** ****** ******
      ****** ****** ****** ****** ****** ****** ****** ****** ****** ******
  15  ****** ****** ****** ****** ****** ****** ****** ****** ****** ******
      ****** ****** ****** ****** ****** ****** ****** ****** ****** ******
      ****** ****** ****** ****** ****** ****** ****** ****** ****** ******
  16  ****** ****** ****** ****** ****** ****** ****** ****** ****** ******
      ****** ****** ****** ****** ****** ****** ****** ****** ****** ******
      ****** ****** ****** ****** ****** ****** ****** ****** ****** ******
  17  ****** ****** ****** ****** ****** ****** ****** ****** ****** ******
      ****** ****** ****** ****** ****** ****** ****** ****** ****** ******
      ****** ****** ****** ****** ****** ****** ****** ****** ****** ******
  18  ****** ****** ****** ****** ****** ****** ****** ****** ****** ******
      ****** ****** ****** ****** ****** ****** ****** ****** ****** ******
      ****** ****** ****** ****** ****** ****** ****** ****** ****** ******
  19  ****** ****** ****** ****** ****** ****** ****** ****** ****** ******
      ****** ****** ****** ****** ****** ****** ****** ****** ****** ******
      ****** ****** ****** ****** ****** ****** ****** ****** ****** ******
  20  ****** ****** ****** ****** ****** ****** ****** ****** ****** ******
      ****** ****** ****** ****** ****** ****** ****** ****** ****** ******
      ****** ****** ****** ****** ****** ****** ****** ****** ****** ******
  21  ****** ****** ****** ****** ****** ****** ****** ****** ****** ******
      ****** ****** ****** ****** ****** ****** ****** ****** ****** ******
      ****** ****** ****** ****** ****** ****** ****** ****** ****** ******
  22  ****** ****** ****** ****** ****** ****** ****** ****** ****** ******
      ****** ****** ****** ****** ****** ****** ****** ****** ****** ******
      ****** ****** ****** ****** ****** ****** ****** ****** ****** ******
  23  ****** ****** ****** ****** ****** ****** ****** ****** ****** ******
      ****** ****** ****** ****** ****** ****** ****** ****** ****** ******
      ****** ****** ****** ****** ****** ****** ****** ****** ****** ******
  24  ****** ****** ****** ****** ****** ****** ****** ****** ****** ******
      ****** ****** ****** ****** ****** ****** ****** ****** ****** ******
      ****** ****** ****** ****** ****** ****** ****** ****** ****** ******
  25  ****** ****** ****** ****** ****** ****** ****** ****** ****** ******
      ****** ****** ****** ****** ****** ****** ****** ****** ****** ******
      ****** ****** ****** ****** ****** ****** ****** ****** ****** ******

 HEAD WILL BE SAVED ON UNIT   51 AT END OF TIME STEP    1, STRESS PERIOD   10
1
  VOLUMETRIC BUDGET FOR ENTIRE MODEL AT END OF TIME STEP    1, STRESS PERIOD  10
  ------------------------------------------------------------------------------

     CUMULATIVE VOLUMES      L**3       RATES FOR THIS TIME STEP      L**3/T
     ------------------                 ------------------------

           IN:                                      IN:
           ---                                      ---
             STORAGE =    23509753.2163               STORAGE =           0.0000
       CONSTANT HEAD =   103591384.0689         CONSTANT HEAD =      112411.8827
               WELLS =           0.0000                 WELLS =           0.0000
            RECHARGE =    23901600.0000              RECHARGE =       55200.0000
      STREAM LEAKAGE =    10795843.1071        STREAM LEAKAGE =       12054.0851

            TOTAL IN =   161798580.3923              TOTAL IN =      179665.9679

          OUT:                                     OUT:
          ----                                     ----
             STORAGE =     2258145.3060               STORAGE =       10758.8506
       CONSTANT HEAD =           0.0000         CONSTANT HEAD =           0.0000
               WELLS =    38571427.2238                 WELLS =       42246.9082
            RECHARGE =           0.0000              RECHARGE =           0.0000
      STREAM LEAKAGE =   120969008.6627        STREAM LEAKAGE =      126660.2073

           TOTAL OUT =   161798581.1925             TOTAL OUT =      179665.9661

            IN - OUT =          -0.8002              IN - OUT =       1.7426E-03

 PERCENT DISCREPANCY =          -0.00     PERCENT DISCREPANCY =           0.00






         TIME SUMMARY AT END OF TIME STEP    1 IN STRESS PERIOD   10
                    SECONDS     MINUTES      HOURS       DAYS        YEARS
                    -----------------------------------------------------------
   TIME STEP LENGTH 7.86240E+06 1.31040E+05  2184.0      91.000     0.24914    
 STRESS PERIOD TIME 7.86240E+06 1.31040E+05  2184.0      91.000     0.24914    
         TOTAL TIME 7.88832E+07 1.31472E+06  21912.      913.00      2.4997    
1
1
                            STRESS PERIOD NO.   11, LENGTH =   91.00000    
                            -----------------------------------------------

                              NUMBER OF TIME STEPS =     1

                               MULTIPLIER FOR DELT =     1.500

                            INITIAL TIME STEP SIZE =   91.00000    

 WELL NO.  LAYER   ROW   COL   STRESS RATE         
 --------------------------------------------------
      1      1     17     21     -0.3064E+05
      2      1     16     17     -0.1161E+05
      3      1     13     18       0.000    
      4      1     14     25       0.000    

      4 WELLS

                 RECHARGE =   0.00000    

 REUSING STREAM SEGMENT DATA FROM LAST STRESS PERIOD
 
 SOLVING FOR HEAD 


     7 CALLS TO PCG ROUTINE FOR TIME STEP   1 IN STRESS PERIOD   11
    26 TOTAL ITERATIONS

 OUTPUT CONTROL FOR STRESS PERIOD   11   TIME STEP    1
    SAVE BUDGET
    SAVE HEAD FOR ALL LAYERS
    PRINT HEAD FOR ALL LAYERS
 UBDSV2 SAVING "STREAMFLOW OUT  " ON UNIT  50 AT TIME STEP  1, STRESS PERIOD  11



 STREAM LISTING     PERIOD     11   STEP        1

 LAYER ROW COL. STREAM  RCH.  FLOW INTO     FLOW TO   FLOW OUT OF   OVRLND.     DIRECT     STREAM       STREAM     STREAM     STREAM   STREAMBED  STREAMBED
                SEG.NO.  NO.  STRM. RCH.    AQUIFER    STRM. RCH.    RUNOFF     PRECIP       ET          HEAD       DEPTH      WIDTH   CONDCTNC.   GRADIENT

   1   13    1     1     1    1.0000E+05 -2.6890E+03   1.0269E+05  0.000E+00  0.000E+00  0.000E+00  4.84072E+01  1.458E-01  2.000E+01  2.000E+04 -1.345E-01
   1   13    2     1     2    1.0269E+05 -4.5758E+03   1.0726E+05  0.000E+00  0.000E+00  0.000E+00  4.79330E+01  1.489E-01  2.000E+01  2.000E+04 -2.288E-01
   1   14    3     1     3    1.0726E+05 -3.6185E+03   1.1088E+05  0.000E+00  0.000E+00  0.000E+00  4.74592E+01  1.524E-01  2.000E+01  2.000E+04 -1.809E-01
   1   15    4     1     4    1.1088E+05 -3.5170E+03   1.1440E+05  0.000E+00  0.000E+00  0.000E+00  4.69849E+01  1.554E-01  2.000E+01  2.000E+04 -1.758E-01
   1   16    5     1     5    1.1440E+05 -3.8478E+03   1.1825E+05  0.000E+00  0.000E+00  0.000E+00  4.65107E+01  1.584E-01  2.000E+01  2.000E+04 -1.924E-01
   1   16    6     1     6    1.1825E+05 -3.0348E+03   1.2128E+05  0.000E+00  0.000E+00  0.000E+00  4.60362E+01  1.612E-01  2.000E+01  2.000E+04 -1.517E-01
   1   16    7     1     7    1.2128E+05 -3.0873E+03   1.2437E+05  0.000E+00  0.000E+00  0.000E+00  4.55614E+01  1.636E-01  2.000E+01  2.000E+04 -1.544E-01
   1   16    8     1     8    1.2437E+05 -3.1031E+03   1.2747E+05  0.000E+00  0.000E+00  0.000E+00  4.50866E+01  1.661E-01  2.000E+01  2.000E+04 -1.552E-01
   1   16    9     1     9    1.2747E+05 -3.0641E+03   1.3054E+05  0.000E+00  0.000E+00  0.000E+00  4.46117E+01  1.685E-01  2.000E+01  2.000E+04 -1.532E-01
   1   16   10     1    10    1.3054E+05 -2.9622E+03   1.3350E+05  0.000E+00  0.000E+00  0.000E+00  4.41368E+01  1.709E-01  2.000E+01  2.000E+04 -1.481E-01
   1   16   11     1    11    1.3350E+05 -2.7845E+03   1.3628E+05  0.000E+00  0.000E+00  0.000E+00  4.36617E+01  1.731E-01  2.000E+01  2.000E+04 -1.392E-01
   1   16   12     1    12    1.3628E+05 -2.9707E+03   1.3925E+05  0.000E+00  0.000E+00  0.000E+00  4.31867E+01  1.753E-01  2.000E+01  2.000E+04 -1.485E-01
   1   15   13     1    13    1.3925E+05 -2.2948E+03   1.4155E+05  0.000E+00  0.000E+00  0.000E+00  4.27114E+01  1.773E-01  2.000E+01  2.000E+04 -1.147E-01
   1   14   14     1    14    1.4155E+05 -2.0530E+03   1.4360E+05  0.000E+00  0.000E+00  0.000E+00  4.22358E+01  1.790E-01  2.000E+01  2.000E+04 -1.026E-01
   1   13   15     1    15    1.4360E+05 -2.4613E+03   1.4606E+05  0.000E+00  0.000E+00  0.000E+00  4.17602E+01  1.807E-01  2.000E+01  2.000E+04 -1.231E-01
   1   12   16     1    16    1.4606E+05 -4.5190E+03   1.5058E+05  0.000E+00  0.000E+00  0.000E+00  4.12855E+01  1.833E-01  2.000E+01  2.000E+04 -2.259E-01
   1   12   17     1    17    1.5058E+05 -2.3821E+03   1.5296E+05  0.000E+00  0.000E+00  0.000E+00  4.08108E+01  1.858E-01  2.000E+01  2.000E+04 -1.191E-01
   1   12   18     1    18    1.5296E+05 -2.2115E+03   1.5518E+05  0.000E+00  0.000E+00  0.000E+00  4.03352E+01  1.875E-01  2.000E+01  2.000E+04 -1.106E-01
   1   12   19     1    19    1.5518E+05 -3.4658E+03   1.5864E+05  0.000E+00  0.000E+00  0.000E+00  3.98600E+01  1.895E-01  2.000E+01  2.000E+04 -1.733E-01
   1   13   20     1    20    1.5864E+05 -4.4016E+02   1.5908E+05  0.000E+00  0.000E+00  0.000E+00  3.93841E+01  1.910E-01  2.000E+01  2.000E+04 -2.201E-02
   1   14   21     1    21    1.5908E+05  2.7883E+03   1.5629E+05  0.000E+00  0.000E+00  0.000E+00  3.89060E+01  1.901E-01  2.000E+01  2.000E+04  1.394E-01
   1   14   22     1    22    1.5629E+05  5.7894E+03   1.5050E+05  0.000E+00  0.000E+00  0.000E+00  3.84256E+01  1.870E-01  2.000E+01  2.000E+04  2.895E-01
   1    9   30     2     1    5.0000E+04 -2.5997E+03   5.2600E+04  0.000E+00  0.000E+00  0.000E+00  4.02427E+01  1.177E-01  2.000E+01  2.000E+04 -1.300E-01
   1    9   29     2     2    5.2600E+04 -2.9333E+03   5.5533E+04  0.000E+00  0.000E+00  0.000E+00  3.99964E+01  1.214E-01  2.000E+01  2.000E+04 -1.467E-01
   1    9   28     2     3    5.5533E+04 -3.3161E+03   5.8849E+04  0.000E+00  0.000E+00  0.000E+00  3.97506E+01  1.256E-01  2.000E+01  2.000E+04 -1.658E-01
   1    9   27     2     4    5.8849E+04 -5.9963E+03   6.4845E+04  0.000E+00  0.000E+00  0.000E+00  3.95066E+01  1.316E-01  2.000E+01  2.000E+04 -2.998E-01
   1   10   26     2     5    6.4845E+04 -3.6098E+03   6.8455E+04  0.000E+00  0.000E+00  0.000E+00  3.92627E+01  1.377E-01  2.000E+01  2.000E+04 -1.805E-01
   1   11   25     2     6    6.8455E+04 -2.5682E+03   7.1024E+04  0.000E+00  0.000E+00  0.000E+00  3.90165E+01  1.415E-01  2.000E+01  2.000E+04 -1.284E-01
   1   12   24     2     7    7.1024E+04 -1.7335E+03   7.2757E+04  0.000E+00  0.000E+00  0.000E+00  3.87691E+01  1.441E-01  2.000E+01  2.000E+04 -8.667E-02
   1   13   23     2     8    7.2757E+04 -9.0328E+02   7.3660E+04  0.000E+00  0.000E+00  0.000E+00  3.85206E+01  1.456E-01  2.000E+01  2.000E+04 -4.516E-02
   1   14   22     2     9    7.3660E+04  2.6687E+03   7.0992E+04  0.000E+00  0.000E+00  0.000E+00  3.82696E+01  1.446E-01  2.000E+01  2.000E+04  1.334E-01
   1   14   22     3     1    2.2150E+05 -7.7033E+03   2.2920E+05  0.000E+00  0.000E+00  0.000E+00  3.77510E+01  1.954E-01  2.000E+01  2.000E+04 -3.852E-01
   1   15   23     3     2    2.2920E+05  2.0771E+03   2.2712E+05  0.000E+00  0.000E+00  0.000E+00  3.68636E+01  1.969E-01  2.000E+01  2.000E+04  1.039E-01
   1   15   24     3     3    2.2712E+05 -2.4578E+02   2.2737E+05  0.000E+00  0.000E+00  0.000E+00  3.59742E+01  1.964E-01  2.000E+01  2.000E+04 -1.229E-02
   1   15   25     3     4    2.2737E+05 -8.7626E+02   2.2824E+05  0.000E+00  0.000E+00  0.000E+00  3.50856E+01  1.967E-01  2.000E+01  2.000E+04 -4.381E-02
   1   15   26     3     5    2.2824E+05 -1.6568E+03   2.2990E+05  0.000E+00  0.000E+00  0.000E+00  3.41974E+01  1.974E-01  2.000E+01  2.000E+04 -8.284E-02
   1   16   27     3     6    2.2990E+05 -2.1930E+03   2.3209E+05  0.000E+00  0.000E+00  0.000E+00  3.33095E+01  1.984E-01  2.000E+01  2.000E+04 -1.096E-01
   1   17   28     3     7    2.3209E+05 -3.1751E+03   2.3527E+05  0.000E+00  0.000E+00  0.000E+00  3.24220E+01  1.997E-01  2.000E+01  2.000E+04 -1.588E-01
   1   18   29     3     8    2.3527E+05 -5.0083E+03   2.4028E+05  0.000E+00  0.000E+00  0.000E+00  3.15352E+01  2.018E-01  2.000E+01  2.000E+04 -2.504E-01
   1   18   30     3     9    2.4028E+05 -4.4513E+03   2.4473E+05  0.000E+00  0.000E+00  0.000E+00  3.06487E+01  2.042E-01  2.000E+01  2.000E+04 -2.226E-01



1
              HEAD IN LAYER   1 AT END OF TIME STEP   1 IN STRESS PERIOD   11
  ---------------------------------------------------------------------------

          1      2      3      4      5      6      7      8      9     10
         11     12     13     14     15     16     17     18     19     20
         21     22     23     24     25     26     27     28     29     30
 .........................................................................
   1  ****** ****** ****** ****** ****** ****** ****** ****** ****** ******
      ****** ****** ****** ****** ****** ****** ****** ****** ****** ******
      ****** ****** ****** ****** ****** ****** ****** ****** ****** ******
   2  ****** ****** ****** ****** ****** ****** ****** ****** ****** ******
      ****** ****** ****** ****** ****** ****** ****** ****** ****** ******
      ****** ****** ****** ****** ****** ****** ****** ****** ****** ******
   3  ****** ****** ****** ****** ****** ****** ****** ****** ****** ******
      ****** ****** ****** ****** ****** ****** ****** ****** ****** ******
      ****** ****** ****** ****** ****** ****** ****** ****** ****** ******
   4  ****** ****** ****** ****** ****** ****** ****** ****** ****** ******
      ****** ****** ****** ****** ****** ****** ****** ****** ****** ******
      ****** ****** ****** ****** ****** ****** ****** ****** ****** ******
   5  ****** ****** ****** ****** ****** ****** ****** ****** ****** ******
      ****** ****** ****** ****** ****** ****** ****** ****** ****** ******
      ****** ****** ****** ****** ****** ****** ****** ****** ****** ******
   6  ****** ****** ****** ****** ****** ****** ****** ****** ****** ******
      ****** ****** ****** ****** ****** ****** ****** ****** ****** ******
      ****** ****** ****** ****** ****** ****** ****** ****** ****** ******
   7  ****** ****** ****** ****** ****** ****** ****** ****** ****** ******
      ****** ****** ****** ****** ****** ****** ****** ****** ****** ******
      ****** ****** ****** ****** ****** ****** ****** ****** ****** ******
   8  ****** ****** ****** ****** ****** ****** ****** ****** ****** ******
      ****** ****** ****** ****** ****** ****** ****** ****** ****** ******
      ****** ****** ****** ****** ****** ****** ****** ****** ****** ******
   9  ****** ****** ****** ****** ****** ****** ****** ****** ****** ******
      ****** ****** ****** ****** ****** ****** ****** ****** ****** ******
      ****** ****** ****** ****** ****** ****** ****** ****** ****** ******
  10  ****** ****** ****** ****** ****** ****** ****** ****** ****** ******
      ****** ****** ****** ****** ****** ****** ****** ****** ****** ******
      ****** ****** ****** ****** ****** ****** ****** ****** ****** ******
  11  ****** ****** ****** ****** ****** ****** ****** ****** ****** ******
      ****** ****** ****** ****** ****** ****** ****** ****** ****** ******
      ****** ****** ****** ****** ****** ****** ****** ****** ****** ******
  12  ****** ****** ****** ****** ****** ****** ****** ****** ****** ******
      ****** ****** ****** ****** ****** ****** ****** ****** ****** ******
      ****** ****** ****** ****** ****** ****** ****** ****** ****** ******
  13  ****** ****** ****** ****** ****** ****** ****** ****** ****** ******
      ****** ****** ****** ****** ****** ****** ****** ****** ****** ******
      ****** ****** ****** ****** ****** ****** ****** ****** ****** ******
  14  ****** ****** ****** ****** ****** ****** ****** ****** ****** ******
      ****** ****** ****** ****** ****** ****** ****** ****** ****** ******
      ****** ****** ****** ****** ****** ****** ****** ****** ****** ******
  15  ****** ****** ****** ****** ****** ****** ****** ****** ****** ******
      ****** ****** ****** ****** ****** ****** ****** ****** ****** ******
      ****** ****** ****** ****** ****** ****** ****** ****** ****** ******
  16  ****** ****** ****** ****** ****** ****** ****** ****** ****** ******
      ****** ****** ****** ****** ****** ****** ****** ****** ****** ******
      ****** ****** ****** ****** ****** ****** ****** ****** ****** ******
  17  ****** ****** ****** ****** ****** ****** ****** ****** ****** ******
      ****** ****** ****** ****** ****** ****** ****** ****** ****** ******
      ****** ****** ****** ****** ****** ****** ****** ****** ****** ******
  18  ****** ****** ****** ****** ****** ****** ****** ****** ****** ******
      ****** ****** ****** ****** ****** ****** ****** ****** ****** ******
      ****** ****** ****** ****** ****** ****** ****** ****** ****** ******
  19  ****** ****** ****** ****** ****** ****** ****** ****** ****** ******
      ****** ****** ****** ****** ****** ****** ****** ****** ****** ******
      ****** ****** ****** ****** ****** ****** ****** ****** ****** ******
  20  ****** ****** ****** ****** ****** ****** ****** ****** ****** ******
      ****** ****** ****** ****** ****** ****** ****** ****** ****** ******
      ****** ****** ****** ****** ****** ****** ****** ****** ****** ******
  21  ****** ****** ****** ****** ****** ****** ****** ****** ****** ******
      ****** ****** ****** ****** ****** ****** ****** ****** ****** ******
      ****** ****** ****** ****** ****** ****** ****** ****** ****** ******
  22  ****** ****** ****** ****** ****** ****** ****** ****** ****** ******
      ****** ****** ****** ****** ****** ****** ****** ****** ****** ******
      ****** ****** ****** ****** ****** ****** ****** ****** ****** ******
  23  ****** ****** ****** ****** ****** ****** ****** ****** ****** ******
      ****** ****** ****** ****** ****** ****** ****** ****** ****** ******
      ****** ****** ****** ****** ****** ****** ****** ****** ****** ******
  24  ****** ****** ****** ****** ****** ****** ****** ****** ****** ******
      ****** ****** ****** ****** ****** ****** ****** ****** ****** ******
      ****** ****** ****** ****** ****** ****** ****** ****** ****** ******
  25  ****** ****** ****** ****** ****** ****** ****** ****** ****** ******
      ****** ****** ****** ****** ****** ****** ****** ****** ****** ******
      ****** ****** ****** ****** ****** ****** ****** ****** ****** ******

 HEAD WILL BE SAVED ON UNIT   51 AT END OF TIME STEP    1, STRESS PERIOD   11
1
  VOLUMETRIC BUDGET FOR ENTIRE MODEL AT END OF TIME STEP    1, STRESS PERIOD  11
  ------------------------------------------------------------------------------

     CUMULATIVE VOLUMES      L**3       RATES FOR THIS TIME STEP      L**3/T
     ------------------                 ------------------------

           IN:                                      IN:
           ---                                      ---
             STORAGE =    24588062.3951               STORAGE =       11849.5514
       CONSTANT HEAD =   114977859.7988         CONSTANT HEAD =      125126.1069
               WELLS =           0.0000                 WELLS =           0.0000
            RECHARGE =    23901600.0000              RECHARGE =           0.0000
      STREAM LEAKAGE =    12008287.0220        STREAM LEAKAGE =       13323.5595

            TOTAL IN =   175475809.2159              TOTAL IN =      150299.2178

          OUT:                                     OUT:
          ----                                     ----
             STORAGE =     2258145.3060               STORAGE =           0.0000
       CONSTANT HEAD =           0.0000         CONSTANT HEAD =           0.0000
               WELLS =    42415895.8737                 WELLS =       42246.9082
            RECHARGE =           0.0000              RECHARGE =           0.0000
      STREAM LEAKAGE =   130801769.0319        STREAM LEAKAGE =      108052.3117

           TOTAL OUT =   175475810.2116             TOTAL OUT =      150299.2200

            IN - OUT =          -0.9957              IN - OUT =      -2.1487E-03

 PERCENT DISCREPANCY =          -0.00     PERCENT DISCREPANCY =          -0.00






         TIME SUMMARY AT END OF TIME STEP    1 IN STRESS PERIOD   11
                    SECONDS     MINUTES      HOURS       DAYS        YEARS
                    -----------------------------------------------------------
   TIME STEP LENGTH 7.86240E+06 1.31040E+05  2184.0      91.000     0.24914    
 STRESS PERIOD TIME 7.86240E+06 1.31040E+05  2184.0      91.000     0.24914    
         TOTAL TIME 8.67456E+07 1.44576E+06  24096.      1004.0      2.7488    
1
1
                            STRESS PERIOD NO.   12, LENGTH =   91.00000    
                            -----------------------------------------------

                              NUMBER OF TIME STEPS =     1

                               MULTIPLIER FOR DELT =     1.500

                            INITIAL TIME STEP SIZE =   91.00000    

 WELL NO.  LAYER   ROW   COL   STRESS RATE         
 --------------------------------------------------
      1      1     17     21     -0.3064E+05
      2      1     16     17     -0.1161E+05
      3      1     13     18       0.000    
      4      1     14     25       0.000    

      4 WELLS

                 RECHARGE =  1.000000E-03

 REUSING STREAM SEGMENT DATA FROM LAST STRESS PERIOD
 
 SOLVING FOR HEAD 


     6 CALLS TO PCG ROUTINE FOR TIME STEP   1 IN STRESS PERIOD   12
    23 TOTAL ITERATIONS

 OUTPUT CONTROL FOR STRESS PERIOD   12   TIME STEP    1
    SAVE BUDGET
    SAVE HEAD FOR ALL LAYERS
    PRINT HEAD FOR ALL LAYERS
 UBDSV2 SAVING "STREAMFLOW OUT  " ON UNIT  50 AT TIME STEP  1, STRESS PERIOD  12



 STREAM LISTING     PERIOD     12   STEP        1

 LAYER ROW COL. STREAM  RCH.  FLOW INTO     FLOW TO   FLOW OUT OF   OVRLND.     DIRECT     STREAM       STREAM     STREAM     STREAM   STREAMBED  STREAMBED
                SEG.NO.  NO.  STRM. RCH.    AQUIFER    STRM. RCH.    RUNOFF     PRECIP       ET          HEAD       DEPTH      WIDTH   CONDCTNC.   GRADIENT

   1   13    1     1     1    1.0000E+05 -2.8626E+03   1.0286E+05  0.000E+00  0.000E+00  0.000E+00  4.84073E+01  1.459E-01  2.000E+01  2.000E+04 -1.431E-01
   1   13    2     1     2    1.0286E+05 -4.7938E+03   1.0766E+05  0.000E+00  0.000E+00  0.000E+00  4.79333E+01  1.492E-01  2.000E+01  2.000E+04 -2.397E-01
   1   14    3     1     3    1.0766E+05 -3.8575E+03   1.1151E+05  0.000E+00  0.000E+00  0.000E+00  4.74596E+01  1.528E-01  2.000E+01  2.000E+04 -1.929E-01
   1   15    4     1     4    1.1151E+05 -3.7581E+03   1.1527E+05  0.000E+00  0.000E+00  0.000E+00  4.69855E+01  1.560E-01  2.000E+01  2.000E+04 -1.879E-01
   1   16    5     1     5    1.1527E+05 -4.0703E+03   1.1934E+05  0.000E+00  0.000E+00  0.000E+00  4.65115E+01  1.592E-01  2.000E+01  2.000E+04 -2.035E-01
   1   16    6     1     6    1.1934E+05 -3.2120E+03   1.2255E+05  0.000E+00  0.000E+00  0.000E+00  4.60371E+01  1.621E-01  2.000E+01  2.000E+04 -1.606E-01
   1   16    7     1     7    1.2255E+05 -3.2663E+03   1.2582E+05  0.000E+00  0.000E+00  0.000E+00  4.55625E+01  1.647E-01  2.000E+01  2.000E+04 -1.633E-01
   1   16    8     1     8    1.2582E+05 -3.2832E+03   1.2910E+05  0.000E+00  0.000E+00  0.000E+00  4.50878E+01  1.673E-01  2.000E+01  2.000E+04 -1.642E-01
   1   16    9     1     9    1.2910E+05 -3.2442E+03   1.3235E+05  0.000E+00  0.000E+00  0.000E+00  4.46131E+01  1.699E-01  2.000E+01  2.000E+04 -1.622E-01
   1   16   10     1    10    1.3235E+05 -3.1411E+03   1.3549E+05  0.000E+00  0.000E+00  0.000E+00  4.41383E+01  1.724E-01  2.000E+01  2.000E+04 -1.571E-01
   1   16   11     1    11    1.3549E+05 -2.9615E+03   1.3845E+05  0.000E+00  0.000E+00  0.000E+00  4.36633E+01  1.747E-01  2.000E+01  2.000E+04 -1.481E-01
   1   16   12     1    12    1.3845E+05 -3.1936E+03   1.4164E+05  0.000E+00  0.000E+00  0.000E+00  4.31884E+01  1.770E-01  2.000E+01  2.000E+04 -1.597E-01
   1   15   13     1    13    1.4164E+05 -2.5381E+03   1.4418E+05  0.000E+00  0.000E+00  0.000E+00  4.27133E+01  1.792E-01  2.000E+01  2.000E+04 -1.269E-01
   1   14   14     1    14    1.4418E+05 -2.2990E+03   1.4648E+05  0.000E+00  0.000E+00  0.000E+00  4.22378E+01  1.810E-01  2.000E+01  2.000E+04 -1.150E-01
   1   13   15     1    15    1.4648E+05 -2.7018E+03   1.4918E+05  0.000E+00  0.000E+00  0.000E+00  4.17624E+01  1.829E-01  2.000E+01  2.000E+04 -1.351E-01
   1   12   16     1    16    1.4918E+05 -4.7385E+03   1.5392E+05  0.000E+00  0.000E+00  0.000E+00  4.12879E+01  1.856E-01  2.000E+01  2.000E+04 -2.369E-01
   1   12   17     1    17    1.5392E+05 -2.5558E+03   1.5648E+05  0.000E+00  0.000E+00  0.000E+00  4.08133E+01  1.883E-01  2.000E+01  2.000E+04 -1.278E-01
   1   12   18     1    18    1.5648E+05 -2.3848E+03   1.5886E+05  0.000E+00  0.000E+00  0.000E+00  4.03378E+01  1.901E-01  2.000E+01  2.000E+04 -1.192E-01
   1   12   19     1    19    1.5886E+05 -3.6772E+03   1.6254E+05  0.000E+00  0.000E+00  0.000E+00  3.98627E+01  1.923E-01  2.000E+01  2.000E+04 -1.839E-01
   1   13   20     1    20    1.6254E+05 -6.5902E+02   1.6320E+05  0.000E+00  0.000E+00  0.000E+00  3.93870E+01  1.938E-01  2.000E+01  2.000E+04 -3.295E-02
   1   14   21     1    21    1.6320E+05  2.5915E+03   1.6061E+05  0.000E+00  0.000E+00  0.000E+00  3.89091E+01  1.931E-01  2.000E+01  2.000E+04  1.296E-01
   1   14   22     1    22    1.6061E+05  5.7461E+03   1.5486E+05  0.000E+00  0.000E+00  0.000E+00  3.84288E+01  1.901E-01  2.000E+01  2.000E+04  2.873E-01
   1    9   30     2     1    5.0000E+04 -2.7791E+03   5.2779E+04  0.000E+00  0.000E+00  0.000E+00  4.02428E+01  1.178E-01  2.000E+01  2.000E+04 -1.390E-01
   1    9   29     2     2    5.2779E+04 -3.1109E+03   5.5890E+04  0.000E+00  0.000E+00  0.000E+00  3.99968E+01  1.218E-01  2.000E+01  2.000E+04 -1.555E-01
   1    9   28     2     3    5.5890E+04 -3.4913E+03   5.9381E+04  0.000E+00  0.000E+00  0.000E+00  3.97512E+01  1.262E-01  2.000E+01  2.000E+04 -1.746E-01
   1    9   27     2     4    5.9381E+04 -6.2169E+03   6.5598E+04  0.000E+00  0.000E+00  0.000E+00  3.95075E+01  1.325E-01  2.000E+01  2.000E+04 -3.108E-01
   1   10   26     2     5    6.5598E+04 -3.8473E+03   6.9446E+04  0.000E+00  0.000E+00  0.000E+00  3.92638E+01  1.388E-01  2.000E+01  2.000E+04 -1.924E-01
   1   11   25     2     6    6.9446E+04 -2.7993E+03   7.2245E+04  0.000E+00  0.000E+00  0.000E+00  3.90178E+01  1.428E-01  2.000E+01  2.000E+04 -1.400E-01
   1   12   24     2     7    7.2245E+04 -1.9433E+03   7.4188E+04  0.000E+00  0.000E+00  0.000E+00  3.87707E+01  1.457E-01  2.000E+01  2.000E+04 -9.716E-02
   1   13   23     2     8    7.4188E+04 -1.0737E+03   7.5262E+04  0.000E+00  0.000E+00  0.000E+00  3.85225E+01  1.475E-01  2.000E+01  2.000E+04 -5.369E-02
   1   14   22     2     9    7.5262E+04  2.6015E+03   7.2660E+04  0.000E+00  0.000E+00  0.000E+00  3.82715E+01  1.465E-01  2.000E+01  2.000E+04  1.301E-01
   1   14   22     3     1    2.2752E+05 -7.7470E+03   2.3527E+05  0.000E+00  0.000E+00  0.000E+00  3.77541E+01  1.986E-01  2.000E+01  2.000E+04 -3.873E-01
   1   15   23     3     2    2.3527E+05  1.8925E+03   2.3338E+05  0.000E+00  0.000E+00  0.000E+00  3.68667E+01  2.001E-01  2.000E+01  2.000E+04  9.463E-02
   1   15   24     3     3    2.3338E+05 -3.9018E+02   2.3377E+05  0.000E+00  0.000E+00  0.000E+00  3.59775E+01  1.997E-01  2.000E+01  2.000E+04 -1.951E-02
   1   15   25     3     4    2.3377E+05 -1.0254E+03   2.3479E+05  0.000E+00  0.000E+00  0.000E+00  3.50889E+01  2.001E-01  2.000E+01  2.000E+04 -5.127E-02
   1   15   26     3     5    2.3479E+05 -1.8518E+03   2.3664E+05  0.000E+00  0.000E+00  0.000E+00  3.42008E+01  2.008E-01  2.000E+01  2.000E+04 -9.259E-02
   1   16   27     3     6    2.3664E+05 -2.4275E+03   2.3907E+05  0.000E+00  0.000E+00  0.000E+00  3.33130E+01  2.019E-01  2.000E+01  2.000E+04 -1.214E-01
   1   17   28     3     7    2.3907E+05 -3.4121E+03   2.4248E+05  0.000E+00  0.000E+00  0.000E+00  3.24256E+01  2.034E-01  2.000E+01  2.000E+04 -1.706E-01
   1   18   29     3     8    2.4248E+05 -5.2249E+03   2.4771E+05  0.000E+00  0.000E+00  0.000E+00  3.15389E+01  2.055E-01  2.000E+01  2.000E+04 -2.612E-01
   1   18   30     3     9    2.4771E+05 -4.6220E+03   2.5233E+05  0.000E+00  0.000E+00  0.000E+00  3.06525E+01  2.080E-01  2.000E+01  2.000E+04 -2.311E-01



1
              HEAD IN LAYER   1 AT END OF TIME STEP   1 IN STRESS PERIOD   12
  ---------------------------------------------------------------------------

          1      2      3      4      5      6      7      8      9     10
         11     12     13     14     15     16     17     18     19     20
         21     22     23     24     25     26     27     28     29     30
 .........................................................................
   1  ****** ****** ****** ****** ****** ****** ****** ****** ****** ******
      ****** ****** ****** ****** ****** ****** ****** ****** ****** ******
      ****** ****** ****** ****** ****** ****** ****** ****** ****** ******
   2  ****** ****** ****** ****** ****** ****** ****** ****** ****** ******
      ****** ****** ****** ****** ****** ****** ****** ****** ****** ******
      ****** ****** ****** ****** ****** ****** ****** ****** ****** ******
   3  ****** ****** ****** ****** ****** ****** ****** ****** ****** ******
      ****** ****** ****** ****** ****** ****** ****** ****** ****** ******
      ****** ****** ****** ****** ****** ****** ****** ****** ****** ******
   4  ****** ****** ****** ****** ****** ****** ****** ****** ****** ******
      ****** ****** ****** ****** ****** ****** ****** ****** ****** ******
      ****** ****** ****** ****** ****** ****** ****** ****** ****** ******
   5  ****** ****** ****** ****** ****** ****** ****** ****** ****** ******
      ****** ****** ****** ****** ****** ****** ****** ****** ****** ******
      ****** ****** ****** ****** ****** ****** ****** ****** ****** ******
   6  ****** ****** ****** ****** ****** ****** ****** ****** ****** ******
      ****** ****** ****** ****** ****** ****** ****** ****** ****** ******
      ****** ****** ****** ****** ****** ****** ****** ****** ****** ******
   7  ****** ****** ****** ****** ****** ****** ****** ****** ****** ******
      ****** ****** ****** ****** ****** ****** ****** ****** ****** ******
      ****** ****** ****** ****** ****** ****** ****** ****** ****** ******
   8  ****** ****** ****** ****** ****** ****** ****** ****** ****** ******
      ****** ****** ****** ****** ****** ****** ****** ****** ****** ******
      ****** ****** ****** ****** ****** ****** ****** ****** ****** ******
   9  ****** ****** ****** ****** ****** ****** ****** ****** ****** ******
      ****** ****** ****** ****** ****** ****** ****** ****** ****** ******
      ****** ****** ****** ****** ****** ****** ****** ****** ****** ******
  10  ****** ****** ****** ****** ****** ****** ****** ****** ****** ******
      ****** ****** ****** ****** ****** ****** ****** ****** ****** ******
      ****** ****** ****** ****** ****** ****** ****** ****** ****** ******
  11  ****** ****** ****** ****** ****** ****** ****** ****** ****** ******
      ****** ****** ****** ****** ****** ****** ****** ****** ****** ******
      ****** ****** ****** ****** ****** ****** ****** ****** ****** ******
  12  ****** ****** ****** ****** ****** ****** ****** ****** ****** ******
      ****** ****** ****** ****** ****** ****** ****** ****** ****** ******
      ****** ****** ****** ****** ****** ****** ****** ****** ****** ******
  13  ****** ****** ****** ****** ****** ****** ****** ****** ****** ******
      ****** ****** ****** ****** ****** ****** ****** ****** ****** ******
      ****** ****** ****** ****** ****** ****** ****** ****** ****** ******
  14  ****** ****** ****** ****** ****** ****** ****** ****** ****** ******
      ****** ****** ****** ****** ****** ****** ****** ****** ****** ******
      ****** ****** ****** ****** ****** ****** ****** ****** ****** ******
  15  ****** ****** ****** ****** ****** ****** ****** ****** ****** ******
      ****** ****** ****** ****** ****** ****** ****** ****** ****** ******
      ****** ****** ****** ****** ****** ****** ****** ****** ****** ******
  16  ****** ****** ****** ****** ****** ****** ****** ****** ****** ******
      ****** ****** ****** ****** ****** ****** ****** ****** ****** ******
      ****** ****** ****** ****** ****** ****** ****** ****** ****** ******
  17  ****** ****** ****** ****** ****** ****** ****** ****** ****** ******
      ****** ****** ****** ****** ****** ****** ****** ****** ****** ******
      ****** ****** ****** ****** ****** ****** ****** ****** ****** ******
  18  ****** ****** ****** ****** ****** ****** ****** ****** ****** ******
      ****** ****** ****** ****** ****** ****** ****** ****** ****** ******
      ****** ****** ****** ****** ****** ****** ****** ****** ****** ******
  19  ****** ****** ****** ****** ****** ****** ****** ****** ****** ******
      ****** ****** ****** ****** ****** ****** ****** ****** ****** ******
      ****** ****** ****** ****** ****** ****** ****** ****** ****** ******
  20  ****** ****** ****** ****** ****** ****** ****** ****** ****** ******
      ****** ****** ****** ****** ****** ****** ****** ****** ****** ******
      ****** ****** ****** ****** ****** ****** ****** ****** ****** ******
  21  ****** ****** ****** ****** ****** ****** ****** ****** ****** ******
      ****** ****** ****** ****** ****** ****** ****** ****** ****** ******
      ****** ****** ****** ****** ****** ****** ****** ****** ****** ******
  22  ****** ****** ****** ****** ****** ****** ****** ****** ****** ******
      ****** ****** ****** ****** ****** ****** ****** ****** ****** ******
      ****** ****** ****** ****** ****** ****** ****** ****** ****** ******
  23  ****** ****** ****** ****** ****** ****** ****** ****** ****** ******
      ****** ****** ****** ****** ****** ****** ****** ****** ****** ******
      ****** ****** ****** ****** ****** ****** ****** ****** ****** ******
  24  ****** ****** ****** ****** ****** ****** ****** ****** ****** ******
      ****** ****** ****** ****** ****** ****** ****** ****** ****** ******
      ****** ****** ****** ****** ****** ****** ****** ****** ****** ******
  25  ****** ****** ****** ****** ****** ****** ****** ****** ****** ******
      ****** ****** ****** ****** ****** ****** ****** ****** ****** ******
      ****** ****** ****** ****** ****** ****** ****** ****** ****** ******

 HEAD WILL BE SAVED ON UNIT   51 AT END OF TIME STEP    1, STRESS PERIOD   12
1
  VOLUMETRIC BUDGET FOR ENTIRE MODEL AT END OF TIME STEP    1, STRESS PERIOD  12
  ------------------------------------------------------------------------------

     CUMULATIVE VOLUMES      L**3       RATES FOR THIS TIME STEP      L**3/T
     ------------------                 ------------------------

           IN:                                      IN:
           ---                                      ---
             STORAGE =    24588062.3951               STORAGE =           0.0000
       CONSTANT HEAD =   125962468.9862         CONSTANT HEAD =      120709.9911
               WELLS =           0.0000                 WELLS =           0.0000
            RECHARGE =    26413200.0000              RECHARGE =       27600.0000
      STREAM LEAKAGE =    13175962.3925        STREAM LEAKAGE =       12831.5975

            TOTAL IN =   190139693.7738              TOTAL IN =      161141.5885

          OUT:                                     OUT:
          ----                                     ----
             STORAGE =     2597911.1288               STORAGE =        3733.6904
       CONSTANT HEAD =           0.0000         CONSTANT HEAD =           0.0000
               WELLS =    46260364.5236                 WELLS =       42246.9082
            RECHARGE =           0.0000              RECHARGE =           0.0000
      STREAM LEAKAGE =   141281419.0401        STREAM LEAKAGE =      115160.9891

           TOTAL OUT =   190139694.6926             TOTAL OUT =      161141.5877

            IN - OUT =          -0.9189              IN - OUT =       8.4475E-04

 PERCENT DISCREPANCY =          -0.00     PERCENT DISCREPANCY =           0.00






         TIME SUMMARY AT END OF TIME STEP    1 IN STRESS PERIOD   12
                    SECONDS     MINUTES      HOURS       DAYS        YEARS
                    -----------------------------------------------------------
   TIME STEP LENGTH 7.86240E+06 1.31040E+05  2184.0      91.000     0.24914    
 STRESS PERIOD TIME 7.86240E+06 1.31040E+05  2184.0      91.000     0.24914    
         TOTAL TIME 9.46080E+07 1.57680E+06  26280.      1095.0      2.9979    
1

 Run end date and time (yyyy/mm/dd hh:mm:ss): 2018/10/10 14:41:45
 Elapsed run time:  0.050 Seconds

