                                  MODFLOW-2005     
      U.S. GEOLOGICAL SURVEY MODULAR FINITE-DIFFERENCE GROUND-WATER FLOW MODEL
                            VERSION 1.11.00 8/8/2013

 LIST FILE: supply2.lst
                         UNIT   10

 OPENING ..\data\supply.dis
 FILE TYPE:DIS   UNIT   11   STATUS:OLD    
 FORMAT:FORMATTED              ACCESS:SEQUENTIAL          

 OPENING ..\data\supply.ba6
 FILE TYPE:BAS6   UNIT   12   STATUS:OLD    
 FORMAT:FORMATTED              ACCESS:SEQUENTIAL          

 OPENING ..\data\supply_het.bc6
 FILE TYPE:BCF6   UNIT   13   STATUS:OLD    
 FORMAT:FORMATTED              ACCESS:SEQUENTIAL          

 OPENING ..\data\supply.rch
 FILE TYPE:RCH   UNIT   15   STATUS:OLD    
 FORMAT:FORMATTED              ACCESS:SEQUENTIAL          

 OPENING ..\data\supply2.sfr
 FILE TYPE:SFR   UNIT   16   STATUS:OLD    
 FORMAT:FORMATTED              ACCESS:SEQUENTIAL          

 OPENING ..\data\supply.oc
 FILE TYPE:OC   UNIT   17   STATUS:OLD    
 FORMAT:FORMATTED              ACCESS:SEQUENTIAL          

 OPENING ..\data\supply.pcg
 FILE TYPE:PCG   UNIT   18   STATUS:OLD    
 FORMAT:FORMATTED              ACCESS:SEQUENTIAL          

 OPENING supply2.wel
 FILE TYPE:WEL   UNIT   19   STATUS:OLD    
 FORMAT:FORMATTED              ACCESS:SEQUENTIAL          

 OPENING supply2sf.cbc
 FILE TYPE:DATA(BINARY)   UNIT   50   STATUS:UNKNOWN
 FORMAT:BINARY                 ACCESS:SEQUENTIAL          

 OPENING supply2hd.bhd
 FILE TYPE:DATA(BINARY)   UNIT   51   STATUS:UNKNOWN
 FORMAT:BINARY                 ACCESS:SEQUENTIAL          

 BAS -- BASIC PACKAGE, VERSION 7, 5/2/2005 INPUT READ FROM UNIT   12
 
 MODFLOW was compiled using uniform precision
 Precision of REAL and DOUBLE PRECISION variables:          15

 DISCRETIZATION INPUT DATA READ FROM UNIT   11
    1 LAYERS        25 ROWS        30 COLUMNS
   12 STRESS PERIOD(S) IN SIMULATION
 MODEL TIME UNIT IS DAYS
 MODEL LENGTH UNIT IS UNDEFINED
  Confining bed flag for each layer:
   0

                     DELR =   200.000    

                     DELC =   200.000    

 TOP ELEVATION OF LAYER 1 =  100.0000    

   MODEL LAYER BOTTOM EL. =   0.00000     FOR LAYER   1


 STRESS PERIOD     LENGTH       TIME STEPS     MULTIPLIER FOR DELT    SS FLAG
 ----------------------------------------------------------------------------
        1         92.00000          1                    1.500         TR
        2         91.00000          1                    1.500         TR
        3         91.00000          1                    1.500         TR
        4         91.00000          1                    1.500         TR
        5         92.00000          1                    1.500         TR
        6         91.00000          1                    1.500         TR
        7         91.00000          1                    1.500         TR
        8         91.00000          1                    1.500         TR
        9         92.00000          1                    1.500         TR
       10         91.00000          1                    1.500         TR
       11         91.00000          1                    1.500         TR
       12         91.00000          1                    1.500         TR

 TRANSIENT SIMULATION



 
 #MODOFC transient water supply sample problem                                   
 #                                                                               
 THE FREE FORMAT OPTION HAS BEEN SELECTED



                     BOUNDARY ARRAY FOR LAYER   1
 READING ON UNIT   12 WITH FORMAT: (20I4)              

 AQUIFER HEAD WILL BE SET TO   0.0000     AT ALL NO-FLOW NODES (IBOUND=0).



                       INITIAL HEAD FOR LAYER   1
 READING ON UNIT   12 WITH FORMAT: (10F13.0)           

 OUTPUT CONTROL IS SPECIFIED ONLY AT TIME STEPS FOR WHICH OUTPUT IS DESIRED
 COMPACT CELL-BY-CELL BUDGET FILES WILL BE WRITTEN
 HEAD PRINT FORMAT CODE IS  18    DRAWDOWN PRINT FORMAT CODE IS   0
 HEADS WILL BE SAVED ON UNIT   51    DRAWDOWNS WILL BE SAVED ON UNIT    0

 BCF -- BLOCK-CENTERED FLOW PACKAGE, VERSION 7, 5/2/2005
         INPUT READ FROM UNIT 13
 TRANSIENT SIMULATION
 HEAD AT CELLS THAT CONVERT TO DRY=   0.0000    
 WETTING CAPABILITY IS NOT ACTIVE
      LAYER  LAYER-TYPE CODE     INTERBLOCK T
      --------------------------------------------
         1            0          0 -- HARMONIC    

 COLUMN TO ROW ANISOTROPY =  1.000000    

     PRIMARY STORAGE COEF =  5.000000E-02 FOR LAYER   1



               TRANSMIS. ALONG ROWS FOR LAYER   1
 READING ON UNIT   13 WITH FORMAT: (FREE)              

 WEL -- WELL PACKAGE, VERSION 7, 5/2/2005 INPUT READ FROM UNIT   19
 # Well package input file written by MMProc
 No named parameters
 MAXIMUM OF      4 ACTIVE WELLS AT ONE TIME


     0 Well parameters

 RCH -- RECHARGE PACKAGE, VERSION 7, 5/2/2005 INPUT READ FROM UNIT   15
 No named parameters
 OPTION 1 -- RECHARGE TO TOP LAYER


     0 Recharge parameters

 SFR7 -- STREAMFLOW ROUTING PACKAGE, VERSION 1.0.7, 2013-01-15
         INPUT READ FROM UNIT  16
 #  Supply2 test problem for GWM-VI
 #  The eighth entry in the first data line is ISTCB2 -
 #    Setting this to a negative number indicates that
 #    streamflows out of the reach will be saved to a
 #    binary file.  The absolute value of ISTCB2 is the
 #    unit to which unformatted flows will be written.
 #
 No named parameters
 Segment information will not be 
 read by reach
 No named parameters
 No specifed inflow files


 NUMBER OF STREAM REACHES IS   40

 NUMBER OF STREAM SEGMENTS IS    3

 NUMBER OF STREAM PARAMETERS IS    0

 NUMBER OF STREAM SEGMENTS DEFINED USING PARAMETERS IS              0

 MAXIMUM ERROR FOR STREAM LEAKAGE RATES IS  1.00E-04

 CONSTANT FOR MANNINGS EQUATION IS  1.2839E+05





   STREAM NETWORK DESCRIPTION: 

   LAYER    ROW    COL   SEGMENT   REACH     LENGTH
                          NUMBER   NUMBER    IN CELL        
   --------------------------------------------------
      1     13      1       1        1    2.0000E+02
      1     13      2       1        2    2.0000E+02
      1     14      3       1        3    2.0000E+02
      1     15      4       1        4    2.0000E+02
      1     16      5       1        5    2.0000E+02
      1     16      6       1        6    2.0000E+02
      1     16      7       1        7    2.0000E+02
      1     16      8       1        8    2.0000E+02
      1     16      9       1        9    2.0000E+02
      1     16     10       1       10    2.0000E+02
      1     16     11       1       11    2.0000E+02
      1     16     12       1       12    2.0000E+02
      1     15     13       1       13    2.0000E+02
      1     14     14       1       14    2.0000E+02
      1     13     15       1       15    2.0000E+02
      1     12     16       1       16    2.0000E+02
      1     12     17       1       17    2.0000E+02
      1     12     18       1       18    2.0000E+02
      1     12     19       1       19    2.0000E+02
      1     13     20       1       20    2.0000E+02
      1     14     21       1       21    2.0000E+02
      1     14     22       1       22    2.0000E+02
      1      9     30       2        1    2.0000E+02
      1      9     29       2        2    2.0000E+02
      1      9     28       2        3    2.0000E+02
      1      9     27       2        4    2.0000E+02
      1     10     26       2        5    2.0000E+02
      1     11     25       2        6    2.0000E+02
      1     12     24       2        7    2.0000E+02
      1     13     23       2        8    2.0000E+02
      1     14     22       2        9    2.0000E+02
      1     14     22       3        1    2.0000E+02
      1     15     23       3        2    2.0000E+02
      1     15     24       3        3    2.0000E+02
      1     15     25       3        4    2.0000E+02
      1     15     26       3        5    2.0000E+02
      1     16     27       3        6    2.0000E+02
      1     17     28       3        7    2.0000E+02
      1     18     29       3        8    2.0000E+02
      1     18     30       3        9    2.0000E+02




 PCG -- CONJUGATE-GRADIENT SOLUTION PACKAGE, VERSION 7, 5/2/2005
 MAXIMUM OF    500 CALLS OF SOLUTION ROUTINE
 MAXIMUM OF      5 INTERNAL ITERATIONS PER CALL TO SOLUTION ROUTINE
 MATRIX PRECONDITIONING TYPE :    1



                                    SOLUTION BY THE CONJUGATE-GRADIENT METHOD
                                   -------------------------------------------
                    MAXIMUM NUMBER OF CALLS TO PCG ROUTINE =      500
                        MAXIMUM ITERATIONS PER CALL TO PCG =        5
                               MATRIX PRECONDITIONING TYPE =        1
        RELAXATION FACTOR (ONLY USED WITH PRECOND. TYPE 1) =    0.10000E+01
 PARAMETER OF POLYNOMIAL PRECOND. = 2 (2) OR IS CALCULATED :        0
                         HEAD CHANGE CRITERION FOR CLOSURE =    0.10000E-05
                     RESIDUAL CHANGE CRITERION FOR CLOSURE =    0.10000E+01
            PCG HEAD AND RESIDUAL CHANGE PRINTOUT INTERVAL =        1
     PRINTING FROM SOLVER IS LIMITED(1) OR SUPPRESSED (>1) =        1
                            STEADY-STATE DAMPING PARAMETER =    0.10000E+01
                               TRANSIENT DAMPING PARAMETER =    0.10000E+01
1
                            STRESS PERIOD NO.    1, LENGTH =   92.00000    
                            -----------------------------------------------

                              NUMBER OF TIME STEPS =     1

                               MULTIPLIER FOR DELT =     1.500

                            INITIAL TIME STEP SIZE =   92.00000    

 WELL NO.  LAYER   ROW   COL   STRESS RATE         
 --------------------------------------------------
      1      1     20     21      -6420.    
      2      1     18     16      -7655.    
      3      1     20     18      -5517.    
      4      1      4      9      -6868.    

      4 WELLS

                 RECHARGE =  5.000000E-04



 CLASSIFICATION & COUNT OF STREAM SEGMENTS BASED ON SOURCE OF INFLOW:

                HEADWATER     DIVERSION     RECEIVES TRIBUTARY FLOW
                ---------     ---------     -----------------------
                     2              0               1



                    INPUT DATA FOR EACH STREAM SEGMENT
 ---------------------------------------------------------------------------------------------

 SEGMENT    SEG.     INFLOW   OVERLAND   STREAM    STREAM   ICALC  OUTFLOW  DIVERSION PRIORITY
    NO.    LENGTH     RATE     RUNOFF      ET       PPT.    METH.  TO SEG.  FROM SEG.    NO.

      1  4.400E+03 1.000E+05 0.000E+00 0.000E+00 0.000E+00    1        3        0        0
      2  1.800E+03 5.000E+04 0.000E+00 0.000E+00 0.000E+00    1        3        0        0
      3  1.800E+03 0.000E+00 0.000E+00 0.000E+00 0.000E+00    1        0        0        0


         STREAMBED PROPERTIES AND STREAM DIMENSIONS

 SEGMENT     BED HYD. COND.      BED THICKNESS     ELEV.-TOP OF BED     WIDTH OF STREAM     DEPTH OF STREAM    STREAM ROUGHNESS
    No.     UPPER     LOWER     UPPER     LOWER     UPPER     LOWER     UPPER     LOWER     UPPER     LOWER   CHANNEL      BANK

     1  5.000E+00 5.000E+00 1.000E+00 1.000E+00 4.850E+01 3.800E+01 2.000E+01 2.000E+01                     5.000E-02
     2  5.000E+00 5.000E+00 1.000E+00 1.000E+00 4.025E+01 3.800E+01 2.000E+01 2.000E+01                     5.000E-02
     3  5.000E+00 5.000E+00 1.000E+00 1.000E+00 3.800E+01 3.000E+01 2.000E+01 2.000E+01                     5.000E-02



 
 SOLVING FOR HEAD 


     9 CALLS TO PCG ROUTINE FOR TIME STEP   1 IN STRESS PERIOD    1
    36 TOTAL ITERATIONS

 OUTPUT CONTROL FOR STRESS PERIOD    1   TIME STEP    1
    SAVE BUDGET
    SAVE HEAD FOR ALL LAYERS
    PRINT HEAD FOR ALL LAYERS
 UBDSV2 SAVING "STREAMFLOW OUT  " ON UNIT  50 AT TIME STEP  1, STRESS PERIOD   1



 STREAM LISTING     PERIOD      1   STEP        1

 LAYER ROW COL. STREAM  RCH.  FLOW INTO     FLOW TO   FLOW OUT OF   OVRLND.     DIRECT     STREAM       STREAM     STREAM     STREAM   STREAMBED  STREAMBED
                SEG.NO.  NO.  STRM. RCH.    AQUIFER    STRM. RCH.    RUNOFF     PRECIP       ET          HEAD       DEPTH      WIDTH   CONDCTNC.   GRADIENT

   1   13    1     1     1    1.0000E+05 -6.0514E+03   1.0605E+05  0.000E+00  0.000E+00  0.000E+00  4.84086E+01  1.473E-01  2.000E+01  2.000E+04 -3.026E-01
   1   13    2     1     2    1.0605E+05 -7.5189E+03   1.1357E+05  0.000E+00  0.000E+00  0.000E+00  4.79371E+01  1.530E-01  2.000E+01  2.000E+04 -3.759E-01
   1   14    3     1     3    1.1357E+05 -2.1942E+03   1.1576E+05  0.000E+00  0.000E+00  0.000E+00  4.74639E+01  1.570E-01  2.000E+01  2.000E+04 -1.097E-01
   1   15    4     1     4    1.1576E+05 -2.2652E+03   1.1803E+05  0.000E+00  0.000E+00  0.000E+00  4.69884E+01  1.589E-01  2.000E+01  2.000E+04 -1.133E-01
   1   16    5     1     5    1.1803E+05 -7.1410E+03   1.2517E+05  0.000E+00  0.000E+00  0.000E+00  4.65149E+01  1.627E-01  2.000E+01  2.000E+04 -3.570E-01
   1   16    6     1     6    1.2517E+05 -4.2644E+03   1.2944E+05  0.000E+00  0.000E+00  0.000E+00  4.60422E+01  1.672E-01  2.000E+01  2.000E+04 -2.132E-01
   1   16    7     1     7    1.2944E+05 -4.0851E+03   1.3352E+05  0.000E+00  0.000E+00  0.000E+00  4.55682E+01  1.705E-01  2.000E+01  2.000E+04 -2.043E-01
   1   16    8     1     8    1.3352E+05 -4.0216E+03   1.3754E+05  0.000E+00  0.000E+00  0.000E+00  4.50941E+01  1.736E-01  2.000E+01  2.000E+04 -2.011E-01
   1   16    9     1     9    1.3754E+05 -3.9758E+03   1.4152E+05  0.000E+00  0.000E+00  0.000E+00  4.46198E+01  1.767E-01  2.000E+01  2.000E+04 -1.988E-01
   1   16   10     1    10    1.4152E+05 -3.9165E+03   1.4543E+05  0.000E+00  0.000E+00  0.000E+00  4.41455E+01  1.796E-01  2.000E+01  2.000E+04 -1.958E-01
   1   16   11     1    11    1.4543E+05 -3.8470E+03   1.4928E+05  0.000E+00  0.000E+00  0.000E+00  4.36712E+01  1.825E-01  2.000E+01  2.000E+04 -1.924E-01
   1   16   12     1    12    1.4928E+05 -6.1797E+03   1.5546E+05  0.000E+00  0.000E+00  0.000E+00  4.31976E+01  1.862E-01  2.000E+01  2.000E+04 -3.090E-01
   1   15   13     1    13    1.5546E+05 -6.5175E+03   1.6198E+05  0.000E+00  0.000E+00  0.000E+00  4.27249E+01  1.909E-01  2.000E+01  2.000E+04 -3.259E-01
   1   14   14     1    14    1.6198E+05 -7.1035E+03   1.6908E+05  0.000E+00  0.000E+00  0.000E+00  4.22525E+01  1.957E-01  2.000E+01  2.000E+04 -3.552E-01
   1   13   15     1    15    1.6908E+05 -7.6361E+03   1.7672E+05  0.000E+00  0.000E+00  0.000E+00  4.17805E+01  2.009E-01  2.000E+01  2.000E+04 -3.818E-01
   1   12   16     1    16    1.7672E+05 -8.5794E+03   1.8530E+05  0.000E+00  0.000E+00  0.000E+00  4.13088E+01  2.065E-01  2.000E+01  2.000E+04 -4.290E-01
   1   12   17     1    17    1.8530E+05 -6.0220E+03   1.9132E+05  0.000E+00  0.000E+00  0.000E+00  4.08365E+01  2.115E-01  2.000E+01  2.000E+04 -3.011E-01
   1   12   18     1    18    1.9132E+05 -5.8869E+03   1.9721E+05  0.000E+00  0.000E+00  0.000E+00  4.03632E+01  2.155E-01  2.000E+01  2.000E+04 -2.943E-01
   1   12   19     1    19    1.9721E+05 -7.5522E+03   2.0476E+05  0.000E+00  0.000E+00  0.000E+00  3.98904E+01  2.199E-01  2.000E+01  2.000E+04 -3.776E-01
   1   13   20     1    20    2.0476E+05 -6.3712E+03   2.1113E+05  0.000E+00  0.000E+00  0.000E+00  3.94176E+01  2.244E-01  2.000E+01  2.000E+04 -3.186E-01
   1   14   21     1    21    2.1113E+05 -5.5669E+03   2.1670E+05  0.000E+00  0.000E+00  0.000E+00  3.89442E+01  2.283E-01  2.000E+01  2.000E+04 -2.783E-01
   1   14   22     1    22    2.1670E+05  3.7849E+03   2.1291E+05  0.000E+00  0.000E+00  0.000E+00  3.84675E+01  2.288E-01  2.000E+01  2.000E+04  1.892E-01
   1    9   30     2     1    5.0000E+04 -4.8575E+03   5.4857E+04  0.000E+00  0.000E+00  0.000E+00  4.02442E+01  1.192E-01  2.000E+01  2.000E+04 -2.429E-01
   1    9   29     2     2    5.4857E+04 -5.1532E+03   6.0011E+04  0.000E+00  0.000E+00  0.000E+00  4.00009E+01  1.259E-01  2.000E+01  2.000E+04 -2.577E-01
   1    9   28     2     3    6.0011E+04 -5.4392E+03   6.5450E+04  0.000E+00  0.000E+00  0.000E+00  3.97578E+01  1.328E-01  2.000E+01  2.000E+04 -2.720E-01
   1    9   27     2     4    6.5450E+04 -8.3001E+03   7.3750E+04  0.000E+00  0.000E+00  0.000E+00  3.95163E+01  1.413E-01  2.000E+01  2.000E+04 -4.150E-01
   1   10   26     2     5    7.3750E+04 -7.3401E+03   8.1090E+04  0.000E+00  0.000E+00  0.000E+00  3.92756E+01  1.506E-01  2.000E+01  2.000E+04 -3.670E-01
   1   11   25     2     6    8.1090E+04 -6.7972E+03   8.7887E+04  0.000E+00  0.000E+00  0.000E+00  3.90337E+01  1.587E-01  2.000E+01  2.000E+04 -3.399E-01
   1   12   24     2     7    8.7887E+04 -6.3109E+03   9.4198E+04  0.000E+00  0.000E+00  0.000E+00  3.87910E+01  1.660E-01  2.000E+01  2.000E+04 -3.155E-01
   1   13   23     2     8    9.4198E+04 -1.6534E+03   9.5852E+04  0.000E+00  0.000E+00  0.000E+00  3.85453E+01  1.703E-01  2.000E+01  2.000E+04 -8.267E-02
   1   14   22     2     9    9.5852E+04  3.5561E+02   9.5496E+04  0.000E+00  0.000E+00  0.000E+00  3.82960E+01  1.710E-01  2.000E+01  2.000E+04  1.778E-02
   1   14   22     3     1    3.0841E+05 -9.6908E+03   3.1810E+05  0.000E+00  0.000E+00  0.000E+00  3.77937E+01  2.381E-01  2.000E+01  2.000E+04 -4.845E-01
   1   15   23     3     2    3.1810E+05 -1.8309E+03   3.1993E+05  0.000E+00  0.000E+00  0.000E+00  3.69074E+01  2.408E-01  2.000E+01  2.000E+04 -9.154E-02
   1   15   24     3     3    3.1993E+05 -1.4984E+03   3.2143E+05  0.000E+00  0.000E+00  0.000E+00  3.60193E+01  2.415E-01  2.000E+01  2.000E+04 -7.492E-02
   1   15   25     3     4    3.2143E+05 -1.5632E+03   3.2299E+05  0.000E+00  0.000E+00  0.000E+00  3.51311E+01  2.422E-01  2.000E+01  2.000E+04 -7.816E-02
   1   15   26     3     5    3.2299E+05 -1.8750E+03   3.2487E+05  0.000E+00  0.000E+00  0.000E+00  3.42430E+01  2.430E-01  2.000E+01  2.000E+04 -9.375E-02
   1   16   27     3     6    3.2487E+05 -2.1496E+03   3.2702E+05  0.000E+00  0.000E+00  0.000E+00  3.33550E+01  2.439E-01  2.000E+01  2.000E+04 -1.075E-01
   1   17   28     3     7    3.2702E+05 -6.4946E+03   3.3351E+05  0.000E+00  0.000E+00  0.000E+00  3.24680E+01  2.458E-01  2.000E+01  2.000E+04 -3.247E-01
   1   18   29     3     8    3.3351E+05 -7.7875E+03   3.4130E+05  0.000E+00  0.000E+00  0.000E+00  3.15823E+01  2.490E-01  2.000E+01  2.000E+04 -3.894E-01
   1   18   30     3     9    3.4130E+05 -7.0559E+03   3.4835E+05  0.000E+00  0.000E+00  0.000E+00  3.06967E+01  2.523E-01  2.000E+01  2.000E+04 -3.528E-01



1
              HEAD IN LAYER   1 AT END OF TIME STEP   1 IN STRESS PERIOD    1
  ---------------------------------------------------------------------------

          1      2      3      4      5      6      7      8      9     10
         11     12     13     14     15     16     17     18     19     20
         21     22     23     24     25     26     27     28     29     30
 .........................................................................
   1  ****** ****** ****** ****** ****** ****** ****** ****** ****** ******
      ****** ****** ****** ****** ****** ****** ****** ****** ****** ******
      ****** ****** ****** ****** ****** ****** ****** ****** ****** ******
   2  ****** ****** ****** ****** ****** ****** ****** ****** ****** ******
      ****** ****** ****** ****** ****** ****** ****** ****** ****** ******
      ****** ****** ****** ****** ****** ****** ****** ****** ****** ******
   3  ****** ****** ****** ****** ****** ****** ****** ****** ****** ******
      ****** ****** ****** ****** ****** ****** ****** ****** ****** ******
      ****** ****** ****** ****** ****** ****** ****** ****** ****** ******
   4  ****** ****** ****** ****** ****** ****** ****** ****** ****** ******
      ****** ****** ****** ****** ****** ****** ****** ****** ****** ******
      ****** ****** ****** ****** ****** ****** ****** ****** ****** ******
   5  ****** ****** ****** ****** ****** ****** ****** ****** ****** ******
      ****** ****** ****** ****** ****** ****** ****** ****** ****** ******
      ****** ****** ****** ****** ****** ****** ****** ****** ****** ******
   6  ****** ****** ****** ****** ****** ****** ****** ****** ****** ******
      ****** ****** ****** ****** ****** ****** ****** ****** ****** ******
      ****** ****** ****** ****** ****** ****** ****** ****** ****** ******
   7  ****** ****** ****** ****** ****** ****** ****** ****** ****** ******
      ****** ****** ****** ****** ****** ****** ****** ****** ****** ******
      ****** ****** ****** ****** ****** ****** ****** ****** ****** ******
   8  ****** ****** ****** ****** ****** ****** ****** ****** ****** ******
      ****** ****** ****** ****** ****** ****** ****** ****** ****** ******
      ****** ****** ****** ****** ****** ****** ****** ****** ****** ******
   9  ****** ****** ****** ****** ****** ****** ****** ****** ****** ******
      ****** ****** ****** ****** ****** ****** ****** ****** ****** ******
      ****** ****** ****** ****** ****** ****** ****** ****** ****** ******
  10  ****** ****** ****** ****** ****** ****** ****** ****** ****** ******
      ****** ****** ****** ****** ****** ****** ****** ****** ****** ******
      ****** ****** ****** ****** ****** ****** ****** ****** ****** ******
  11  ****** ****** ****** ****** ****** ****** ****** ****** ****** ******
      ****** ****** ****** ****** ****** ****** ****** ****** ****** ******
      ****** ****** ****** ****** ****** ****** ****** ****** ****** ******
  12  ****** ****** ****** ****** ****** ****** ****** ****** ****** ******
      ****** ****** ****** ****** ****** ****** ****** ****** ****** ******
      ****** ****** ****** ****** ****** ****** ****** ****** ****** ******
  13  ****** ****** ****** ****** ****** ****** ****** ****** ****** ******
      ****** ****** ****** ****** ****** ****** ****** ****** ****** ******
      ****** ****** ****** ****** ****** ****** ****** ****** ****** ******
  14  ****** ****** ****** ****** ****** ****** ****** ****** ****** ******
      ****** ****** ****** ****** ****** ****** ****** ****** ****** ******
      ****** ****** ****** ****** ****** ****** ****** ****** ****** ******
  15  ****** ****** ****** ****** ****** ****** ****** ****** ****** ******
      ****** ****** ****** ****** ****** ****** ****** ****** ****** ******
      ****** ****** ****** ****** ****** ****** ****** ****** ****** ******
  16  ****** ****** ****** ****** ****** ****** ****** ****** ****** ******
      ****** ****** ****** ****** ****** ****** ****** ****** ****** ******
      ****** ****** ****** ****** ****** ****** ****** ****** ****** ******
  17  ****** ****** ****** ****** ****** ****** ****** ****** ****** ******
      ****** ****** ****** ****** ****** ****** ****** ****** ****** ******
      ****** ****** ****** ****** ****** ****** ****** ****** ****** ******
  18  ****** ****** ****** ****** ****** ****** ****** ****** ****** ******
      ****** ****** ****** ****** ****** ****** ****** ****** ****** ******
      ****** ****** ****** ****** ****** ****** ****** ****** ****** ******
  19  ****** ****** ****** ****** ****** ****** ****** ****** ****** ******
      ****** ****** ****** ****** ****** ****** ****** ****** ****** ******
      ****** ****** ****** ****** ****** ****** ****** ****** ****** ******
  20  ****** ****** ****** ****** ****** ****** ****** ****** ****** ******
      ****** ****** ****** ****** ****** ****** ****** ****** ****** ******
      ****** ****** ****** ****** ****** ****** ****** ****** ****** ******
  21  ****** ****** ****** ****** ****** ****** ****** ****** ****** ******
      ****** ****** ****** ****** ****** ****** ****** ****** ****** ******
      ****** ****** ****** ****** ****** ****** ****** ****** ****** ******
  22  ****** ****** ****** ****** ****** ****** ****** ****** ****** ******
      ****** ****** ****** ****** ****** ****** ****** ****** ****** ******
      ****** ****** ****** ****** ****** ****** ****** ****** ****** ******
  23  ****** ****** ****** ****** ****** ****** ****** ****** ****** ******
      ****** ****** ****** ****** ****** ****** ****** ****** ****** ******
      ****** ****** ****** ****** ****** ****** ****** ****** ****** ******
  24  ****** ****** ****** ****** ****** ****** ****** ****** ****** ******
      ****** ****** ****** ****** ****** ****** ****** ****** ****** ******
      ****** ****** ****** ****** ****** ****** ****** ****** ****** ******
  25  ****** ****** ****** ****** ****** ****** ****** ****** ****** ******
      ****** ****** ****** ****** ****** ****** ****** ****** ****** ******
      ****** ****** ****** ****** ****** ****** ****** ****** ****** ******

 HEAD WILL BE SAVED ON UNIT   51 AT END OF TIME STEP    1, STRESS PERIOD    1
1
  VOLUMETRIC BUDGET FOR ENTIRE MODEL AT END OF TIME STEP    1, STRESS PERIOD   1
  ------------------------------------------------------------------------------

     CUMULATIVE VOLUMES      L**3       RATES FOR THIS TIME STEP      L**3/T
     ------------------                 ------------------------

           IN:                                      IN:
           ---                                      ---
             STORAGE =    18185437.8182               STORAGE =      197667.8024
       CONSTANT HEAD =     1227837.9343         CONSTANT HEAD =       13346.0645
               WELLS =           0.0000                 WELLS =           0.0000
            RECHARGE =     1269600.0000              RECHARGE =       13800.0000
      STREAM LEAKAGE =      380928.8172        STREAM LEAKAGE =        4140.5306

            TOTAL IN =    21063804.5697              TOTAL IN =      228954.3975

          OUT:                                     OUT:
          ----                                     ----
             STORAGE =           0.0000               STORAGE =           0.0000
       CONSTANT HEAD =           0.0000         CONSTANT HEAD =           0.0000
               WELLS =     2434345.7175                 WELLS =       26460.2795
            RECHARGE =           0.0000              RECHARGE =           0.0000
      STREAM LEAKAGE =    18629459.1337        STREAM LEAKAGE =      202494.1210

           TOTAL OUT =    21063804.8511             TOTAL OUT =      228954.4006

            IN - OUT =          -0.2814              IN - OUT =      -3.0585E-03

 PERCENT DISCREPANCY =          -0.00     PERCENT DISCREPANCY =          -0.00






         TIME SUMMARY AT END OF TIME STEP    1 IN STRESS PERIOD    1
                    SECONDS     MINUTES      HOURS       DAYS        YEARS
                    -----------------------------------------------------------
   TIME STEP LENGTH 7.94880E+06 1.32480E+05  2208.0      92.000     0.25188    
 STRESS PERIOD TIME 7.94880E+06 1.32480E+05  2208.0      92.000     0.25188    
         TOTAL TIME 7.94880E+06 1.32480E+05  2208.0      92.000     0.25188    
1
1
                            STRESS PERIOD NO.    2, LENGTH =   91.00000    
                            -----------------------------------------------

                              NUMBER OF TIME STEPS =     1

                               MULTIPLIER FOR DELT =     1.500

                            INITIAL TIME STEP SIZE =   91.00000    

 WELL NO.  LAYER   ROW   COL   STRESS RATE         
 --------------------------------------------------
      1      1     20     21      -6420.    
      2      1     18     16      -7655.    
      3      1     20     18      -5517.    
      4      1      4      9      -6868.    

      4 WELLS

                 RECHARGE =  2.000000E-03

 REUSING STREAM SEGMENT DATA FROM LAST STRESS PERIOD
 
 SOLVING FOR HEAD 


     7 CALLS TO PCG ROUTINE FOR TIME STEP   1 IN STRESS PERIOD    2
    27 TOTAL ITERATIONS

 OUTPUT CONTROL FOR STRESS PERIOD    2   TIME STEP    1
    SAVE BUDGET
    SAVE HEAD FOR ALL LAYERS
    PRINT HEAD FOR ALL LAYERS
 UBDSV2 SAVING "STREAMFLOW OUT  " ON UNIT  50 AT TIME STEP  1, STRESS PERIOD   2



 STREAM LISTING     PERIOD      2   STEP        1

 LAYER ROW COL. STREAM  RCH.  FLOW INTO     FLOW TO   FLOW OUT OF   OVRLND.     DIRECT     STREAM       STREAM     STREAM     STREAM   STREAMBED  STREAMBED
                SEG.NO.  NO.  STRM. RCH.    AQUIFER    STRM. RCH.    RUNOFF     PRECIP       ET          HEAD       DEPTH      WIDTH   CONDCTNC.   GRADIENT

   1   13    1     1     1    1.0000E+05 -3.8434E+03   1.0384E+05  0.000E+00  0.000E+00  0.000E+00  4.84077E+01  1.463E-01  2.000E+01  2.000E+04 -1.922E-01
   1   13    2     1     2    1.0384E+05 -5.0983E+03   1.0894E+05  0.000E+00  0.000E+00  0.000E+00  4.79342E+01  1.501E-01  2.000E+01  2.000E+04 -2.549E-01
   1   14    3     1     3    1.0894E+05 -1.1031E+03   1.1004E+05  0.000E+00  0.000E+00  0.000E+00  4.74596E+01  1.527E-01  2.000E+01  2.000E+04 -5.516E-02
   1   15    4     1     4    1.1004E+05 -1.1308E+03   1.1118E+05  0.000E+00  0.000E+00  0.000E+00  4.69832E+01  1.537E-01  2.000E+01  2.000E+04 -5.654E-02
   1   16    5     1     5    1.1118E+05 -4.1554E+03   1.1533E+05  0.000E+00  0.000E+00  0.000E+00  4.65081E+01  1.559E-01  2.000E+01  2.000E+04 -2.078E-01
   1   16    6     1     6    1.1533E+05 -2.4262E+03   1.1776E+05  0.000E+00  0.000E+00  0.000E+00  4.60336E+01  1.586E-01  2.000E+01  2.000E+04 -1.213E-01
   1   16    7     1     7    1.1776E+05 -2.3078E+03   1.2006E+05  0.000E+00  0.000E+00  0.000E+00  4.55582E+01  1.605E-01  2.000E+01  2.000E+04 -1.154E-01
   1   16    8     1     8    1.2006E+05 -2.2410E+03   1.2231E+05  0.000E+00  0.000E+00  0.000E+00  4.50828E+01  1.623E-01  2.000E+01  2.000E+04 -1.120E-01
   1   16    9     1     9    1.2231E+05 -2.1640E+03   1.2447E+05  0.000E+00  0.000E+00  0.000E+00  4.46073E+01  1.641E-01  2.000E+01  2.000E+04 -1.082E-01
   1   16   10     1    10    1.2447E+05 -2.0530E+03   1.2652E+05  0.000E+00  0.000E+00  0.000E+00  4.41317E+01  1.658E-01  2.000E+01  2.000E+04 -1.026E-01
   1   16   11     1    11    1.2652E+05 -1.9051E+03   1.2843E+05  0.000E+00  0.000E+00  0.000E+00  4.36560E+01  1.673E-01  2.000E+01  2.000E+04 -9.525E-02
   1   16   12     1    12    1.2843E+05 -2.8910E+03   1.3132E+05  0.000E+00  0.000E+00  0.000E+00  4.31806E+01  1.692E-01  2.000E+01  2.000E+04 -1.445E-01
   1   15   13     1    13    1.3132E+05 -2.9294E+03   1.3425E+05  0.000E+00  0.000E+00  0.000E+00  4.27056E+01  1.715E-01  2.000E+01  2.000E+04 -1.465E-01
   1   14   14     1    14    1.3425E+05 -3.4353E+03   1.3768E+05  0.000E+00  0.000E+00  0.000E+00  4.22308E+01  1.739E-01  2.000E+01  2.000E+04 -1.718E-01
   1   13   15     1    15    1.3768E+05 -4.0419E+03   1.4173E+05  0.000E+00  0.000E+00  0.000E+00  4.17563E+01  1.768E-01  2.000E+01  2.000E+04 -2.021E-01
   1   12   16     1    16    1.4173E+05 -5.3050E+03   1.4703E+05  0.000E+00  0.000E+00  0.000E+00  4.12826E+01  1.803E-01  2.000E+01  2.000E+04 -2.653E-01
   1   12   17     1    17    1.4703E+05 -3.4021E+03   1.5043E+05  0.000E+00  0.000E+00  0.000E+00  4.08086E+01  1.836E-01  2.000E+01  2.000E+04 -1.701E-01
   1   12   18     1    18    1.5043E+05 -3.2730E+03   1.5371E+05  0.000E+00  0.000E+00  0.000E+00  4.03337E+01  1.860E-01  2.000E+01  2.000E+04 -1.637E-01
   1   12   19     1    19    1.5371E+05 -4.3715E+03   1.5808E+05  0.000E+00  0.000E+00  0.000E+00  3.98593E+01  1.888E-01  2.000E+01  2.000E+04 -2.186E-01
   1   13   20     1    20    1.5808E+05 -3.0387E+03   1.6112E+05  0.000E+00  0.000E+00  0.000E+00  3.93847E+01  1.915E-01  2.000E+01  2.000E+04 -1.519E-01
   1   14   21     1    21    1.6112E+05 -2.3962E+03   1.6351E+05  0.000E+00  0.000E+00  0.000E+00  3.89093E+01  1.934E-01  2.000E+01  2.000E+04 -1.198E-01
   1   14   22     1    22    1.6351E+05  4.6083E+03   1.5890E+05  0.000E+00  0.000E+00  0.000E+00  3.84313E+01  1.926E-01  2.000E+01  2.000E+04  2.304E-01
   1    9   30     2     1    5.0000E+04 -2.1531E+03   5.2153E+04  0.000E+00  0.000E+00  0.000E+00  4.02424E+01  1.174E-01  2.000E+01  2.000E+04 -1.077E-01
   1    9   29     2     2    5.2153E+04 -2.4636E+03   5.4617E+04  0.000E+00  0.000E+00  0.000E+00  3.99955E+01  1.205E-01  2.000E+01  2.000E+04 -1.232E-01
   1    9   28     2     3    5.4617E+04 -2.7698E+03   5.7387E+04  0.000E+00  0.000E+00  0.000E+00  3.97490E+01  1.240E-01  2.000E+01  2.000E+04 -1.385E-01
   1    9   27     2     4    5.7387E+04 -4.8781E+03   6.2265E+04  0.000E+00  0.000E+00  0.000E+00  3.95040E+01  1.290E-01  2.000E+01  2.000E+04 -2.439E-01
   1   10   26     2     5    6.2265E+04 -3.7777E+03   6.6042E+04  0.000E+00  0.000E+00  0.000E+00  3.92596E+01  1.346E-01  2.000E+01  2.000E+04 -1.889E-01
   1   11   25     2     6    6.6042E+04 -3.3907E+03   6.9433E+04  0.000E+00  0.000E+00  0.000E+00  3.90140E+01  1.390E-01  2.000E+01  2.000E+04 -1.695E-01
   1   12   24     2     7    6.9433E+04 -3.2585E+03   7.2692E+04  0.000E+00  0.000E+00  0.000E+00  3.87681E+01  1.431E-01  2.000E+01  2.000E+04 -1.629E-01
   1   13   23     2     8    7.2692E+04 -6.1591E+02   7.3307E+04  0.000E+00  0.000E+00  0.000E+00  3.85204E+01  1.454E-01  2.000E+01  2.000E+04 -3.080E-02
   1   14   22     2     9    7.3307E+04  1.3815E+03   7.1926E+04  0.000E+00  0.000E+00  0.000E+00  3.82699E+01  1.449E-01  2.000E+01  2.000E+04  6.908E-02
   1   14   22     3     1    2.3083E+05 -8.8950E+03   2.3972E+05  0.000E+00  0.000E+00  0.000E+00  3.77561E+01  2.006E-01  2.000E+01  2.000E+04 -4.447E-01
   1   15   23     3     2    2.3972E+05 -7.9439E+02   2.4052E+05  0.000E+00  0.000E+00  0.000E+00  3.68697E+01  2.030E-01  2.000E+01  2.000E+04 -3.972E-02
   1   15   24     3     3    2.4052E+05 -6.0259E+02   2.4112E+05  0.000E+00  0.000E+00  0.000E+00  3.59812E+01  2.034E-01  2.000E+01  2.000E+04 -3.013E-02
   1   15   25     3     4    2.4112E+05 -6.3533E+02   2.4176E+05  0.000E+00  0.000E+00  0.000E+00  3.50926E+01  2.037E-01  2.000E+01  2.000E+04 -3.177E-02
   1   15   26     3     5    2.4176E+05 -7.5467E+02   2.4251E+05  0.000E+00  0.000E+00  0.000E+00  3.42040E+01  2.040E-01  2.000E+01  2.000E+04 -3.773E-02
   1   16   27     3     6    2.4251E+05 -8.6386E+02   2.4338E+05  0.000E+00  0.000E+00  0.000E+00  3.33156E+01  2.045E-01  2.000E+01  2.000E+04 -4.319E-02
   1   17   28     3     7    2.4338E+05 -3.0807E+03   2.4646E+05  0.000E+00  0.000E+00  0.000E+00  3.24277E+01  2.055E-01  2.000E+01  2.000E+04 -1.540E-01
   1   18   29     3     8    2.4646E+05 -4.6338E+03   2.5109E+05  0.000E+00  0.000E+00  0.000E+00  3.15407E+01  2.074E-01  2.000E+01  2.000E+04 -2.317E-01
   1   18   30     3     9    2.5109E+05 -4.4392E+03   2.5553E+05  0.000E+00  0.000E+00  0.000E+00  3.06541E+01  2.096E-01  2.000E+01  2.000E+04 -2.220E-01



1
              HEAD IN LAYER   1 AT END OF TIME STEP   1 IN STRESS PERIOD    2
  ---------------------------------------------------------------------------

          1      2      3      4      5      6      7      8      9     10
         11     12     13     14     15     16     17     18     19     20
         21     22     23     24     25     26     27     28     29     30
 .........................................................................
   1  ****** ****** ****** ****** ****** ****** ****** ****** ****** ******
      ****** ****** ****** ****** ****** ****** ****** ****** ****** ******
      ****** ****** ****** ****** ****** ****** ****** ****** ****** ******
   2  ****** ****** ****** ****** ****** ****** ****** ****** ****** ******
      ****** ****** ****** ****** ****** ****** ****** ****** ****** ******
      ****** ****** ****** ****** ****** ****** ****** ****** ****** ******
   3  ****** ****** ****** ****** ****** ****** ****** ****** ****** ******
      ****** ****** ****** ****** ****** ****** ****** ****** ****** ******
      ****** ****** ****** ****** ****** ****** ****** ****** ****** ******
   4  ****** ****** ****** ****** ****** ****** ****** ****** ****** ******
      ****** ****** ****** ****** ****** ****** ****** ****** ****** ******
      ****** ****** ****** ****** ****** ****** ****** ****** ****** ******
   5  ****** ****** ****** ****** ****** ****** ****** ****** ****** ******
      ****** ****** ****** ****** ****** ****** ****** ****** ****** ******
      ****** ****** ****** ****** ****** ****** ****** ****** ****** ******
   6  ****** ****** ****** ****** ****** ****** ****** ****** ****** ******
      ****** ****** ****** ****** ****** ****** ****** ****** ****** ******
      ****** ****** ****** ****** ****** ****** ****** ****** ****** ******
   7  ****** ****** ****** ****** ****** ****** ****** ****** ****** ******
      ****** ****** ****** ****** ****** ****** ****** ****** ****** ******
      ****** ****** ****** ****** ****** ****** ****** ****** ****** ******
   8  ****** ****** ****** ****** ****** ****** ****** ****** ****** ******
      ****** ****** ****** ****** ****** ****** ****** ****** ****** ******
      ****** ****** ****** ****** ****** ****** ****** ****** ****** ******
   9  ****** ****** ****** ****** ****** ****** ****** ****** ****** ******
      ****** ****** ****** ****** ****** ****** ****** ****** ****** ******
      ****** ****** ****** ****** ****** ****** ****** ****** ****** ******
  10  ****** ****** ****** ****** ****** ****** ****** ****** ****** ******
      ****** ****** ****** ****** ****** ****** ****** ****** ****** ******
      ****** ****** ****** ****** ****** ****** ****** ****** ****** ******
  11  ****** ****** ****** ****** ****** ****** ****** ****** ****** ******
      ****** ****** ****** ****** ****** ****** ****** ****** ****** ******
      ****** ****** ****** ****** ****** ****** ****** ****** ****** ******
  12  ****** ****** ****** ****** ****** ****** ****** ****** ****** ******
      ****** ****** ****** ****** ****** ****** ****** ****** ****** ******
      ****** ****** ****** ****** ****** ****** ****** ****** ****** ******
  13  ****** ****** ****** ****** ****** ****** ****** ****** ****** ******
      ****** ****** ****** ****** ****** ****** ****** ****** ****** ******
      ****** ****** ****** ****** ****** ****** ****** ****** ****** ******
  14  ****** ****** ****** ****** ****** ****** ****** ****** ****** ******
      ****** ****** ****** ****** ****** ****** ****** ****** ****** ******
      ****** ****** ****** ****** ****** ****** ****** ****** ****** ******
  15  ****** ****** ****** ****** ****** ****** ****** ****** ****** ******
      ****** ****** ****** ****** ****** ****** ****** ****** ****** ******
      ****** ****** ****** ****** ****** ****** ****** ****** ****** ******
  16  ****** ****** ****** ****** ****** ****** ****** ****** ****** ******
      ****** ****** ****** ****** ****** ****** ****** ****** ****** ******
      ****** ****** ****** ****** ****** ****** ****** ****** ****** ******
  17  ****** ****** ****** ****** ****** ****** ****** ****** ****** ******
      ****** ****** ****** ****** ****** ****** ****** ****** ****** ******
      ****** ****** ****** ****** ****** ****** ****** ****** ****** ******
  18  ****** ****** ****** ****** ****** ****** ****** ****** ****** ******
      ****** ****** ****** ****** ****** ****** ****** ****** ****** ******
      ****** ****** ****** ****** ****** ****** ****** ****** ****** ******
  19  ****** ****** ****** ****** ****** ****** ****** ****** ****** ******
      ****** ****** ****** ****** ****** ****** ****** ****** ****** ******
      ****** ****** ****** ****** ****** ****** ****** ****** ****** ******
  20  ****** ****** ****** ****** ****** ****** ****** ****** ****** ******
      ****** ****** ****** ****** ****** ****** ****** ****** ****** ******
      ****** ****** ****** ****** ****** ****** ****** ****** ****** ******
  21  ****** ****** ****** ****** ****** ****** ****** ****** ****** ******
      ****** ****** ****** ****** ****** ****** ****** ****** ****** ******
      ****** ****** ****** ****** ****** ****** ****** ****** ****** ******
  22  ****** ****** ****** ****** ****** ****** ****** ****** ****** ******
      ****** ****** ****** ****** ****** ****** ****** ****** ****** ******
      ****** ****** ****** ****** ****** ****** ****** ****** ****** ******
  23  ****** ****** ****** ****** ****** ****** ****** ****** ****** ******
      ****** ****** ****** ****** ****** ****** ****** ****** ****** ******
      ****** ****** ****** ****** ****** ****** ****** ****** ****** ******
  24  ****** ****** ****** ****** ****** ****** ****** ****** ****** ******
      ****** ****** ****** ****** ****** ****** ****** ****** ****** ******
      ****** ****** ****** ****** ****** ****** ****** ****** ****** ******
  25  ****** ****** ****** ****** ****** ****** ****** ****** ****** ******
      ****** ****** ****** ****** ****** ****** ****** ****** ****** ******
      ****** ****** ****** ****** ****** ****** ****** ****** ****** ******

 HEAD WILL BE SAVED ON UNIT   51 AT END OF TIME STEP    1, STRESS PERIOD    2
1
  VOLUMETRIC BUDGET FOR ENTIRE MODEL AT END OF TIME STEP    1, STRESS PERIOD   2
  ------------------------------------------------------------------------------

     CUMULATIVE VOLUMES      L**3       RATES FOR THIS TIME STEP      L**3/T
     ------------------                 ------------------------

           IN:                                      IN:
           ---                                      ---
             STORAGE =    23483704.0535               STORAGE =       58222.7059
       CONSTANT HEAD =     2917435.0950         CONSTANT HEAD =       18567.0018
               WELLS =           0.0000                 WELLS =           0.0000
            RECHARGE =     6292800.0000              RECHARGE =       55200.0000
      STREAM LEAKAGE =      926001.7809        STREAM LEAKAGE =        5989.8128

            TOTAL IN =    33619940.9295              TOTAL IN =      137979.5204

          OUT:                                     OUT:
          ----                                     ----
             STORAGE =           0.0000               STORAGE =           0.0000
       CONSTANT HEAD =           0.0000         CONSTANT HEAD =           0.0000
               WELLS =     4842231.1554                 WELLS =       26460.2795
            RECHARGE =           0.0000              RECHARGE =           0.0000
      STREAM LEAKAGE =    28777710.9939        STREAM LEAKAGE =      111519.2512

           TOTAL OUT =    33619942.1492             TOTAL OUT =      137979.5307

            IN - OUT =          -1.2198              IN - OUT =      -1.0312E-02

 PERCENT DISCREPANCY =          -0.00     PERCENT DISCREPANCY =          -0.00






         TIME SUMMARY AT END OF TIME STEP    1 IN STRESS PERIOD    2
                    SECONDS     MINUTES      HOURS       DAYS        YEARS
                    -----------------------------------------------------------
   TIME STEP LENGTH 7.86240E+06 1.31040E+05  2184.0      91.000     0.24914    
 STRESS PERIOD TIME 7.86240E+06 1.31040E+05  2184.0      91.000     0.24914    
         TOTAL TIME 1.58112E+07 2.63520E+05  4392.0      183.00     0.50103    
1
1
                            STRESS PERIOD NO.    3, LENGTH =   91.00000    
                            -----------------------------------------------

                              NUMBER OF TIME STEPS =     1

                               MULTIPLIER FOR DELT =     1.500

                            INITIAL TIME STEP SIZE =   91.00000    

 WELL NO.  LAYER   ROW   COL   STRESS RATE         
 --------------------------------------------------
      1      1     20     21      -6420.    
      2      1     18     16      -7655.    
      3      1     20     18      -5517.    
      4      1      4      9      -6868.    

      4 WELLS

                 RECHARGE =   0.00000    

 REUSING STREAM SEGMENT DATA FROM LAST STRESS PERIOD
 
 SOLVING FOR HEAD 


     7 CALLS TO PCG ROUTINE FOR TIME STEP   1 IN STRESS PERIOD    3
    27 TOTAL ITERATIONS

 OUTPUT CONTROL FOR STRESS PERIOD    3   TIME STEP    1
    SAVE BUDGET
    SAVE HEAD FOR ALL LAYERS
    PRINT HEAD FOR ALL LAYERS
 UBDSV2 SAVING "STREAMFLOW OUT  " ON UNIT  50 AT TIME STEP  1, STRESS PERIOD   3



 STREAM LISTING     PERIOD      3   STEP        1

 LAYER ROW COL. STREAM  RCH.  FLOW INTO     FLOW TO   FLOW OUT OF   OVRLND.     DIRECT     STREAM       STREAM     STREAM     STREAM   STREAMBED  STREAMBED
                SEG.NO.  NO.  STRM. RCH.    AQUIFER    STRM. RCH.    RUNOFF     PRECIP       ET          HEAD       DEPTH      WIDTH   CONDCTNC.   GRADIENT

   1   13    1     1     1    1.0000E+05 -2.5142E+03   1.0251E+05  0.000E+00  0.000E+00  0.000E+00  4.84071E+01  1.457E-01  2.000E+01  2.000E+04 -1.257E-01
   1   13    2     1     2    1.0251E+05 -3.6095E+03   1.0612E+05  0.000E+00  0.000E+00  0.000E+00  4.79325E+01  1.484E-01  2.000E+01  2.000E+04 -1.805E-01
   1   14    3     1     3    1.0612E+05 -6.3361E+02   1.0676E+05  0.000E+00  0.000E+00  0.000E+00  4.74570E+01  1.502E-01  2.000E+01  2.000E+04 -3.168E-02
   1   15    4     1     4    1.0676E+05 -6.1769E+02   1.0737E+05  0.000E+00  0.000E+00  0.000E+00  4.69802E+01  1.507E-01  2.000E+01  2.000E+04 -3.088E-02
   1   16    5     1     5    1.0737E+05 -2.3171E+03   1.0969E+05  0.000E+00  0.000E+00  0.000E+00  4.65042E+01  1.519E-01  2.000E+01  2.000E+04 -1.159E-01
   1   16    6     1     6    1.0969E+05 -1.3919E+03   1.1108E+05  0.000E+00  0.000E+00  0.000E+00  4.60285E+01  1.535E-01  2.000E+01  2.000E+04 -6.959E-02
   1   16    7     1     7    1.1108E+05 -1.3266E+03   1.1241E+05  0.000E+00  0.000E+00  0.000E+00  4.55523E+01  1.546E-01  2.000E+01  2.000E+04 -6.633E-02
   1   16    8     1     8    1.1241E+05 -1.2704E+03   1.1368E+05  0.000E+00  0.000E+00  0.000E+00  4.50762E+01  1.557E-01  2.000E+01  2.000E+04 -6.352E-02
   1   16    9     1     9    1.1368E+05 -1.1881E+03   1.1487E+05  0.000E+00  0.000E+00  0.000E+00  4.45999E+01  1.567E-01  2.000E+01  2.000E+04 -5.941E-02
   1   16   10     1    10    1.1487E+05 -1.0642E+03   1.1593E+05  0.000E+00  0.000E+00  0.000E+00  4.41235E+01  1.576E-01  2.000E+01  2.000E+04 -5.321E-02
   1   16   11     1    11    1.1593E+05 -8.8991E+02   1.1682E+05  0.000E+00  0.000E+00  0.000E+00  4.36471E+01  1.584E-01  2.000E+01  2.000E+04 -4.450E-02
   1   16   12     1    12    1.1682E+05 -1.0839E+03   1.1791E+05  0.000E+00  0.000E+00  0.000E+00  4.31706E+01  1.592E-01  2.000E+01  2.000E+04 -5.420E-02
   1   15   13     1    13    1.1791E+05 -1.1091E+03   1.1902E+05  0.000E+00  0.000E+00  0.000E+00  4.26942E+01  1.601E-01  2.000E+01  2.000E+04 -5.545E-02
   1   14   14     1    14    1.1902E+05 -1.5815E+03   1.2060E+05  0.000E+00  0.000E+00  0.000E+00  4.22180E+01  1.612E-01  2.000E+01  2.000E+04 -7.908E-02
   1   13   15     1    15    1.2060E+05 -2.2075E+03   1.2281E+05  0.000E+00  0.000E+00  0.000E+00  4.17423E+01  1.627E-01  2.000E+01  2.000E+04 -1.104E-01
   1   12   16     1    16    1.2281E+05 -3.4572E+03   1.2626E+05  0.000E+00  0.000E+00  0.000E+00  4.12673E+01  1.650E-01  2.000E+01  2.000E+04 -1.729E-01
   1   12   17     1    17    1.2626E+05 -2.0570E+03   1.2832E+05  0.000E+00  0.000E+00  0.000E+00  4.07922E+01  1.672E-01  2.000E+01  2.000E+04 -1.029E-01
   1   12   18     1    18    1.2832E+05 -1.9531E+03   1.3027E+05  0.000E+00  0.000E+00  0.000E+00  4.03165E+01  1.688E-01  2.000E+01  2.000E+04 -9.765E-02
   1   12   19     1    19    1.3027E+05 -2.7498E+03   1.3302E+05  0.000E+00  0.000E+00  0.000E+00  3.98411E+01  1.706E-01  2.000E+01  2.000E+04 -1.375E-01
   1   13   20     1    20    1.3302E+05 -1.4791E+03   1.3450E+05  0.000E+00  0.000E+00  0.000E+00  3.93654E+01  1.722E-01  2.000E+01  2.000E+04 -7.396E-02
   1   14   21     1    21    1.3450E+05 -7.1175E+02   1.3521E+05  0.000E+00  0.000E+00  0.000E+00  3.88890E+01  1.731E-01  2.000E+01  2.000E+04 -3.559E-02
   1   14   22     1    22    1.3521E+05  4.9917E+03   1.3022E+05  0.000E+00  0.000E+00  0.000E+00  3.84101E+01  1.714E-01  2.000E+01  2.000E+04  2.496E-01
   1    9   30     2     1    5.0000E+04 -9.6342E+02   5.0963E+04  0.000E+00  0.000E+00  0.000E+00  4.02415E+01  1.165E-01  2.000E+01  2.000E+04 -4.817E-02
   1    9   29     2     2    5.0963E+04 -1.2760E+03   5.2239E+04  0.000E+00  0.000E+00  0.000E+00  3.99931E+01  1.181E-01  2.000E+01  2.000E+04 -6.380E-02
   1    9   28     2     3    5.2239E+04 -1.5701E+03   5.3810E+04  0.000E+00  0.000E+00  0.000E+00  3.97450E+01  1.200E-01  2.000E+01  2.000E+04 -7.851E-02
   1    9   27     2     4    5.3810E+04 -3.1554E+03   5.6965E+04  0.000E+00  0.000E+00  0.000E+00  3.94982E+01  1.232E-01  2.000E+01  2.000E+04 -1.578E-01
   1   10   26     2     5    5.6965E+04 -2.1668E+03   5.9132E+04  0.000E+00  0.000E+00  0.000E+00  3.92517E+01  1.267E-01  2.000E+01  2.000E+04 -1.083E-01
   1   11   25     2     6    5.9132E+04 -1.8888E+03   6.1021E+04  0.000E+00  0.000E+00  0.000E+00  3.90044E+01  1.294E-01  2.000E+01  2.000E+04 -9.444E-02
   1   12   24     2     7    6.1021E+04 -1.9148E+03   6.2935E+04  0.000E+00  0.000E+00  0.000E+00  3.87568E+01  1.318E-01  2.000E+01  2.000E+04 -9.574E-02
   1   13   23     2     8    6.2935E+04 -2.8126E+02   6.3217E+04  0.000E+00  0.000E+00  0.000E+00  3.85082E+01  1.332E-01  2.000E+01  2.000E+04 -1.406E-02
   1   14   22     2     9    6.3217E+04  1.9333E+03   6.1283E+04  0.000E+00  0.000E+00  0.000E+00  3.82571E+01  1.321E-01  2.000E+01  2.000E+04  9.667E-02
   1   14   22     3     1    1.9150E+05 -8.5063E+03   2.0001E+05  0.000E+00  0.000E+00  0.000E+00  3.77352E+01  1.796E-01  2.000E+01  2.000E+04 -4.253E-01
   1   15   23     3     2    2.0001E+05 -3.5349E+02   2.0036E+05  0.000E+00  0.000E+00  0.000E+00  3.68487E+01  1.820E-01  2.000E+01  2.000E+04 -1.767E-02
   1   15   24     3     3    2.0036E+05 -2.6061E+02   2.0063E+05  0.000E+00  0.000E+00  0.000E+00  3.59600E+01  1.822E-01  2.000E+01  2.000E+04 -1.303E-02
   1   15   25     3     4    2.0063E+05 -2.8226E+02   2.0091E+05  0.000E+00  0.000E+00  0.000E+00  3.50712E+01  1.824E-01  2.000E+01  2.000E+04 -1.411E-02
   1   15   26     3     5    2.0091E+05 -3.4287E+02   2.0125E+05  0.000E+00  0.000E+00  0.000E+00  3.41825E+01  1.825E-01  2.000E+01  2.000E+04 -1.714E-02
   1   16   27     3     6    2.0125E+05 -3.8310E+02   2.0163E+05  0.000E+00  0.000E+00  0.000E+00  3.32938E+01  1.827E-01  2.000E+01  2.000E+04 -1.916E-02
   1   17   28     3     7    2.0163E+05 -1.6051E+03   2.0324E+05  0.000E+00  0.000E+00  0.000E+00  3.24055E+01  1.833E-01  2.000E+01  2.000E+04 -8.026E-02
   1   18   29     3     8    2.0324E+05 -2.9716E+03   2.0621E+05  0.000E+00  0.000E+00  0.000E+00  3.15178E+01  1.845E-01  2.000E+01  2.000E+04 -1.486E-01
   1   18   30     3     9    2.0621E+05 -3.2161E+03   2.0943E+05  0.000E+00  0.000E+00  0.000E+00  3.06306E+01  1.862E-01  2.000E+01  2.000E+04 -1.608E-01



1
              HEAD IN LAYER   1 AT END OF TIME STEP   1 IN STRESS PERIOD    3
  ---------------------------------------------------------------------------

          1      2      3      4      5      6      7      8      9     10
         11     12     13     14     15     16     17     18     19     20
         21     22     23     24     25     26     27     28     29     30
 .........................................................................
   1  ****** ****** ****** ****** ****** ****** ****** ****** ****** ******
      ****** ****** ****** ****** ****** ****** ****** ****** ****** ******
      ****** ****** ****** ****** ****** ****** ****** ****** ****** ******
   2  ****** ****** ****** ****** ****** ****** ****** ****** ****** ******
      ****** ****** ****** ****** ****** ****** ****** ****** ****** ******
      ****** ****** ****** ****** ****** ****** ****** ****** ****** ******
   3  ****** ****** ****** ****** ****** ****** ****** ****** ****** ******
      ****** ****** ****** ****** ****** ****** ****** ****** ****** ******
      ****** ****** ****** ****** ****** ****** ****** ****** ****** ******
   4  ****** ****** ****** ****** ****** ****** ****** ****** ****** ******
      ****** ****** ****** ****** ****** ****** ****** ****** ****** ******
      ****** ****** ****** ****** ****** ****** ****** ****** ****** ******
   5  ****** ****** ****** ****** ****** ****** ****** ****** ****** ******
      ****** ****** ****** ****** ****** ****** ****** ****** ****** ******
      ****** ****** ****** ****** ****** ****** ****** ****** ****** ******
   6  ****** ****** ****** ****** ****** ****** ****** ****** ****** ******
      ****** ****** ****** ****** ****** ****** ****** ****** ****** ******
      ****** ****** ****** ****** ****** ****** ****** ****** ****** ******
   7  ****** ****** ****** ****** ****** ****** ****** ****** ****** ******
      ****** ****** ****** ****** ****** ****** ****** ****** ****** ******
      ****** ****** ****** ****** ****** ****** ****** ****** ****** ******
   8  ****** ****** ****** ****** ****** ****** ****** ****** ****** ******
      ****** ****** ****** ****** ****** ****** ****** ****** ****** ******
      ****** ****** ****** ****** ****** ****** ****** ****** ****** ******
   9  ****** ****** ****** ****** ****** ****** ****** ****** ****** ******
      ****** ****** ****** ****** ****** ****** ****** ****** ****** ******
      ****** ****** ****** ****** ****** ****** ****** ****** ****** ******
  10  ****** ****** ****** ****** ****** ****** ****** ****** ****** ******
      ****** ****** ****** ****** ****** ****** ****** ****** ****** ******
      ****** ****** ****** ****** ****** ****** ****** ****** ****** ******
  11  ****** ****** ****** ****** ****** ****** ****** ****** ****** ******
      ****** ****** ****** ****** ****** ****** ****** ****** ****** ******
      ****** ****** ****** ****** ****** ****** ****** ****** ****** ******
  12  ****** ****** ****** ****** ****** ****** ****** ****** ****** ******
      ****** ****** ****** ****** ****** ****** ****** ****** ****** ******
      ****** ****** ****** ****** ****** ****** ****** ****** ****** ******
  13  ****** ****** ****** ****** ****** ****** ****** ****** ****** ******
      ****** ****** ****** ****** ****** ****** ****** ****** ****** ******
      ****** ****** ****** ****** ****** ****** ****** ****** ****** ******
  14  ****** ****** ****** ****** ****** ****** ****** ****** ****** ******
      ****** ****** ****** ****** ****** ****** ****** ****** ****** ******
      ****** ****** ****** ****** ****** ****** ****** ****** ****** ******
  15  ****** ****** ****** ****** ****** ****** ****** ****** ****** ******
      ****** ****** ****** ****** ****** ****** ****** ****** ****** ******
      ****** ****** ****** ****** ****** ****** ****** ****** ****** ******
  16  ****** ****** ****** ****** ****** ****** ****** ****** ****** ******
      ****** ****** ****** ****** ****** ****** ****** ****** ****** ******
      ****** ****** ****** ****** ****** ****** ****** ****** ****** ******
  17  ****** ****** ****** ****** ****** ****** ****** ****** ****** ******
      ****** ****** ****** ****** ****** ****** ****** ****** ****** ******
      ****** ****** ****** ****** ****** ****** ****** ****** ****** ******
  18  ****** ****** ****** ****** ****** ****** ****** ****** ****** ******
      ****** ****** ****** ****** ****** ****** ****** ****** ****** ******
      ****** ****** ****** ****** ****** ****** ****** ****** ****** ******
  19  ****** ****** ****** ****** ****** ****** ****** ****** ****** ******
      ****** ****** ****** ****** ****** ****** ****** ****** ****** ******
      ****** ****** ****** ****** ****** ****** ****** ****** ****** ******
  20  ****** ****** ****** ****** ****** ****** ****** ****** ****** ******
      ****** ****** ****** ****** ****** ****** ****** ****** ****** ******
      ****** ****** ****** ****** ****** ****** ****** ****** ****** ******
  21  ****** ****** ****** ****** ****** ****** ****** ****** ****** ******
      ****** ****** ****** ****** ****** ****** ****** ****** ****** ******
      ****** ****** ****** ****** ****** ****** ****** ****** ****** ******
  22  ****** ****** ****** ****** ****** ****** ****** ****** ****** ******
      ****** ****** ****** ****** ****** ****** ****** ****** ****** ******
      ****** ****** ****** ****** ****** ****** ****** ****** ****** ******
  23  ****** ****** ****** ****** ****** ****** ****** ****** ****** ******
      ****** ****** ****** ****** ****** ****** ****** ****** ****** ******
      ****** ****** ****** ****** ****** ****** ****** ****** ****** ******
  24  ****** ****** ****** ****** ****** ****** ****** ****** ****** ******
      ****** ****** ****** ****** ****** ****** ****** ****** ****** ******
      ****** ****** ****** ****** ****** ****** ****** ****** ****** ******
  25  ****** ****** ****** ****** ****** ****** ****** ****** ****** ******
      ****** ****** ****** ****** ****** ****** ****** ****** ****** ******
      ****** ****** ****** ****** ****** ****** ****** ****** ****** ******

 HEAD WILL BE SAVED ON UNIT   51 AT END OF TIME STEP    1, STRESS PERIOD    3
1
  VOLUMETRIC BUDGET FOR ENTIRE MODEL AT END OF TIME STEP    1, STRESS PERIOD   3
  ------------------------------------------------------------------------------

     CUMULATIVE VOLUMES      L**3       RATES FOR THIS TIME STEP      L**3/T
     ------------------                 ------------------------

           IN:                                      IN:
           ---                                      ---
             STORAGE =    28785977.8475               STORAGE =       58266.7450
       CONSTANT HEAD =     5430836.1301         CONSTANT HEAD =       27619.7916
               WELLS =           0.0000                 WELLS =           0.0000
            RECHARGE =     6292800.0000              RECHARGE =           0.0000
      STREAM LEAKAGE =     1556180.8007        STREAM LEAKAGE =        6925.0442

            TOTAL IN =    42065794.7784              TOTAL IN =       92811.5808

          OUT:                                     OUT:
          ----                                     ----
             STORAGE =           0.0000               STORAGE =           0.0000
       CONSTANT HEAD =           0.0000         CONSTANT HEAD =           0.0000
               WELLS =     7250116.5933                 WELLS =       26460.2795
            RECHARGE =           0.0000              RECHARGE =           0.0000
      STREAM LEAKAGE =    34815680.0765        STREAM LEAKAGE =       66351.3086

           TOTAL OUT =    42065796.6698             TOTAL OUT =       92811.5881

            IN - OUT =          -1.8914              IN - OUT =      -7.3804E-03

 PERCENT DISCREPANCY =          -0.00     PERCENT DISCREPANCY =          -0.00






         TIME SUMMARY AT END OF TIME STEP    1 IN STRESS PERIOD    3
                    SECONDS     MINUTES      HOURS       DAYS        YEARS
                    -----------------------------------------------------------
   TIME STEP LENGTH 7.86240E+06 1.31040E+05  2184.0      91.000     0.24914    
 STRESS PERIOD TIME 7.86240E+06 1.31040E+05  2184.0      91.000     0.24914    
         TOTAL TIME 2.36736E+07 3.94560E+05  6576.0      274.00     0.75017    
1
1
                            STRESS PERIOD NO.    4, LENGTH =   91.00000    
                            -----------------------------------------------

                              NUMBER OF TIME STEPS =     1

                               MULTIPLIER FOR DELT =     1.500

                            INITIAL TIME STEP SIZE =   91.00000    

 WELL NO.  LAYER   ROW   COL   STRESS RATE         
 --------------------------------------------------
      1      1     20     21      -6420.    
      2      1     18     16      -7655.    
      3      1     20     18      -5517.    
      4      1      4      9      -6868.    

      4 WELLS

                 RECHARGE =  1.000000E-03

 REUSING STREAM SEGMENT DATA FROM LAST STRESS PERIOD
 
 SOLVING FOR HEAD 


     6 CALLS TO PCG ROUTINE FOR TIME STEP   1 IN STRESS PERIOD    4
    23 TOTAL ITERATIONS

 OUTPUT CONTROL FOR STRESS PERIOD    4   TIME STEP    1
    SAVE BUDGET
    SAVE HEAD FOR ALL LAYERS
    PRINT HEAD FOR ALL LAYERS
 UBDSV2 SAVING "STREAMFLOW OUT  " ON UNIT  50 AT TIME STEP  1, STRESS PERIOD   4



 STREAM LISTING     PERIOD      4   STEP        1

 LAYER ROW COL. STREAM  RCH.  FLOW INTO     FLOW TO   FLOW OUT OF   OVRLND.     DIRECT     STREAM       STREAM     STREAM     STREAM   STREAMBED  STREAMBED
                SEG.NO.  NO.  STRM. RCH.    AQUIFER    STRM. RCH.    RUNOFF     PRECIP       ET          HEAD       DEPTH      WIDTH   CONDCTNC.   GRADIENT

   1   13    1     1     1    1.0000E+05 -2.2198E+03   1.0222E+05  0.000E+00  0.000E+00  0.000E+00  4.84070E+01  1.456E-01  2.000E+01  2.000E+04 -1.110E-01
   1   13    2     1     2    1.0222E+05 -3.2711E+03   1.0549E+05  0.000E+00  0.000E+00  0.000E+00  4.79321E+01  1.480E-01  2.000E+01  2.000E+04 -1.636E-01
   1   14    3     1     3    1.0549E+05 -5.9758E+02   1.0609E+05  0.000E+00  0.000E+00  0.000E+00  4.74564E+01  1.496E-01  2.000E+01  2.000E+04 -2.988E-02
   1   15    4     1     4    1.0609E+05 -5.7260E+02   1.0666E+05  0.000E+00  0.000E+00  0.000E+00  4.69797E+01  1.501E-01  2.000E+01  2.000E+04 -2.863E-02
   1   16    5     1     5    1.0666E+05 -1.9862E+03   1.0865E+05  0.000E+00  0.000E+00  0.000E+00  4.65035E+01  1.512E-01  2.000E+01  2.000E+04 -9.931E-02
   1   16    6     1     6    1.0865E+05 -1.2235E+03   1.0987E+05  0.000E+00  0.000E+00  0.000E+00  4.60275E+01  1.525E-01  2.000E+01  2.000E+04 -6.117E-02
   1   16    7     1     7    1.0987E+05 -1.1675E+03   1.1104E+05  0.000E+00  0.000E+00  0.000E+00  4.55513E+01  1.535E-01  2.000E+01  2.000E+04 -5.837E-02
   1   16    8     1     8    1.1104E+05 -1.1125E+03   1.1215E+05  0.000E+00  0.000E+00  0.000E+00  4.50749E+01  1.545E-01  2.000E+01  2.000E+04 -5.562E-02
   1   16    9     1     9    1.1215E+05 -1.0290E+03   1.1318E+05  0.000E+00  0.000E+00  0.000E+00  4.45986E+01  1.554E-01  2.000E+01  2.000E+04 -5.145E-02
   1   16   10     1    10    1.1318E+05 -9.0329E+02   1.1408E+05  0.000E+00  0.000E+00  0.000E+00  4.41221E+01  1.562E-01  2.000E+01  2.000E+04 -4.516E-02
   1   16   11     1    11    1.1408E+05 -7.2076E+02   1.1480E+05  0.000E+00  0.000E+00  0.000E+00  4.36455E+01  1.568E-01  2.000E+01  2.000E+04 -3.604E-02
   1   16   12     1    12    1.1480E+05 -7.2684E+02   1.1553E+05  0.000E+00  0.000E+00  0.000E+00  4.31688E+01  1.574E-01  2.000E+01  2.000E+04 -3.634E-02
   1   15   13     1    13    1.1553E+05 -7.8264E+02   1.1631E+05  0.000E+00  0.000E+00  0.000E+00  4.26922E+01  1.581E-01  2.000E+01  2.000E+04 -3.913E-02
   1   14   14     1    14    1.1631E+05 -1.2380E+03   1.1755E+05  0.000E+00  0.000E+00  0.000E+00  4.22157E+01  1.589E-01  2.000E+01  2.000E+04 -6.190E-02
   1   13   15     1    15    1.1755E+05 -1.8484E+03   1.1940E+05  0.000E+00  0.000E+00  0.000E+00  4.17397E+01  1.601E-01  2.000E+01  2.000E+04 -9.242E-02
   1   12   16     1    16    1.1940E+05 -3.0211E+03   1.2242E+05  0.000E+00  0.000E+00  0.000E+00  4.12644E+01  1.621E-01  2.000E+01  2.000E+04 -1.511E-01
   1   12   17     1    17    1.2242E+05 -1.7897E+03   1.2421E+05  0.000E+00  0.000E+00  0.000E+00  4.07890E+01  1.640E-01  2.000E+01  2.000E+04 -8.949E-02
   1   12   18     1    18    1.2421E+05 -1.7063E+03   1.2592E+05  0.000E+00  0.000E+00  0.000E+00  4.03132E+01  1.654E-01  2.000E+01  2.000E+04 -8.531E-02
   1   12   19     1    19    1.2592E+05 -2.4597E+03   1.2838E+05  0.000E+00  0.000E+00  0.000E+00  3.98375E+01  1.671E-01  2.000E+01  2.000E+04 -1.230E-01
   1   13   20     1    20    1.2838E+05 -1.2569E+03   1.2963E+05  0.000E+00  0.000E+00  0.000E+00  3.93617E+01  1.685E-01  2.000E+01  2.000E+04 -6.285E-02
   1   14   21     1    21    1.2963E+05 -3.8320E+02   1.3002E+05  0.000E+00  0.000E+00  0.000E+00  3.88851E+01  1.692E-01  2.000E+01  2.000E+04 -1.916E-02
   1   14   22     1    22    1.3002E+05  5.0406E+03   1.2498E+05  0.000E+00  0.000E+00  0.000E+00  3.84060E+01  1.673E-01  2.000E+01  2.000E+04  2.520E-01
   1    9   30     2     1    5.0000E+04 -8.8075E+02   5.0881E+04  0.000E+00  0.000E+00  0.000E+00  4.02415E+01  1.165E-01  2.000E+01  2.000E+04 -4.404E-02
   1    9   29     2     2    5.0881E+04 -1.1864E+03   5.2067E+04  0.000E+00  0.000E+00  0.000E+00  3.99929E+01  1.179E-01  2.000E+01  2.000E+04 -5.932E-02
   1    9   28     2     3    5.2067E+04 -1.4604E+03   5.3528E+04  0.000E+00  0.000E+00  0.000E+00  3.97447E+01  1.197E-01  2.000E+01  2.000E+04 -7.302E-02
   1    9   27     2     4    5.3528E+04 -2.8980E+03   5.6426E+04  0.000E+00  0.000E+00  0.000E+00  3.94977E+01  1.227E-01  2.000E+01  2.000E+04 -1.449E-01
   1   10   26     2     5    5.6426E+04 -2.0172E+03   5.8443E+04  0.000E+00  0.000E+00  0.000E+00  3.92509E+01  1.259E-01  2.000E+01  2.000E+04 -1.009E-01
   1   11   25     2     6    5.8443E+04 -1.7774E+03   6.0220E+04  0.000E+00  0.000E+00  0.000E+00  3.90034E+01  1.284E-01  2.000E+01  2.000E+04 -8.887E-02
   1   12   24     2     7    6.0220E+04 -1.8187E+03   6.2039E+04  0.000E+00  0.000E+00  0.000E+00  3.87557E+01  1.307E-01  2.000E+01  2.000E+04 -9.094E-02
   1   13   23     2     8    6.2039E+04 -3.0684E+02   6.2346E+04  0.000E+00  0.000E+00  0.000E+00  3.85071E+01  1.321E-01  2.000E+01  2.000E+04 -1.534E-02
   1   14   22     2     9    6.2346E+04  2.0402E+03   6.0306E+04  0.000E+00  0.000E+00  0.000E+00  3.82560E+01  1.310E-01  2.000E+01  2.000E+04  1.020E-01
   1   14   22     3     1    1.8528E+05 -8.4451E+03   1.9373E+05  0.000E+00  0.000E+00  0.000E+00  3.77317E+01  1.761E-01  2.000E+01  2.000E+04 -4.223E-01
   1   15   23     3     2    1.9373E+05 -3.0572E+02   1.9403E+05  0.000E+00  0.000E+00  0.000E+00  3.68452E+01  1.786E-01  2.000E+01  2.000E+04 -1.529E-02
   1   15   24     3     3    1.9403E+05 -2.4858E+02   1.9428E+05  0.000E+00  0.000E+00  0.000E+00  3.59565E+01  1.787E-01  2.000E+01  2.000E+04 -1.243E-02
   1   15   25     3     4    1.9428E+05 -2.7255E+02   1.9455E+05  0.000E+00  0.000E+00  0.000E+00  3.50678E+01  1.789E-01  2.000E+01  2.000E+04 -1.363E-02
   1   15   26     3     5    1.9455E+05 -3.4658E+02   1.9490E+05  0.000E+00  0.000E+00  0.000E+00  3.41790E+01  1.790E-01  2.000E+01  2.000E+04 -1.733E-02
   1   16   27     3     6    1.9490E+05 -3.7334E+02   1.9527E+05  0.000E+00  0.000E+00  0.000E+00  3.32904E+01  1.792E-01  2.000E+01  2.000E+04 -1.867E-02
   1   17   28     3     7    1.9527E+05 -1.5028E+03   1.9678E+05  0.000E+00  0.000E+00  0.000E+00  3.24020E+01  1.798E-01  2.000E+01  2.000E+04 -7.514E-02
   1   18   29     3     8    1.9678E+05 -2.6679E+03   1.9944E+05  0.000E+00  0.000E+00  0.000E+00  3.15142E+01  1.809E-01  2.000E+01  2.000E+04 -1.334E-01
   1   18   30     3     9    1.9944E+05 -3.0564E+03   2.0250E+05  0.000E+00  0.000E+00  0.000E+00  3.06269E+01  1.825E-01  2.000E+01  2.000E+04 -1.528E-01



1
              HEAD IN LAYER   1 AT END OF TIME STEP   1 IN STRESS PERIOD    4
  ---------------------------------------------------------------------------

          1      2      3      4      5      6      7      8      9     10
         11     12     13     14     15     16     17     18     19     20
         21     22     23     24     25     26     27     28     29     30
 .........................................................................
   1  ****** ****** ****** ****** ****** ****** ****** ****** ****** ******
      ****** ****** ****** ****** ****** ****** ****** ****** ****** ******
      ****** ****** ****** ****** ****** ****** ****** ****** ****** ******
   2  ****** ****** ****** ****** ****** ****** ****** ****** ****** ******
      ****** ****** ****** ****** ****** ****** ****** ****** ****** ******
      ****** ****** ****** ****** ****** ****** ****** ****** ****** ******
   3  ****** ****** ****** ****** ****** ****** ****** ****** ****** ******
      ****** ****** ****** ****** ****** ****** ****** ****** ****** ******
      ****** ****** ****** ****** ****** ****** ****** ****** ****** ******
   4  ****** ****** ****** ****** ****** ****** ****** ****** ****** ******
      ****** ****** ****** ****** ****** ****** ****** ****** ****** ******
      ****** ****** ****** ****** ****** ****** ****** ****** ****** ******
   5  ****** ****** ****** ****** ****** ****** ****** ****** ****** ******
      ****** ****** ****** ****** ****** ****** ****** ****** ****** ******
      ****** ****** ****** ****** ****** ****** ****** ****** ****** ******
   6  ****** ****** ****** ****** ****** ****** ****** ****** ****** ******
      ****** ****** ****** ****** ****** ****** ****** ****** ****** ******
      ****** ****** ****** ****** ****** ****** ****** ****** ****** ******
   7  ****** ****** ****** ****** ****** ****** ****** ****** ****** ******
      ****** ****** ****** ****** ****** ****** ****** ****** ****** ******
      ****** ****** ****** ****** ****** ****** ****** ****** ****** ******
   8  ****** ****** ****** ****** ****** ****** ****** ****** ****** ******
      ****** ****** ****** ****** ****** ****** ****** ****** ****** ******
      ****** ****** ****** ****** ****** ****** ****** ****** ****** ******
   9  ****** ****** ****** ****** ****** ****** ****** ****** ****** ******
      ****** ****** ****** ****** ****** ****** ****** ****** ****** ******
      ****** ****** ****** ****** ****** ****** ****** ****** ****** ******
  10  ****** ****** ****** ****** ****** ****** ****** ****** ****** ******
      ****** ****** ****** ****** ****** ****** ****** ****** ****** ******
      ****** ****** ****** ****** ****** ****** ****** ****** ****** ******
  11  ****** ****** ****** ****** ****** ****** ****** ****** ****** ******
      ****** ****** ****** ****** ****** ****** ****** ****** ****** ******
      ****** ****** ****** ****** ****** ****** ****** ****** ****** ******
  12  ****** ****** ****** ****** ****** ****** ****** ****** ****** ******
      ****** ****** ****** ****** ****** ****** ****** ****** ****** ******
      ****** ****** ****** ****** ****** ****** ****** ****** ****** ******
  13  ****** ****** ****** ****** ****** ****** ****** ****** ****** ******
      ****** ****** ****** ****** ****** ****** ****** ****** ****** ******
      ****** ****** ****** ****** ****** ****** ****** ****** ****** ******
  14  ****** ****** ****** ****** ****** ****** ****** ****** ****** ******
      ****** ****** ****** ****** ****** ****** ****** ****** ****** ******
      ****** ****** ****** ****** ****** ****** ****** ****** ****** ******
  15  ****** ****** ****** ****** ****** ****** ****** ****** ****** ******
      ****** ****** ****** ****** ****** ****** ****** ****** ****** ******
      ****** ****** ****** ****** ****** ****** ****** ****** ****** ******
  16  ****** ****** ****** ****** ****** ****** ****** ****** ****** ******
      ****** ****** ****** ****** ****** ****** ****** ****** ****** ******
      ****** ****** ****** ****** ****** ****** ****** ****** ****** ******
  17  ****** ****** ****** ****** ****** ****** ****** ****** ****** ******
      ****** ****** ****** ****** ****** ****** ****** ****** ****** ******
      ****** ****** ****** ****** ****** ****** ****** ****** ****** ******
  18  ****** ****** ****** ****** ****** ****** ****** ****** ****** ******
      ****** ****** ****** ****** ****** ****** ****** ****** ****** ******
      ****** ****** ****** ****** ****** ****** ****** ****** ****** ******
  19  ****** ****** ****** ****** ****** ****** ****** ****** ****** ******
      ****** ****** ****** ****** ****** ****** ****** ****** ****** ******
      ****** ****** ****** ****** ****** ****** ****** ****** ****** ******
  20  ****** ****** ****** ****** ****** ****** ****** ****** ****** ******
      ****** ****** ****** ****** ****** ****** ****** ****** ****** ******
      ****** ****** ****** ****** ****** ****** ****** ****** ****** ******
  21  ****** ****** ****** ****** ****** ****** ****** ****** ****** ******
      ****** ****** ****** ****** ****** ****** ****** ****** ****** ******
      ****** ****** ****** ****** ****** ****** ****** ****** ****** ******
  22  ****** ****** ****** ****** ****** ****** ****** ****** ****** ******
      ****** ****** ****** ****** ****** ****** ****** ****** ****** ******
      ****** ****** ****** ****** ****** ****** ****** ****** ****** ******
  23  ****** ****** ****** ****** ****** ****** ****** ****** ****** ******
      ****** ****** ****** ****** ****** ****** ****** ****** ****** ******
      ****** ****** ****** ****** ****** ****** ****** ****** ****** ******
  24  ****** ****** ****** ****** ****** ****** ****** ****** ****** ******
      ****** ****** ****** ****** ****** ****** ****** ****** ****** ******
      ****** ****** ****** ****** ****** ****** ****** ****** ****** ******
  25  ****** ****** ****** ****** ****** ****** ****** ****** ****** ******
      ****** ****** ****** ****** ****** ****** ****** ****** ****** ******
      ****** ****** ****** ****** ****** ****** ****** ****** ****** ******

 HEAD WILL BE SAVED ON UNIT   51 AT END OF TIME STEP    1, STRESS PERIOD    4
1
  VOLUMETRIC BUDGET FOR ENTIRE MODEL AT END OF TIME STEP    1, STRESS PERIOD   4
  ------------------------------------------------------------------------------

     CUMULATIVE VOLUMES      L**3       RATES FOR THIS TIME STEP      L**3/T
     ------------------                 ------------------------

           IN:                                      IN:
           ---                                      ---
             STORAGE =    30679854.5014               STORAGE =       20811.8314
       CONSTANT HEAD =     8211993.5360         CONSTANT HEAD =       30562.1693
               WELLS =           0.0000                 WELLS =           0.0000
            RECHARGE =     8804400.0000              RECHARGE =       27600.0000
      STREAM LEAKAGE =     2200533.8149        STREAM LEAKAGE =        7080.8024

            TOTAL IN =    49896781.8523              TOTAL IN =       86054.8030

          OUT:                                     OUT:
          ----                                     ----
             STORAGE =        1203.7946               STORAGE =          13.2285
       CONSTANT HEAD =           0.0000         CONSTANT HEAD =           0.0000
               WELLS =     9658002.0312                 WELLS =       26460.2795
            RECHARGE =           0.0000              RECHARGE =           0.0000
      STREAM LEAKAGE =    40237578.0043        STREAM LEAKAGE =       59581.2959

           TOTAL OUT =    49896783.8301             TOTAL OUT =       86054.8040

            IN - OUT =          -1.9778              IN - OUT =      -9.4894E-04

 PERCENT DISCREPANCY =          -0.00     PERCENT DISCREPANCY =          -0.00






         TIME SUMMARY AT END OF TIME STEP    1 IN STRESS PERIOD    4
                    SECONDS     MINUTES      HOURS       DAYS        YEARS
                    -----------------------------------------------------------
   TIME STEP LENGTH 7.86240E+06 1.31040E+05  2184.0      91.000     0.24914    
 STRESS PERIOD TIME 7.86240E+06 1.31040E+05  2184.0      91.000     0.24914    
         TOTAL TIME 3.15360E+07 5.25600E+05  8760.0      365.00     0.99932    
1
1
                            STRESS PERIOD NO.    5, LENGTH =   92.00000    
                            -----------------------------------------------

                              NUMBER OF TIME STEPS =     1

                               MULTIPLIER FOR DELT =     1.500

                            INITIAL TIME STEP SIZE =   92.00000    

 WELL NO.  LAYER   ROW   COL   STRESS RATE         
 --------------------------------------------------
      1      1     20     21      -6420.    
      2      1     18     16      -7655.    
      3      1     20     18      -5517.    
      4      1      4      9      -6868.    

      4 WELLS

                 RECHARGE =  5.000000E-04

 REUSING STREAM SEGMENT DATA FROM LAST STRESS PERIOD
 
 SOLVING FOR HEAD 


     7 CALLS TO PCG ROUTINE FOR TIME STEP   1 IN STRESS PERIOD    5
    26 TOTAL ITERATIONS

 OUTPUT CONTROL FOR STRESS PERIOD    5   TIME STEP    1
    SAVE BUDGET
    SAVE HEAD FOR ALL LAYERS
    PRINT HEAD FOR ALL LAYERS
 UBDSV2 SAVING "STREAMFLOW OUT  " ON UNIT  50 AT TIME STEP  1, STRESS PERIOD   5



 STREAM LISTING     PERIOD      5   STEP        1

 LAYER ROW COL. STREAM  RCH.  FLOW INTO     FLOW TO   FLOW OUT OF   OVRLND.     DIRECT     STREAM       STREAM     STREAM     STREAM   STREAMBED  STREAMBED
                SEG.NO.  NO.  STRM. RCH.    AQUIFER    STRM. RCH.    RUNOFF     PRECIP       ET          HEAD       DEPTH      WIDTH   CONDCTNC.   GRADIENT

   1   13    1     1     1    1.0000E+05 -1.7622E+03   1.0176E+05  0.000E+00  0.000E+00  0.000E+00  4.84068E+01  1.454E-01  2.000E+01  2.000E+04 -8.811E-02
   1   13    2     1     2    1.0176E+05 -2.7544E+03   1.0452E+05  0.000E+00  0.000E+00  0.000E+00  4.79315E+01  1.474E-01  2.000E+01  2.000E+04 -1.377E-01
   1   14    3     1     3    1.0452E+05 -4.6925E+02   1.0499E+05  0.000E+00  0.000E+00  0.000E+00  4.74556E+01  1.487E-01  2.000E+01  2.000E+04 -2.346E-02
   1   15    4     1     4    1.0499E+05 -4.3846E+02   1.0542E+05  0.000E+00  0.000E+00  0.000E+00  4.69787E+01  1.491E-01  2.000E+01  2.000E+04 -2.192E-02
   1   16    5     1     5    1.0542E+05 -1.5367E+03   1.0696E+05  0.000E+00  0.000E+00  0.000E+00  4.65022E+01  1.500E-01  2.000E+01  2.000E+04 -7.683E-02
   1   16    6     1     6    1.0696E+05 -9.5852E+02   1.0792E+05  0.000E+00  0.000E+00  0.000E+00  4.60260E+01  1.510E-01  2.000E+01  2.000E+04 -4.793E-02
   1   16    7     1     7    1.0792E+05 -9.1207E+02   1.0883E+05  0.000E+00  0.000E+00  0.000E+00  4.55495E+01  1.518E-01  2.000E+01  2.000E+04 -4.560E-02
   1   16    8     1     8    1.0883E+05 -8.5939E+02   1.0969E+05  0.000E+00  0.000E+00  0.000E+00  4.50730E+01  1.525E-01  2.000E+01  2.000E+04 -4.297E-02
   1   16    9     1     9    1.0969E+05 -7.7727E+02   1.1047E+05  0.000E+00  0.000E+00  0.000E+00  4.45964E+01  1.532E-01  2.000E+01  2.000E+04 -3.886E-02
   1   16   10     1    10    1.1047E+05 -6.5286E+02   1.1112E+05  0.000E+00  0.000E+00  0.000E+00  4.41197E+01  1.538E-01  2.000E+01  2.000E+04 -3.264E-02
   1   16   11     1    11    1.1112E+05 -4.6636E+02   1.1159E+05  0.000E+00  0.000E+00  0.000E+00  4.36429E+01  1.543E-01  2.000E+01  2.000E+04 -2.332E-02
   1   16   12     1    12    1.1159E+05 -2.6448E+02   1.1185E+05  0.000E+00  0.000E+00  0.000E+00  4.31660E+01  1.546E-01  2.000E+01  2.000E+04 -1.322E-02
   1   15   13     1    13    1.1185E+05 -3.0235E+02   1.1215E+05  0.000E+00  0.000E+00  0.000E+00  4.26889E+01  1.548E-01  2.000E+01  2.000E+04 -1.512E-02
   1   14   14     1    14    1.1215E+05 -7.3106E+02   1.1289E+05  0.000E+00  0.000E+00  0.000E+00  4.22121E+01  1.553E-01  2.000E+01  2.000E+04 -3.655E-02
   1   13   15     1    15    1.1289E+05 -1.3274E+03   1.1421E+05  0.000E+00  0.000E+00  0.000E+00  4.17357E+01  1.561E-01  2.000E+01  2.000E+04 -6.637E-02
   1   12   16     1    16    1.1421E+05 -2.4611E+03   1.1667E+05  0.000E+00  0.000E+00  0.000E+00  4.12599E+01  1.577E-01  2.000E+01  2.000E+04 -1.231E-01
   1   12   17     1    17    1.1667E+05 -1.4138E+03   1.1809E+05  0.000E+00  0.000E+00  0.000E+00  4.07843E+01  1.593E-01  2.000E+01  2.000E+04 -7.069E-02
   1   12   18     1    18    1.1809E+05 -1.3500E+03   1.1944E+05  0.000E+00  0.000E+00  0.000E+00  4.03081E+01  1.604E-01  2.000E+01  2.000E+04 -6.750E-02
   1   12   19     1    19    1.1944E+05 -2.0358E+03   1.2147E+05  0.000E+00  0.000E+00  0.000E+00  3.98322E+01  1.617E-01  2.000E+01  2.000E+04 -1.018E-01
   1   13   20     1    20    1.2147E+05 -8.7375E+02   1.2235E+05  0.000E+00  0.000E+00  0.000E+00  3.93561E+01  1.629E-01  2.000E+01  2.000E+04 -4.369E-02
   1   14   21     1    21    1.2235E+05  4.6399E+01   1.2230E+05  0.000E+00  0.000E+00  0.000E+00  3.88792E+01  1.632E-01  2.000E+01  2.000E+04  2.320E-03
   1   14   22     1    22    1.2230E+05  5.1257E+03   1.1718E+05  0.000E+00  0.000E+00  0.000E+00  3.83998E+01  1.612E-01  2.000E+01  2.000E+04  2.563E-01
   1    9   30     2     1    5.0000E+04 -6.5201E+02   5.0652E+04  0.000E+00  0.000E+00  0.000E+00  4.02413E+01  1.163E-01  2.000E+01  2.000E+04 -3.260E-02
   1    9   29     2     2    5.0652E+04 -9.5411E+02   5.1606E+04  0.000E+00  0.000E+00  0.000E+00  3.99924E+01  1.174E-01  2.000E+01  2.000E+04 -4.771E-02
   1    9   28     2     3    5.1606E+04 -1.2163E+03   5.2822E+04  0.000E+00  0.000E+00  0.000E+00  3.97439E+01  1.189E-01  2.000E+01  2.000E+04 -6.081E-02
   1    9   27     2     4    5.2822E+04 -2.5124E+03   5.5335E+04  0.000E+00  0.000E+00  0.000E+00  3.94964E+01  1.214E-01  2.000E+01  2.000E+04 -1.256E-01
   1   10   26     2     5    5.5335E+04 -1.6791E+03   5.7014E+04  0.000E+00  0.000E+00  0.000E+00  3.92492E+01  1.242E-01  2.000E+01  2.000E+04 -8.396E-02
   1   11   25     2     6    5.7014E+04 -1.4661E+03   5.8480E+04  0.000E+00  0.000E+00  0.000E+00  3.90013E+01  1.263E-01  2.000E+01  2.000E+04 -7.331E-02
   1   12   24     2     7    5.8480E+04 -1.5334E+03   6.0013E+04  0.000E+00  0.000E+00  0.000E+00  3.87533E+01  1.283E-01  2.000E+01  2.000E+04 -7.667E-02
   1   13   23     2     8    6.0013E+04 -2.3802E+02   6.0251E+04  0.000E+00  0.000E+00  0.000E+00  3.85044E+01  1.294E-01  2.000E+01  2.000E+04 -1.190E-02
   1   14   22     2     9    6.0251E+04  2.1930E+03   5.8058E+04  0.000E+00  0.000E+00  0.000E+00  3.82532E+01  1.282E-01  2.000E+01  2.000E+04  1.096E-01
   1   14   22     3     1    1.7523E+05 -8.3501E+03   1.8358E+05  0.000E+00  0.000E+00  0.000E+00  3.77260E+01  1.705E-01  2.000E+01  2.000E+04 -4.175E-01
   1   15   23     3     2    1.8358E+05 -1.9397E+02   1.8378E+05  0.000E+00  0.000E+00  0.000E+00  3.68395E+01  1.729E-01  2.000E+01  2.000E+04 -9.698E-03
   1   15   24     3     3    1.8378E+05 -1.6957E+02   1.8395E+05  0.000E+00  0.000E+00  0.000E+00  3.59508E+01  1.730E-01  2.000E+01  2.000E+04 -8.478E-03
   1   15   25     3     4    1.8395E+05 -1.9533E+02   1.8414E+05  0.000E+00  0.000E+00  0.000E+00  3.50620E+01  1.731E-01  2.000E+01  2.000E+04 -9.766E-03
   1   15   26     3     5    1.8414E+05 -2.7075E+02   1.8441E+05  0.000E+00  0.000E+00  0.000E+00  3.41732E+01  1.732E-01  2.000E+01  2.000E+04 -1.354E-02
   1   16   27     3     6    1.8441E+05 -2.7593E+02   1.8469E+05  0.000E+00  0.000E+00  0.000E+00  3.32845E+01  1.734E-01  2.000E+01  2.000E+04 -1.380E-02
   1   17   28     3     7    1.8469E+05 -1.2096E+03   1.8590E+05  0.000E+00  0.000E+00  0.000E+00  3.23960E+01  1.738E-01  2.000E+01  2.000E+04 -6.048E-02
   1   18   29     3     8    1.8590E+05 -2.2389E+03   1.8814E+05  0.000E+00  0.000E+00  0.000E+00  3.15081E+01  1.748E-01  2.000E+01  2.000E+04 -1.119E-01
   1   18   30     3     9    1.8814E+05 -2.7657E+03   1.9090E+05  0.000E+00  0.000E+00  0.000E+00  3.06206E+01  1.762E-01  2.000E+01  2.000E+04 -1.383E-01



1
              HEAD IN LAYER   1 AT END OF TIME STEP   1 IN STRESS PERIOD    5
  ---------------------------------------------------------------------------

          1      2      3      4      5      6      7      8      9     10
         11     12     13     14     15     16     17     18     19     20
         21     22     23     24     25     26     27     28     29     30
 .........................................................................
   1  ****** ****** ****** ****** ****** ****** ****** ****** ****** ******
      ****** ****** ****** ****** ****** ****** ****** ****** ****** ******
      ****** ****** ****** ****** ****** ****** ****** ****** ****** ******
   2  ****** ****** ****** ****** ****** ****** ****** ****** ****** ******
      ****** ****** ****** ****** ****** ****** ****** ****** ****** ******
      ****** ****** ****** ****** ****** ****** ****** ****** ****** ******
   3  ****** ****** ****** ****** ****** ****** ****** ****** ****** ******
      ****** ****** ****** ****** ****** ****** ****** ****** ****** ******
      ****** ****** ****** ****** ****** ****** ****** ****** ****** ******
   4  ****** ****** ****** ****** ****** ****** ****** ****** ****** ******
      ****** ****** ****** ****** ****** ****** ****** ****** ****** ******
      ****** ****** ****** ****** ****** ****** ****** ****** ****** ******
   5  ****** ****** ****** ****** ****** ****** ****** ****** ****** ******
      ****** ****** ****** ****** ****** ****** ****** ****** ****** ******
      ****** ****** ****** ****** ****** ****** ****** ****** ****** ******
   6  ****** ****** ****** ****** ****** ****** ****** ****** ****** ******
      ****** ****** ****** ****** ****** ****** ****** ****** ****** ******
      ****** ****** ****** ****** ****** ****** ****** ****** ****** ******
   7  ****** ****** ****** ****** ****** ****** ****** ****** ****** ******
      ****** ****** ****** ****** ****** ****** ****** ****** ****** ******
      ****** ****** ****** ****** ****** ****** ****** ****** ****** ******
   8  ****** ****** ****** ****** ****** ****** ****** ****** ****** ******
      ****** ****** ****** ****** ****** ****** ****** ****** ****** ******
      ****** ****** ****** ****** ****** ****** ****** ****** ****** ******
   9  ****** ****** ****** ****** ****** ****** ****** ****** ****** ******
      ****** ****** ****** ****** ****** ****** ****** ****** ****** ******
      ****** ****** ****** ****** ****** ****** ****** ****** ****** ******
  10  ****** ****** ****** ****** ****** ****** ****** ****** ****** ******
      ****** ****** ****** ****** ****** ****** ****** ****** ****** ******
      ****** ****** ****** ****** ****** ****** ****** ****** ****** ******
  11  ****** ****** ****** ****** ****** ****** ****** ****** ****** ******
      ****** ****** ****** ****** ****** ****** ****** ****** ****** ******
      ****** ****** ****** ****** ****** ****** ****** ****** ****** ******
  12  ****** ****** ****** ****** ****** ****** ****** ****** ****** ******
      ****** ****** ****** ****** ****** ****** ****** ****** ****** ******
      ****** ****** ****** ****** ****** ****** ****** ****** ****** ******
  13  ****** ****** ****** ****** ****** ****** ****** ****** ****** ******
      ****** ****** ****** ****** ****** ****** ****** ****** ****** ******
      ****** ****** ****** ****** ****** ****** ****** ****** ****** ******
  14  ****** ****** ****** ****** ****** ****** ****** ****** ****** ******
      ****** ****** ****** ****** ****** ****** ****** ****** ****** ******
      ****** ****** ****** ****** ****** ****** ****** ****** ****** ******
  15  ****** ****** ****** ****** ****** ****** ****** ****** ****** ******
      ****** ****** ****** ****** ****** ****** ****** ****** ****** ******
      ****** ****** ****** ****** ****** ****** ****** ****** ****** ******
  16  ****** ****** ****** ****** ****** ****** ****** ****** ****** ******
      ****** ****** ****** ****** ****** ****** ****** ****** ****** ******
      ****** ****** ****** ****** ****** ****** ****** ****** ****** ******
  17  ****** ****** ****** ****** ****** ****** ****** ****** ****** ******
      ****** ****** ****** ****** ****** ****** ****** ****** ****** ******
      ****** ****** ****** ****** ****** ****** ****** ****** ****** ******
  18  ****** ****** ****** ****** ****** ****** ****** ****** ****** ******
      ****** ****** ****** ****** ****** ****** ****** ****** ****** ******
      ****** ****** ****** ****** ****** ****** ****** ****** ****** ******
  19  ****** ****** ****** ****** ****** ****** ****** ****** ****** ******
      ****** ****** ****** ****** ****** ****** ****** ****** ****** ******
      ****** ****** ****** ****** ****** ****** ****** ****** ****** ******
  20  ****** ****** ****** ****** ****** ****** ****** ****** ****** ******
      ****** ****** ****** ****** ****** ****** ****** ****** ****** ******
      ****** ****** ****** ****** ****** ****** ****** ****** ****** ******
  21  ****** ****** ****** ****** ****** ****** ****** ****** ****** ******
      ****** ****** ****** ****** ****** ****** ****** ****** ****** ******
      ****** ****** ****** ****** ****** ****** ****** ****** ****** ******
  22  ****** ****** ****** ****** ****** ****** ****** ****** ****** ******
      ****** ****** ****** ****** ****** ****** ****** ****** ****** ******
      ****** ****** ****** ****** ****** ****** ****** ****** ****** ******
  23  ****** ****** ****** ****** ****** ****** ****** ****** ****** ******
      ****** ****** ****** ****** ****** ****** ****** ****** ****** ******
      ****** ****** ****** ****** ****** ****** ****** ****** ****** ******
  24  ****** ****** ****** ****** ****** ****** ****** ****** ****** ******
      ****** ****** ****** ****** ****** ****** ****** ****** ****** ******
      ****** ****** ****** ****** ****** ****** ****** ****** ****** ******
  25  ****** ****** ****** ****** ****** ****** ****** ****** ****** ******
      ****** ****** ****** ****** ****** ****** ****** ****** ****** ******
      ****** ****** ****** ****** ****** ****** ****** ****** ****** ******

 HEAD WILL BE SAVED ON UNIT   51 AT END OF TIME STEP    1, STRESS PERIOD    5
1
  VOLUMETRIC BUDGET FOR ENTIRE MODEL AT END OF TIME STEP    1, STRESS PERIOD   5
  ------------------------------------------------------------------------------

     CUMULATIVE VOLUMES      L**3       RATES FOR THIS TIME STEP      L**3/T
     ------------------                 ------------------------

           IN:                                      IN:
           ---                                      ---
             STORAGE =    32506312.1265               STORAGE =       19852.8003
       CONSTANT HEAD =    11313393.4336         CONSTANT HEAD =       33710.8685
               WELLS =           0.0000                 WELLS =           0.0000
            RECHARGE =    10074000.0000              RECHARGE =       13800.0000
      STREAM LEAKAGE =     2878121.0846        STREAM LEAKAGE =        7365.0790

            TOTAL IN =    56771826.6447              TOTAL IN =       74728.7477

          OUT:                                     OUT:
          ----                                     ----
             STORAGE =        1203.7946               STORAGE =           0.0000
       CONSTANT HEAD =           0.0000         CONSTANT HEAD =           0.0000
               WELLS =    12092347.7487                 WELLS =       26460.2795
            RECHARGE =           0.0000              RECHARGE =           0.0000
      STREAM LEAKAGE =    44678277.3828        STREAM LEAKAGE =       48268.4715

           TOTAL OUT =    56771828.9260             TOTAL OUT =       74728.7510

            IN - OUT =          -2.2813              IN - OUT =      -3.2992E-03

 PERCENT DISCREPANCY =          -0.00     PERCENT DISCREPANCY =          -0.00






         TIME SUMMARY AT END OF TIME STEP    1 IN STRESS PERIOD    5
                    SECONDS     MINUTES      HOURS       DAYS        YEARS
                    -----------------------------------------------------------
   TIME STEP LENGTH 7.94880E+06 1.32480E+05  2208.0      92.000     0.25188    
 STRESS PERIOD TIME 7.94880E+06 1.32480E+05  2208.0      92.000     0.25188    
         TOTAL TIME 3.94848E+07 6.58080E+05  10968.      457.00      1.2512    
1
1
                            STRESS PERIOD NO.    6, LENGTH =   91.00000    
                            -----------------------------------------------

                              NUMBER OF TIME STEPS =     1

                               MULTIPLIER FOR DELT =     1.500

                            INITIAL TIME STEP SIZE =   91.00000    

 WELL NO.  LAYER   ROW   COL   STRESS RATE         
 --------------------------------------------------
      1      1     20     21      -6420.    
      2      1     18     16      -7655.    
      3      1     20     18      -5517.    
      4      1      4      9      -6868.    

      4 WELLS

                 RECHARGE =  2.000000E-03

 REUSING STREAM SEGMENT DATA FROM LAST STRESS PERIOD
 
 SOLVING FOR HEAD 


     7 CALLS TO PCG ROUTINE FOR TIME STEP   1 IN STRESS PERIOD    6
    26 TOTAL ITERATIONS

 OUTPUT CONTROL FOR STRESS PERIOD    6   TIME STEP    1
    SAVE BUDGET
    SAVE HEAD FOR ALL LAYERS
    PRINT HEAD FOR ALL LAYERS
 UBDSV2 SAVING "STREAMFLOW OUT  " ON UNIT  50 AT TIME STEP  1, STRESS PERIOD   6



 STREAM LISTING     PERIOD      6   STEP        1

 LAYER ROW COL. STREAM  RCH.  FLOW INTO     FLOW TO   FLOW OUT OF   OVRLND.     DIRECT     STREAM       STREAM     STREAM     STREAM   STREAMBED  STREAMBED
                SEG.NO.  NO.  STRM. RCH.    AQUIFER    STRM. RCH.    RUNOFF     PRECIP       ET          HEAD       DEPTH      WIDTH   CONDCTNC.   GRADIENT

   1   13    1     1     1    1.0000E+05 -2.0477E+03   1.0205E+05  0.000E+00  0.000E+00  0.000E+00  4.84069E+01  1.455E-01  2.000E+01  2.000E+04 -1.024E-01
   1   13    2     1     2    1.0205E+05 -3.0659E+03   1.0511E+05  0.000E+00  0.000E+00  0.000E+00  4.79318E+01  1.477E-01  2.000E+01  2.000E+04 -1.533E-01
   1   14    3     1     3    1.0511E+05 -6.1956E+02   1.0573E+05  0.000E+00  0.000E+00  0.000E+00  4.74561E+01  1.493E-01  2.000E+01  2.000E+04 -3.098E-02
   1   15    4     1     4    1.0573E+05 -6.0082E+02   1.0633E+05  0.000E+00  0.000E+00  0.000E+00  4.69794E+01  1.498E-01  2.000E+01  2.000E+04 -3.004E-02
   1   16    5     1     5    1.0633E+05 -2.0216E+03   1.0836E+05  0.000E+00  0.000E+00  0.000E+00  4.65032E+01  1.509E-01  2.000E+01  2.000E+04 -1.011E-01
   1   16    6     1     6    1.0836E+05 -1.2417E+03   1.0960E+05  0.000E+00  0.000E+00  0.000E+00  4.60273E+01  1.523E-01  2.000E+01  2.000E+04 -6.209E-02
   1   16    7     1     7    1.0960E+05 -1.1796E+03   1.1078E+05  0.000E+00  0.000E+00  0.000E+00  4.55510E+01  1.533E-01  2.000E+01  2.000E+04 -5.898E-02
   1   16    8     1     8    1.1078E+05 -1.1218E+03   1.1190E+05  0.000E+00  0.000E+00  0.000E+00  4.50747E+01  1.543E-01  2.000E+01  2.000E+04 -5.609E-02
   1   16    9     1     9    1.1190E+05 -1.0386E+03   1.1294E+05  0.000E+00  0.000E+00  0.000E+00  4.45984E+01  1.552E-01  2.000E+01  2.000E+04 -5.193E-02
   1   16   10     1    10    1.1294E+05 -9.1504E+02   1.1385E+05  0.000E+00  0.000E+00  0.000E+00  4.41219E+01  1.560E-01  2.000E+01  2.000E+04 -4.575E-02
   1   16   11     1    11    1.1385E+05 -7.3038E+02   1.1458E+05  0.000E+00  0.000E+00  0.000E+00  4.36453E+01  1.567E-01  2.000E+01  2.000E+04 -3.652E-02
   1   16   12     1    12    1.1458E+05 -6.8523E+02   1.1527E+05  0.000E+00  0.000E+00  0.000E+00  4.31686E+01  1.572E-01  2.000E+01  2.000E+04 -3.426E-02
   1   15   13     1    13    1.1527E+05 -7.3372E+02   1.1600E+05  0.000E+00  0.000E+00  0.000E+00  4.26919E+01  1.578E-01  2.000E+01  2.000E+04 -3.669E-02
   1   14   14     1    14    1.1600E+05 -1.1570E+03   1.1716E+05  0.000E+00  0.000E+00  0.000E+00  4.22154E+01  1.586E-01  2.000E+01  2.000E+04 -5.785E-02
   1   13   15     1    15    1.1716E+05 -1.7348E+03   1.1889E+05  0.000E+00  0.000E+00  0.000E+00  4.17393E+01  1.598E-01  2.000E+01  2.000E+04 -8.674E-02
   1   12   16     1    16    1.1889E+05 -2.8244E+03   1.2172E+05  0.000E+00  0.000E+00  0.000E+00  4.12639E+01  1.616E-01  2.000E+01  2.000E+04 -1.412E-01
   1   12   17     1    17    1.2172E+05 -1.7140E+03   1.2343E+05  0.000E+00  0.000E+00  0.000E+00  4.07884E+01  1.634E-01  2.000E+01  2.000E+04 -8.570E-02
   1   12   18     1    18    1.2343E+05 -1.6558E+03   1.2509E+05  0.000E+00  0.000E+00  0.000E+00  4.03125E+01  1.648E-01  2.000E+01  2.000E+04 -8.279E-02
   1   12   19     1    19    1.2509E+05 -2.4200E+03   1.2751E+05  0.000E+00  0.000E+00  0.000E+00  3.98369E+01  1.664E-01  2.000E+01  2.000E+04 -1.210E-01
   1   13   20     1    20    1.2751E+05 -1.2808E+03   1.2879E+05  0.000E+00  0.000E+00  0.000E+00  3.93610E+01  1.679E-01  2.000E+01  2.000E+04 -6.404E-02
   1   14   21     1    21    1.2879E+05 -3.3932E+02   1.2913E+05  0.000E+00  0.000E+00  0.000E+00  3.88844E+01  1.685E-01  2.000E+01  2.000E+04 -1.697E-02
   1   14   22     1    22    1.2913E+05  5.0238E+03   1.2410E+05  0.000E+00  0.000E+00  0.000E+00  3.84053E+01  1.667E-01  2.000E+01  2.000E+04  2.512E-01
   1    9   30     2     1    5.0000E+04 -1.0168E+03   5.1017E+04  0.000E+00  0.000E+00  0.000E+00  4.02416E+01  1.166E-01  2.000E+01  2.000E+04 -5.084E-02
   1    9   29     2     2    5.1017E+04 -1.3145E+03   5.2331E+04  0.000E+00  0.000E+00  0.000E+00  3.99932E+01  1.182E-01  2.000E+01  2.000E+04 -6.572E-02
   1    9   28     2     3    5.2331E+04 -1.5698E+03   5.3901E+04  0.000E+00  0.000E+00  0.000E+00  3.97451E+01  1.201E-01  2.000E+01  2.000E+04 -7.849E-02
   1    9   27     2     4    5.3901E+04 -2.9589E+03   5.6860E+04  0.000E+00  0.000E+00  0.000E+00  3.94982E+01  1.232E-01  2.000E+01  2.000E+04 -1.479E-01
   1   10   26     2     5    5.6860E+04 -2.1489E+03   5.9009E+04  0.000E+00  0.000E+00  0.000E+00  3.92516E+01  1.266E-01  2.000E+01  2.000E+04 -1.074E-01
   1   11   25     2     6    5.9009E+04 -1.9207E+03   6.0930E+04  0.000E+00  0.000E+00  0.000E+00  3.90042E+01  1.292E-01  2.000E+01  2.000E+04 -9.604E-02
   1   12   24     2     7    6.0930E+04 -1.9426E+03   6.2872E+04  0.000E+00  0.000E+00  0.000E+00  3.87567E+01  1.317E-01  2.000E+01  2.000E+04 -9.713E-02
   1   13   23     2     8    6.2872E+04 -3.7568E+02   6.3248E+04  0.000E+00  0.000E+00  0.000E+00  3.85082E+01  1.332E-01  2.000E+01  2.000E+04 -1.878E-02
   1   14   22     2     9    6.3248E+04  2.0601E+03   6.1188E+04  0.000E+00  0.000E+00  0.000E+00  3.82571E+01  1.321E-01  2.000E+01  2.000E+04  1.030E-01
   1   14   22     3     1    1.8529E+05 -8.4479E+03   1.9374E+05  0.000E+00  0.000E+00  0.000E+00  3.77317E+01  1.762E-01  2.000E+01  2.000E+04 -4.224E-01
   1   15   23     3     2    1.9374E+05 -3.2469E+02   1.9406E+05  0.000E+00  0.000E+00  0.000E+00  3.68453E+01  1.786E-01  2.000E+01  2.000E+04 -1.623E-02
   1   15   24     3     3    1.9406E+05 -2.8795E+02   1.9435E+05  0.000E+00  0.000E+00  0.000E+00  3.59565E+01  1.788E-01  2.000E+01  2.000E+04 -1.440E-02
   1   15   25     3     4    1.9435E+05 -3.1871E+02   1.9467E+05  0.000E+00  0.000E+00  0.000E+00  3.50678E+01  1.789E-01  2.000E+01  2.000E+04 -1.594E-02
   1   15   26     3     5    1.9467E+05 -4.2022E+02   1.9509E+05  0.000E+00  0.000E+00  0.000E+00  3.41791E+01  1.791E-01  2.000E+01  2.000E+04 -2.101E-02
   1   16   27     3     6    1.9509E+05 -4.4109E+02   1.9553E+05  0.000E+00  0.000E+00  0.000E+00  3.32905E+01  1.794E-01  2.000E+01  2.000E+04 -2.205E-02
   1   17   28     3     7    1.9553E+05 -1.6598E+03   1.9719E+05  0.000E+00  0.000E+00  0.000E+00  3.24022E+01  1.799E-01  2.000E+01  2.000E+04 -8.299E-02
   1   18   29     3     8    1.9719E+05 -2.6515E+03   1.9984E+05  0.000E+00  0.000E+00  0.000E+00  3.15145E+01  1.811E-01  2.000E+01  2.000E+04 -1.326E-01
   1   18   30     3     9    1.9984E+05 -3.1057E+03   2.0295E+05  0.000E+00  0.000E+00  0.000E+00  3.06271E+01  1.827E-01  2.000E+01  2.000E+04 -1.553E-01



1
              HEAD IN LAYER   1 AT END OF TIME STEP   1 IN STRESS PERIOD    6
  ---------------------------------------------------------------------------

          1      2      3      4      5      6      7      8      9     10
         11     12     13     14     15     16     17     18     19     20
         21     22     23     24     25     26     27     28     29     30
 .........................................................................
   1  ****** ****** ****** ****** ****** ****** ****** ****** ****** ******
      ****** ****** ****** ****** ****** ****** ****** ****** ****** ******
      ****** ****** ****** ****** ****** ****** ****** ****** ****** ******
   2  ****** ****** ****** ****** ****** ****** ****** ****** ****** ******
      ****** ****** ****** ****** ****** ****** ****** ****** ****** ******
      ****** ****** ****** ****** ****** ****** ****** ****** ****** ******
   3  ****** ****** ****** ****** ****** ****** ****** ****** ****** ******
      ****** ****** ****** ****** ****** ****** ****** ****** ****** ******
      ****** ****** ****** ****** ****** ****** ****** ****** ****** ******
   4  ****** ****** ****** ****** ****** ****** ****** ****** ****** ******
      ****** ****** ****** ****** ****** ****** ****** ****** ****** ******
      ****** ****** ****** ****** ****** ****** ****** ****** ****** ******
   5  ****** ****** ****** ****** ****** ****** ****** ****** ****** ******
      ****** ****** ****** ****** ****** ****** ****** ****** ****** ******
      ****** ****** ****** ****** ****** ****** ****** ****** ****** ******
   6  ****** ****** ****** ****** ****** ****** ****** ****** ****** ******
      ****** ****** ****** ****** ****** ****** ****** ****** ****** ******
      ****** ****** ****** ****** ****** ****** ****** ****** ****** ******
   7  ****** ****** ****** ****** ****** ****** ****** ****** ****** ******
      ****** ****** ****** ****** ****** ****** ****** ****** ****** ******
      ****** ****** ****** ****** ****** ****** ****** ****** ****** ******
   8  ****** ****** ****** ****** ****** ****** ****** ****** ****** ******
      ****** ****** ****** ****** ****** ****** ****** ****** ****** ******
      ****** ****** ****** ****** ****** ****** ****** ****** ****** ******
   9  ****** ****** ****** ****** ****** ****** ****** ****** ****** ******
      ****** ****** ****** ****** ****** ****** ****** ****** ****** ******
      ****** ****** ****** ****** ****** ****** ****** ****** ****** ******
  10  ****** ****** ****** ****** ****** ****** ****** ****** ****** ******
      ****** ****** ****** ****** ****** ****** ****** ****** ****** ******
      ****** ****** ****** ****** ****** ****** ****** ****** ****** ******
  11  ****** ****** ****** ****** ****** ****** ****** ****** ****** ******
      ****** ****** ****** ****** ****** ****** ****** ****** ****** ******
      ****** ****** ****** ****** ****** ****** ****** ****** ****** ******
  12  ****** ****** ****** ****** ****** ****** ****** ****** ****** ******
      ****** ****** ****** ****** ****** ****** ****** ****** ****** ******
      ****** ****** ****** ****** ****** ****** ****** ****** ****** ******
  13  ****** ****** ****** ****** ****** ****** ****** ****** ****** ******
      ****** ****** ****** ****** ****** ****** ****** ****** ****** ******
      ****** ****** ****** ****** ****** ****** ****** ****** ****** ******
  14  ****** ****** ****** ****** ****** ****** ****** ****** ****** ******
      ****** ****** ****** ****** ****** ****** ****** ****** ****** ******
      ****** ****** ****** ****** ****** ****** ****** ****** ****** ******
  15  ****** ****** ****** ****** ****** ****** ****** ****** ****** ******
      ****** ****** ****** ****** ****** ****** ****** ****** ****** ******
      ****** ****** ****** ****** ****** ****** ****** ****** ****** ******
  16  ****** ****** ****** ****** ****** ****** ****** ****** ****** ******
      ****** ****** ****** ****** ****** ****** ****** ****** ****** ******
      ****** ****** ****** ****** ****** ****** ****** ****** ****** ******
  17  ****** ****** ****** ****** ****** ****** ****** ****** ****** ******
      ****** ****** ****** ****** ****** ****** ****** ****** ****** ******
      ****** ****** ****** ****** ****** ****** ****** ****** ****** ******
  18  ****** ****** ****** ****** ****** ****** ****** ****** ****** ******
      ****** ****** ****** ****** ****** ****** ****** ****** ****** ******
      ****** ****** ****** ****** ****** ****** ****** ****** ****** ******
  19  ****** ****** ****** ****** ****** ****** ****** ****** ****** ******
      ****** ****** ****** ****** ****** ****** ****** ****** ****** ******
      ****** ****** ****** ****** ****** ****** ****** ****** ****** ******
  20  ****** ****** ****** ****** ****** ****** ****** ****** ****** ******
      ****** ****** ****** ****** ****** ****** ****** ****** ****** ******
      ****** ****** ****** ****** ****** ****** ****** ****** ****** ******
  21  ****** ****** ****** ****** ****** ****** ****** ****** ****** ******
      ****** ****** ****** ****** ****** ****** ****** ****** ****** ******
      ****** ****** ****** ****** ****** ****** ****** ****** ****** ******
  22  ****** ****** ****** ****** ****** ****** ****** ****** ****** ******
      ****** ****** ****** ****** ****** ****** ****** ****** ****** ******
      ****** ****** ****** ****** ****** ****** ****** ****** ****** ******
  23  ****** ****** ****** ****** ****** ****** ****** ****** ****** ******
      ****** ****** ****** ****** ****** ****** ****** ****** ****** ******
      ****** ****** ****** ****** ****** ****** ****** ****** ****** ******
  24  ****** ****** ****** ****** ****** ****** ****** ****** ****** ******
      ****** ****** ****** ****** ****** ****** ****** ****** ****** ******
      ****** ****** ****** ****** ****** ****** ****** ****** ****** ******
  25  ****** ****** ****** ****** ****** ****** ****** ****** ****** ******
      ****** ****** ****** ****** ****** ****** ****** ****** ****** ******
      ****** ****** ****** ****** ****** ****** ****** ****** ****** ******

 HEAD WILL BE SAVED ON UNIT   51 AT END OF TIME STEP    1, STRESS PERIOD    6
1
  VOLUMETRIC BUDGET FOR ENTIRE MODEL AT END OF TIME STEP    1, STRESS PERIOD   6
  ------------------------------------------------------------------------------

     CUMULATIVE VOLUMES      L**3       RATES FOR THIS TIME STEP      L**3/T
     ------------------                 ------------------------

           IN:                                      IN:
           ---                                      ---
             STORAGE =    32508372.6706               STORAGE =          22.6433
       CONSTANT HEAD =    14220815.5799         CONSTANT HEAD =       31949.6939
               WELLS =           0.0000                 WELLS =           0.0000
            RECHARGE =    15097200.0000              RECHARGE =       55200.0000
      STREAM LEAKAGE =     3522758.1874        STREAM LEAKAGE =        7083.9242

            TOTAL IN =    65349146.4379              TOTAL IN =       94256.2615

          OUT:                                     OUT:
          ----                                     ----
             STORAGE =      707640.6041               STORAGE =        7763.0419
       CONSTANT HEAD =           0.0000         CONSTANT HEAD =           0.0000
               WELLS =    14500233.1866                 WELLS =       26460.2795
            RECHARGE =           0.0000              RECHARGE =           0.0000
      STREAM LEAKAGE =    50141274.6776        STREAM LEAKAGE =       60032.9373

           TOTAL OUT =    65349148.4683             TOTAL OUT =       94256.2587

            IN - OUT =          -2.0304              IN - OUT =       2.7570E-03

 PERCENT DISCREPANCY =          -0.00     PERCENT DISCREPANCY =           0.00






         TIME SUMMARY AT END OF TIME STEP    1 IN STRESS PERIOD    6
                    SECONDS     MINUTES      HOURS       DAYS        YEARS
                    -----------------------------------------------------------
   TIME STEP LENGTH 7.86240E+06 1.31040E+05  2184.0      91.000     0.24914    
 STRESS PERIOD TIME 7.86240E+06 1.31040E+05  2184.0      91.000     0.24914    
         TOTAL TIME 4.73472E+07 7.89120E+05  13152.      548.00      1.5003    
1
1
                            STRESS PERIOD NO.    7, LENGTH =   91.00000    
                            -----------------------------------------------

                              NUMBER OF TIME STEPS =     1

                               MULTIPLIER FOR DELT =     1.500

                            INITIAL TIME STEP SIZE =   91.00000    

 WELL NO.  LAYER   ROW   COL   STRESS RATE         
 --------------------------------------------------
      1      1     20     21      -6420.    
      2      1     18     16      -7655.    
      3      1     20     18      -5517.    
      4      1      4      9      -6868.    

      4 WELLS

                 RECHARGE =   0.00000    

 REUSING STREAM SEGMENT DATA FROM LAST STRESS PERIOD
 
 SOLVING FOR HEAD 


     7 CALLS TO PCG ROUTINE FOR TIME STEP   1 IN STRESS PERIOD    7
    26 TOTAL ITERATIONS

 OUTPUT CONTROL FOR STRESS PERIOD    7   TIME STEP    1
    SAVE BUDGET
    SAVE HEAD FOR ALL LAYERS
    PRINT HEAD FOR ALL LAYERS
 UBDSV2 SAVING "STREAMFLOW OUT  " ON UNIT  50 AT TIME STEP  1, STRESS PERIOD   7



 STREAM LISTING     PERIOD      7   STEP        1

 LAYER ROW COL. STREAM  RCH.  FLOW INTO     FLOW TO   FLOW OUT OF   OVRLND.     DIRECT     STREAM       STREAM     STREAM     STREAM   STREAMBED  STREAMBED
                SEG.NO.  NO.  STRM. RCH.    AQUIFER    STRM. RCH.    RUNOFF     PRECIP       ET          HEAD       DEPTH      WIDTH   CONDCTNC.   GRADIENT

   1   13    1     1     1    1.0000E+05 -1.3615E+03   1.0136E+05  0.000E+00  0.000E+00  0.000E+00  4.84066E+01  1.452E-01  2.000E+01  2.000E+04 -6.808E-02
   1   13    2     1     2    1.0136E+05 -2.2977E+03   1.0366E+05  0.000E+00  0.000E+00  0.000E+00  4.79309E+01  1.468E-01  2.000E+01  2.000E+04 -1.149E-01
   1   14    3     1     3    1.0366E+05 -3.6425E+02   1.0402E+05  0.000E+00  0.000E+00  0.000E+00  4.74548E+01  1.480E-01  2.000E+01  2.000E+04 -1.821E-02
   1   15    4     1     4    1.0402E+05 -3.3521E+02   1.0436E+05  0.000E+00  0.000E+00  0.000E+00  4.69778E+01  1.483E-01  2.000E+01  2.000E+04 -1.676E-02
   1   16    5     1     5    1.0436E+05 -1.2611E+03   1.0562E+05  0.000E+00  0.000E+00  0.000E+00  4.65012E+01  1.489E-01  2.000E+01  2.000E+04 -6.306E-02
   1   16    6     1     6    1.0562E+05 -7.8220E+02   1.0640E+05  0.000E+00  0.000E+00  0.000E+00  4.60248E+01  1.498E-01  2.000E+01  2.000E+04 -3.911E-02
   1   16    7     1     7    1.0640E+05 -7.3824E+02   1.0714E+05  0.000E+00  0.000E+00  0.000E+00  4.55482E+01  1.505E-01  2.000E+01  2.000E+04 -3.691E-02
   1   16    8     1     8    1.0714E+05 -6.8615E+02   1.0783E+05  0.000E+00  0.000E+00  0.000E+00  4.50715E+01  1.511E-01  2.000E+01  2.000E+04 -3.431E-02
   1   16    9     1     9    1.0783E+05 -6.0586E+02   1.0843E+05  0.000E+00  0.000E+00  0.000E+00  4.45948E+01  1.516E-01  2.000E+01  2.000E+04 -3.029E-02
   1   16   10     1    10    1.0843E+05 -4.8447E+02   1.0892E+05  0.000E+00  0.000E+00  0.000E+00  4.41180E+01  1.521E-01  2.000E+01  2.000E+04 -2.422E-02
   1   16   11     1    11    1.0892E+05 -2.9801E+02   1.0921E+05  0.000E+00  0.000E+00  0.000E+00  4.36410E+01  1.524E-01  2.000E+01  2.000E+04 -1.490E-02
   1   16   12     1    12    1.0921E+05  4.4119E+01   1.0917E+05  0.000E+00  0.000E+00  0.000E+00  4.31639E+01  1.525E-01  2.000E+01  2.000E+04  2.206E-03
   1   15   13     1    13    1.0917E+05  4.8043E+01   1.0912E+05  0.000E+00  0.000E+00  0.000E+00  4.26865E+01  1.525E-01  2.000E+01  2.000E+04  2.402E-03
   1   14   14     1    14    1.0912E+05 -3.4669E+02   1.0947E+05  0.000E+00  0.000E+00  0.000E+00  4.22094E+01  1.526E-01  2.000E+01  2.000E+04 -1.733E-02
   1   13   15     1    15    1.0947E+05 -9.2247E+02   1.1039E+05  0.000E+00  0.000E+00  0.000E+00  4.17327E+01  1.531E-01  2.000E+01  2.000E+04 -4.612E-02
   1   12   16     1    16    1.1039E+05 -2.0187E+03   1.1241E+05  0.000E+00  0.000E+00  0.000E+00  4.12566E+01  1.543E-01  2.000E+01  2.000E+04 -1.009E-01
   1   12   17     1    17    1.1241E+05 -1.1297E+03   1.1354E+05  0.000E+00  0.000E+00  0.000E+00  4.07806E+01  1.556E-01  2.000E+01  2.000E+04 -5.648E-02
   1   12   18     1    18    1.1354E+05 -1.0867E+03   1.1463E+05  0.000E+00  0.000E+00  0.000E+00  4.03043E+01  1.566E-01  2.000E+01  2.000E+04 -5.433E-02
   1   12   19     1    19    1.1463E+05 -1.7268E+03   1.1635E+05  0.000E+00  0.000E+00  0.000E+00  3.98282E+01  1.577E-01  2.000E+01  2.000E+04 -8.634E-02
   1   13   20     1    20    1.1635E+05 -6.0345E+02   1.1696E+05  0.000E+00  0.000E+00  0.000E+00  3.93518E+01  1.587E-01  2.000E+01  2.000E+04 -3.017E-02
   1   14   21     1    21    1.1696E+05  3.3473E+02   1.1662E+05  0.000E+00  0.000E+00  0.000E+00  3.88747E+01  1.588E-01  2.000E+01  2.000E+04  1.674E-02
   1   14   22     1    22    1.1662E+05  5.1805E+03   1.1144E+05  0.000E+00  0.000E+00  0.000E+00  3.83951E+01  1.565E-01  2.000E+01  2.000E+04  2.590E-01
   1    9   30     2     1    5.0000E+04 -5.0344E+02   5.0503E+04  0.000E+00  0.000E+00  0.000E+00  4.02412E+01  1.162E-01  2.000E+01  2.000E+04 -2.517E-02
   1    9   29     2     2    5.0503E+04 -8.0286E+02   5.1306E+04  0.000E+00  0.000E+00  0.000E+00  3.99921E+01  1.171E-01  2.000E+01  2.000E+04 -4.014E-02
   1    9   28     2     3    5.1306E+04 -1.0567E+03   5.2363E+04  0.000E+00  0.000E+00  0.000E+00  3.97434E+01  1.184E-01  2.000E+01  2.000E+04 -5.283E-02
   1    9   27     2     4    5.2363E+04 -2.2612E+03   5.4624E+04  0.000E+00  0.000E+00  0.000E+00  3.94957E+01  1.207E-01  2.000E+01  2.000E+04 -1.131E-01
   1   10   26     2     5    5.4624E+04 -1.4489E+03   5.6073E+04  0.000E+00  0.000E+00  0.000E+00  3.92482E+01  1.232E-01  2.000E+01  2.000E+04 -7.245E-02
   1   11   25     2     6    5.6073E+04 -1.2491E+03   5.7322E+04  0.000E+00  0.000E+00  0.000E+00  3.89999E+01  1.249E-01  2.000E+01  2.000E+04 -6.246E-02
   1   12   24     2     7    5.7322E+04 -1.3299E+03   5.8652E+04  0.000E+00  0.000E+00  0.000E+00  3.87516E+01  1.266E-01  2.000E+01  2.000E+04 -6.649E-02
   1   13   23     2     8    5.8652E+04 -1.8353E+02   5.8836E+04  0.000E+00  0.000E+00  0.000E+00  3.85026E+01  1.276E-01  2.000E+01  2.000E+04 -9.177E-03
   1   14   22     2     9    5.8836E+04  2.3025E+03   5.6533E+04  0.000E+00  0.000E+00  0.000E+00  3.82512E+01  1.262E-01  2.000E+01  2.000E+04  1.151E-01
   1   14   22     3     1    1.6797E+05 -8.2860E+03   1.7626E+05  0.000E+00  0.000E+00  0.000E+00  3.77218E+01  1.663E-01  2.000E+01  2.000E+04 -4.143E-01
   1   15   23     3     2    1.7626E+05 -1.1512E+02   1.7638E+05  0.000E+00  0.000E+00  0.000E+00  3.68354E+01  1.687E-01  2.000E+01  2.000E+04 -5.756E-03
   1   15   24     3     3    1.7638E+05 -1.1257E+02   1.7649E+05  0.000E+00  0.000E+00  0.000E+00  3.59465E+01  1.688E-01  2.000E+01  2.000E+04 -5.629E-03
   1   15   25     3     4    1.7649E+05 -1.4049E+02   1.7663E+05  0.000E+00  0.000E+00  0.000E+00  3.50577E+01  1.688E-01  2.000E+01  2.000E+04 -7.025E-03
   1   15   26     3     5    1.7663E+05 -2.1806E+02   1.7685E+05  0.000E+00  0.000E+00  0.000E+00  3.41689E+01  1.689E-01  2.000E+01  2.000E+04 -1.090E-02
   1   16   27     3     6    1.7685E+05 -2.0697E+02   1.7705E+05  0.000E+00  0.000E+00  0.000E+00  3.32802E+01  1.690E-01  2.000E+01  2.000E+04 -1.035E-02
   1   17   28     3     7    1.7705E+05 -1.0121E+03   1.7807E+05  0.000E+00  0.000E+00  0.000E+00  3.23916E+01  1.694E-01  2.000E+01  2.000E+04 -5.060E-02
   1   18   29     3     8    1.7807E+05 -1.9518E+03   1.8002E+05  0.000E+00  0.000E+00  0.000E+00  3.15036E+01  1.702E-01  2.000E+01  2.000E+04 -9.759E-02
   1   18   30     3     9    1.8002E+05 -2.5690E+03   1.8259E+05  0.000E+00  0.000E+00  0.000E+00  3.06160E+01  1.715E-01  2.000E+01  2.000E+04 -1.284E-01



1
              HEAD IN LAYER   1 AT END OF TIME STEP   1 IN STRESS PERIOD    7
  ---------------------------------------------------------------------------

          1      2      3      4      5      6      7      8      9     10
         11     12     13     14     15     16     17     18     19     20
         21     22     23     24     25     26     27     28     29     30
 .........................................................................
   1  ****** ****** ****** ****** ****** ****** ****** ****** ****** ******
      ****** ****** ****** ****** ****** ****** ****** ****** ****** ******
      ****** ****** ****** ****** ****** ****** ****** ****** ****** ******
   2  ****** ****** ****** ****** ****** ****** ****** ****** ****** ******
      ****** ****** ****** ****** ****** ****** ****** ****** ****** ******
      ****** ****** ****** ****** ****** ****** ****** ****** ****** ******
   3  ****** ****** ****** ****** ****** ****** ****** ****** ****** ******
      ****** ****** ****** ****** ****** ****** ****** ****** ****** ******
      ****** ****** ****** ****** ****** ****** ****** ****** ****** ******
   4  ****** ****** ****** ****** ****** ****** ****** ****** ****** ******
      ****** ****** ****** ****** ****** ****** ****** ****** ****** ******
      ****** ****** ****** ****** ****** ****** ****** ****** ****** ******
   5  ****** ****** ****** ****** ****** ****** ****** ****** ****** ******
      ****** ****** ****** ****** ****** ****** ****** ****** ****** ******
      ****** ****** ****** ****** ****** ****** ****** ****** ****** ******
   6  ****** ****** ****** ****** ****** ****** ****** ****** ****** ******
      ****** ****** ****** ****** ****** ****** ****** ****** ****** ******
      ****** ****** ****** ****** ****** ****** ****** ****** ****** ******
   7  ****** ****** ****** ****** ****** ****** ****** ****** ****** ******
      ****** ****** ****** ****** ****** ****** ****** ****** ****** ******
      ****** ****** ****** ****** ****** ****** ****** ****** ****** ******
   8  ****** ****** ****** ****** ****** ****** ****** ****** ****** ******
      ****** ****** ****** ****** ****** ****** ****** ****** ****** ******
      ****** ****** ****** ****** ****** ****** ****** ****** ****** ******
   9  ****** ****** ****** ****** ****** ****** ****** ****** ****** ******
      ****** ****** ****** ****** ****** ****** ****** ****** ****** ******
      ****** ****** ****** ****** ****** ****** ****** ****** ****** ******
  10  ****** ****** ****** ****** ****** ****** ****** ****** ****** ******
      ****** ****** ****** ****** ****** ****** ****** ****** ****** ******
      ****** ****** ****** ****** ****** ****** ****** ****** ****** ******
  11  ****** ****** ****** ****** ****** ****** ****** ****** ****** ******
      ****** ****** ****** ****** ****** ****** ****** ****** ****** ******
      ****** ****** ****** ****** ****** ****** ****** ****** ****** ******
  12  ****** ****** ****** ****** ****** ****** ****** ****** ****** ******
      ****** ****** ****** ****** ****** ****** ****** ****** ****** ******
      ****** ****** ****** ****** ****** ****** ****** ****** ****** ******
  13  ****** ****** ****** ****** ****** ****** ****** ****** ****** ******
      ****** ****** ****** ****** ****** ****** ****** ****** ****** ******
      ****** ****** ****** ****** ****** ****** ****** ****** ****** ******
  14  ****** ****** ****** ****** ****** ****** ****** ****** ****** ******
      ****** ****** ****** ****** ****** ****** ****** ****** ****** ******
      ****** ****** ****** ****** ****** ****** ****** ****** ****** ******
  15  ****** ****** ****** ****** ****** ****** ****** ****** ****** ******
      ****** ****** ****** ****** ****** ****** ****** ****** ****** ******
      ****** ****** ****** ****** ****** ****** ****** ****** ****** ******
  16  ****** ****** ****** ****** ****** ****** ****** ****** ****** ******
      ****** ****** ****** ****** ****** ****** ****** ****** ****** ******
      ****** ****** ****** ****** ****** ****** ****** ****** ****** ******
  17  ****** ****** ****** ****** ****** ****** ****** ****** ****** ******
      ****** ****** ****** ****** ****** ****** ****** ****** ****** ******
      ****** ****** ****** ****** ****** ****** ****** ****** ****** ******
  18  ****** ****** ****** ****** ****** ****** ****** ****** ****** ******
      ****** ****** ****** ****** ****** ****** ****** ****** ****** ******
      ****** ****** ****** ****** ****** ****** ****** ****** ****** ******
  19  ****** ****** ****** ****** ****** ****** ****** ****** ****** ******
      ****** ****** ****** ****** ****** ****** ****** ****** ****** ******
      ****** ****** ****** ****** ****** ****** ****** ****** ****** ******
  20  ****** ****** ****** ****** ****** ****** ****** ****** ****** ******
      ****** ****** ****** ****** ****** ****** ****** ****** ****** ******
      ****** ****** ****** ****** ****** ****** ****** ****** ****** ******
  21  ****** ****** ****** ****** ****** ****** ****** ****** ****** ******
      ****** ****** ****** ****** ****** ****** ****** ****** ****** ******
      ****** ****** ****** ****** ****** ****** ****** ****** ****** ******
  22  ****** ****** ****** ****** ****** ****** ****** ****** ****** ******
      ****** ****** ****** ****** ****** ****** ****** ****** ****** ******
      ****** ****** ****** ****** ****** ****** ****** ****** ****** ******
  23  ****** ****** ****** ****** ****** ****** ****** ****** ****** ******
      ****** ****** ****** ****** ****** ****** ****** ****** ****** ******
      ****** ****** ****** ****** ****** ****** ****** ****** ****** ******
  24  ****** ****** ****** ****** ****** ****** ****** ****** ****** ******
      ****** ****** ****** ****** ****** ****** ****** ****** ****** ******
      ****** ****** ****** ****** ****** ****** ****** ****** ****** ******
  25  ****** ****** ****** ****** ****** ****** ****** ****** ****** ******
      ****** ****** ****** ****** ****** ****** ****** ****** ****** ******
      ****** ****** ****** ****** ****** ****** ****** ****** ****** ******

 HEAD WILL BE SAVED ON UNIT   51 AT END OF TIME STEP    1, STRESS PERIOD    7
1
  VOLUMETRIC BUDGET FOR ENTIRE MODEL AT END OF TIME STEP    1, STRESS PERIOD   7
  ------------------------------------------------------------------------------

     CUMULATIVE VOLUMES      L**3       RATES FOR THIS TIME STEP      L**3/T
     ------------------                 ------------------------

           IN:                                      IN:
           ---                                      ---
             STORAGE =    34608285.0464               STORAGE =       23075.9602
       CONSTANT HEAD =    17494199.5521         CONSTANT HEAD =       35971.2524
               WELLS =           0.0000                 WELLS =           0.0000
            RECHARGE =    15097200.0000              RECHARGE =           0.0000
      STREAM LEAKAGE =     4242558.2558        STREAM LEAKAGE =        7909.8909

            TOTAL IN =    71442242.8543              TOTAL IN =       66957.1035

          OUT:                                     OUT:
          ----                                     ----
             STORAGE =      707640.6041               STORAGE =           0.0000
       CONSTANT HEAD =           0.0000         CONSTANT HEAD =           0.0000
               WELLS =    16908118.6245                 WELLS =       26460.2795
            RECHARGE =           0.0000              RECHARGE =           0.0000
      STREAM LEAKAGE =    53826486.1535        STREAM LEAKAGE =       40496.8294

           TOTAL OUT =    71442245.3821             TOTAL OUT =       66957.1089

            IN - OUT =          -2.5279              IN - OUT =      -5.4669E-03

 PERCENT DISCREPANCY =          -0.00     PERCENT DISCREPANCY =          -0.00






         TIME SUMMARY AT END OF TIME STEP    1 IN STRESS PERIOD    7
                    SECONDS     MINUTES      HOURS       DAYS        YEARS
                    -----------------------------------------------------------
   TIME STEP LENGTH 7.86240E+06 1.31040E+05  2184.0      91.000     0.24914    
 STRESS PERIOD TIME 7.86240E+06 1.31040E+05  2184.0      91.000     0.24914    
         TOTAL TIME 5.52096E+07 9.20160E+05  15336.      639.00      1.7495    
1
1
                            STRESS PERIOD NO.    8, LENGTH =   91.00000    
                            -----------------------------------------------

                              NUMBER OF TIME STEPS =     1

                               MULTIPLIER FOR DELT =     1.500

                            INITIAL TIME STEP SIZE =   91.00000    

 WELL NO.  LAYER   ROW   COL   STRESS RATE         
 --------------------------------------------------
      1      1     20     21      -6420.    
      2      1     18     16      -7655.    
      3      1     20     18      -5517.    
      4      1      4      9      -6868.    

      4 WELLS

                 RECHARGE =  1.000000E-03

 REUSING STREAM SEGMENT DATA FROM LAST STRESS PERIOD
 
 SOLVING FOR HEAD 


     6 CALLS TO PCG ROUTINE FOR TIME STEP   1 IN STRESS PERIOD    8
    22 TOTAL ITERATIONS

 OUTPUT CONTROL FOR STRESS PERIOD    8   TIME STEP    1
    SAVE BUDGET
    SAVE HEAD FOR ALL LAYERS
    PRINT HEAD FOR ALL LAYERS
 UBDSV2 SAVING "STREAMFLOW OUT  " ON UNIT  50 AT TIME STEP  1, STRESS PERIOD   8



 STREAM LISTING     PERIOD      8   STEP        1

 LAYER ROW COL. STREAM  RCH.  FLOW INTO     FLOW TO   FLOW OUT OF   OVRLND.     DIRECT     STREAM       STREAM     STREAM     STREAM   STREAMBED  STREAMBED
                SEG.NO.  NO.  STRM. RCH.    AQUIFER    STRM. RCH.    RUNOFF     PRECIP       ET          HEAD       DEPTH      WIDTH   CONDCTNC.   GRADIENT

   1   13    1     1     1    1.0000E+05 -1.4210E+03   1.0142E+05  0.000E+00  0.000E+00  0.000E+00  4.84066E+01  1.453E-01  2.000E+01  2.000E+04 -7.105E-02
   1   13    2     1     2    1.0142E+05 -2.3545E+03   1.0378E+05  0.000E+00  0.000E+00  0.000E+00  4.79310E+01  1.469E-01  2.000E+01  2.000E+04 -1.177E-01
   1   14    3     1     3    1.0378E+05 -4.2582E+02   1.0420E+05  0.000E+00  0.000E+00  0.000E+00  4.74549E+01  1.481E-01  2.000E+01  2.000E+04 -2.129E-02
   1   15    4     1     4    1.0420E+05 -4.0176E+02   1.0460E+05  0.000E+00  0.000E+00  0.000E+00  4.69780E+01  1.484E-01  2.000E+01  2.000E+04 -2.009E-02
   1   16    5     1     5    1.0460E+05 -1.4306E+03   1.0603E+05  0.000E+00  0.000E+00  0.000E+00  4.65015E+01  1.492E-01  2.000E+01  2.000E+04 -7.153E-02
   1   16    6     1     6    1.0603E+05 -8.8582E+02   1.0692E+05  0.000E+00  0.000E+00  0.000E+00  4.60252E+01  1.502E-01  2.000E+01  2.000E+04 -4.429E-02
   1   16    7     1     7    1.0692E+05 -8.3671E+02   1.0776E+05  0.000E+00  0.000E+00  0.000E+00  4.55487E+01  1.509E-01  2.000E+01  2.000E+04 -4.184E-02
   1   16    8     1     8    1.0776E+05 -7.8370E+02   1.0854E+05  0.000E+00  0.000E+00  0.000E+00  4.50721E+01  1.516E-01  2.000E+01  2.000E+04 -3.918E-02
   1   16    9     1     9    1.0854E+05 -7.0455E+02   1.0924E+05  0.000E+00  0.000E+00  0.000E+00  4.45954E+01  1.522E-01  2.000E+01  2.000E+04 -3.523E-02
   1   16   10     1    10    1.0924E+05 -5.8569E+02   1.0983E+05  0.000E+00  0.000E+00  0.000E+00  4.41187E+01  1.528E-01  2.000E+01  2.000E+04 -2.928E-02
   1   16   11     1    11    1.0983E+05 -4.0217E+02   1.1023E+05  0.000E+00  0.000E+00  0.000E+00  4.36418E+01  1.532E-01  2.000E+01  2.000E+04 -2.011E-02
   1   16   12     1    12    1.1023E+05 -1.0946E+02   1.1034E+05  0.000E+00  0.000E+00  0.000E+00  4.31648E+01  1.534E-01  2.000E+01  2.000E+04 -5.473E-03
   1   15   13     1    13    1.1034E+05 -1.1121E+02   1.1045E+05  0.000E+00  0.000E+00  0.000E+00  4.26876E+01  1.535E-01  2.000E+01  2.000E+04 -5.561E-03
   1   14   14     1    14    1.1045E+05 -4.9780E+02   1.1095E+05  0.000E+00  0.000E+00  0.000E+00  4.22106E+01  1.538E-01  2.000E+01  2.000E+04 -2.489E-02
   1   13   15     1    15    1.1095E+05 -1.0601E+03   1.1201E+05  0.000E+00  0.000E+00  0.000E+00  4.17339E+01  1.544E-01  2.000E+01  2.000E+04 -5.300E-02
   1   12   16     1    16    1.1201E+05 -2.1172E+03   1.1413E+05  0.000E+00  0.000E+00  0.000E+00  4.12580E+01  1.557E-01  2.000E+01  2.000E+04 -1.059E-01
   1   12   17     1    17    1.1413E+05 -1.2338E+03   1.1536E+05  0.000E+00  0.000E+00  0.000E+00  4.07821E+01  1.571E-01  2.000E+01  2.000E+04 -6.169E-02
   1   12   18     1    18    1.1536E+05 -1.1985E+03   1.1656E+05  0.000E+00  0.000E+00  0.000E+00  4.03058E+01  1.581E-01  2.000E+01  2.000E+04 -5.993E-02
   1   12   19     1    19    1.1656E+05 -1.8694E+03   1.1843E+05  0.000E+00  0.000E+00  0.000E+00  3.98298E+01  1.593E-01  2.000E+01  2.000E+04 -9.347E-02
   1   13   20     1    20    1.1843E+05 -7.7591E+02   1.1921E+05  0.000E+00  0.000E+00  0.000E+00  3.93536E+01  1.604E-01  2.000E+01  2.000E+04 -3.880E-02
   1   14   21     1    21    1.1921E+05  1.8393E+02   1.1902E+05  0.000E+00  0.000E+00  0.000E+00  3.88766E+01  1.607E-01  2.000E+01  2.000E+04  9.197E-03
   1   14   22     1    22    1.1902E+05  5.1344E+03   1.1389E+05  0.000E+00  0.000E+00  0.000E+00  3.83971E+01  1.585E-01  2.000E+01  2.000E+04  2.567E-01
   1    9   30     2     1    5.0000E+04 -6.6606E+02   5.0666E+04  0.000E+00  0.000E+00  0.000E+00  4.02413E+01  1.163E-01  2.000E+01  2.000E+04 -3.330E-02
   1    9   29     2     2    5.0666E+04 -9.6261E+02   5.1629E+04  0.000E+00  0.000E+00  0.000E+00  3.99925E+01  1.175E-01  2.000E+01  2.000E+04 -4.813E-02
   1    9   28     2     3    5.1629E+04 -1.2106E+03   5.2839E+04  0.000E+00  0.000E+00  0.000E+00  3.97439E+01  1.189E-01  2.000E+01  2.000E+04 -6.053E-02
   1    9   27     2     4    5.2839E+04 -2.4371E+03   5.5276E+04  0.000E+00  0.000E+00  0.000E+00  3.94964E+01  1.214E-01  2.000E+01  2.000E+04 -1.219E-01
   1   10   26     2     5    5.5276E+04 -1.6520E+03   5.6928E+04  0.000E+00  0.000E+00  0.000E+00  3.92492E+01  1.242E-01  2.000E+01  2.000E+04 -8.260E-02
   1   11   25     2     6    5.6928E+04 -1.4506E+03   5.8379E+04  0.000E+00  0.000E+00  0.000E+00  3.90012E+01  1.262E-01  2.000E+01  2.000E+04 -7.253E-02
   1   12   24     2     7    5.8379E+04 -1.5125E+03   5.9891E+04  0.000E+00  0.000E+00  0.000E+00  3.87531E+01  1.281E-01  2.000E+01  2.000E+04 -7.562E-02
   1   13   23     2     8    5.9891E+04 -2.5742E+02   6.0149E+04  0.000E+00  0.000E+00  0.000E+00  3.85043E+01  1.293E-01  2.000E+01  2.000E+04 -1.287E-02
   1   14   22     2     9    6.0149E+04  2.2516E+03   5.7897E+04  0.000E+00  0.000E+00  0.000E+00  3.82530E+01  1.280E-01  2.000E+01  2.000E+04  1.126E-01
   1   14   22     3     1    1.7178E+05 -8.3277E+03   1.8011E+05  0.000E+00  0.000E+00  0.000E+00  3.77240E+01  1.685E-01  2.000E+01  2.000E+04 -4.164E-01
   1   15   23     3     2    1.8011E+05 -1.7746E+02   1.8029E+05  0.000E+00  0.000E+00  0.000E+00  3.68376E+01  1.709E-01  2.000E+01  2.000E+04 -8.873E-03
   1   15   24     3     3    1.8029E+05 -1.7201E+02   1.8046E+05  0.000E+00  0.000E+00  0.000E+00  3.59488E+01  1.710E-01  2.000E+01  2.000E+04 -8.601E-03
   1   15   25     3     4    1.8046E+05 -2.0179E+02   1.8066E+05  0.000E+00  0.000E+00  0.000E+00  3.50600E+01  1.711E-01  2.000E+01  2.000E+04 -1.009E-02
   1   15   26     3     5    1.8066E+05 -2.9210E+02   1.8096E+05  0.000E+00  0.000E+00  0.000E+00  3.41713E+01  1.713E-01  2.000E+01  2.000E+04 -1.461E-02
   1   16   27     3     6    1.8096E+05 -2.8767E+02   1.8124E+05  0.000E+00  0.000E+00  0.000E+00  3.32825E+01  1.714E-01  2.000E+01  2.000E+04 -1.438E-02
   1   17   28     3     7    1.8124E+05 -1.2119E+03   1.8246E+05  0.000E+00  0.000E+00  0.000E+00  3.23941E+01  1.718E-01  2.000E+01  2.000E+04 -6.060E-02
   1   18   29     3     8    1.8246E+05 -2.1089E+03   1.8456E+05  0.000E+00  0.000E+00  0.000E+00  3.15061E+01  1.728E-01  2.000E+01  2.000E+04 -1.054E-01
   1   18   30     3     9    1.8456E+05 -2.7106E+03   1.8727E+05  0.000E+00  0.000E+00  0.000E+00  3.06186E+01  1.741E-01  2.000E+01  2.000E+04 -1.355E-01



1
              HEAD IN LAYER   1 AT END OF TIME STEP   1 IN STRESS PERIOD    8
  ---------------------------------------------------------------------------

          1      2      3      4      5      6      7      8      9     10
         11     12     13     14     15     16     17     18     19     20
         21     22     23     24     25     26     27     28     29     30
 .........................................................................
   1  ****** ****** ****** ****** ****** ****** ****** ****** ****** ******
      ****** ****** ****** ****** ****** ****** ****** ****** ****** ******
      ****** ****** ****** ****** ****** ****** ****** ****** ****** ******
   2  ****** ****** ****** ****** ****** ****** ****** ****** ****** ******
      ****** ****** ****** ****** ****** ****** ****** ****** ****** ******
      ****** ****** ****** ****** ****** ****** ****** ****** ****** ******
   3  ****** ****** ****** ****** ****** ****** ****** ****** ****** ******
      ****** ****** ****** ****** ****** ****** ****** ****** ****** ******
      ****** ****** ****** ****** ****** ****** ****** ****** ****** ******
   4  ****** ****** ****** ****** ****** ****** ****** ****** ****** ******
      ****** ****** ****** ****** ****** ****** ****** ****** ****** ******
      ****** ****** ****** ****** ****** ****** ****** ****** ****** ******
   5  ****** ****** ****** ****** ****** ****** ****** ****** ****** ******
      ****** ****** ****** ****** ****** ****** ****** ****** ****** ******
      ****** ****** ****** ****** ****** ****** ****** ****** ****** ******
   6  ****** ****** ****** ****** ****** ****** ****** ****** ****** ******
      ****** ****** ****** ****** ****** ****** ****** ****** ****** ******
      ****** ****** ****** ****** ****** ****** ****** ****** ****** ******
   7  ****** ****** ****** ****** ****** ****** ****** ****** ****** ******
      ****** ****** ****** ****** ****** ****** ****** ****** ****** ******
      ****** ****** ****** ****** ****** ****** ****** ****** ****** ******
   8  ****** ****** ****** ****** ****** ****** ****** ****** ****** ******
      ****** ****** ****** ****** ****** ****** ****** ****** ****** ******
      ****** ****** ****** ****** ****** ****** ****** ****** ****** ******
   9  ****** ****** ****** ****** ****** ****** ****** ****** ****** ******
      ****** ****** ****** ****** ****** ****** ****** ****** ****** ******
      ****** ****** ****** ****** ****** ****** ****** ****** ****** ******
  10  ****** ****** ****** ****** ****** ****** ****** ****** ****** ******
      ****** ****** ****** ****** ****** ****** ****** ****** ****** ******
      ****** ****** ****** ****** ****** ****** ****** ****** ****** ******
  11  ****** ****** ****** ****** ****** ****** ****** ****** ****** ******
      ****** ****** ****** ****** ****** ****** ****** ****** ****** ******
      ****** ****** ****** ****** ****** ****** ****** ****** ****** ******
  12  ****** ****** ****** ****** ****** ****** ****** ****** ****** ******
      ****** ****** ****** ****** ****** ****** ****** ****** ****** ******
      ****** ****** ****** ****** ****** ****** ****** ****** ****** ******
  13  ****** ****** ****** ****** ****** ****** ****** ****** ****** ******
      ****** ****** ****** ****** ****** ****** ****** ****** ****** ******
      ****** ****** ****** ****** ****** ****** ****** ****** ****** ******
  14  ****** ****** ****** ****** ****** ****** ****** ****** ****** ******
      ****** ****** ****** ****** ****** ****** ****** ****** ****** ******
      ****** ****** ****** ****** ****** ****** ****** ****** ****** ******
  15  ****** ****** ****** ****** ****** ****** ****** ****** ****** ******
      ****** ****** ****** ****** ****** ****** ****** ****** ****** ******
      ****** ****** ****** ****** ****** ****** ****** ****** ****** ******
  16  ****** ****** ****** ****** ****** ****** ****** ****** ****** ******
      ****** ****** ****** ****** ****** ****** ****** ****** ****** ******
      ****** ****** ****** ****** ****** ****** ****** ****** ****** ******
  17  ****** ****** ****** ****** ****** ****** ****** ****** ****** ******
      ****** ****** ****** ****** ****** ****** ****** ****** ****** ******
      ****** ****** ****** ****** ****** ****** ****** ****** ****** ******
  18  ****** ****** ****** ****** ****** ****** ****** ****** ****** ******
      ****** ****** ****** ****** ****** ****** ****** ****** ****** ******
      ****** ****** ****** ****** ****** ****** ****** ****** ****** ******
  19  ****** ****** ****** ****** ****** ****** ****** ****** ****** ******
      ****** ****** ****** ****** ****** ****** ****** ****** ****** ******
      ****** ****** ****** ****** ****** ****** ****** ****** ****** ******
  20  ****** ****** ****** ****** ****** ****** ****** ****** ****** ******
      ****** ****** ****** ****** ****** ****** ****** ****** ****** ******
      ****** ****** ****** ****** ****** ****** ****** ****** ****** ******
  21  ****** ****** ****** ****** ****** ****** ****** ****** ****** ******
      ****** ****** ****** ****** ****** ****** ****** ****** ****** ******
      ****** ****** ****** ****** ****** ****** ****** ****** ****** ******
  22  ****** ****** ****** ****** ****** ****** ****** ****** ****** ******
      ****** ****** ****** ****** ****** ****** ****** ****** ****** ******
      ****** ****** ****** ****** ****** ****** ****** ****** ****** ******
  23  ****** ****** ****** ****** ****** ****** ****** ****** ****** ******
      ****** ****** ****** ****** ****** ****** ****** ****** ****** ******
      ****** ****** ****** ****** ****** ****** ****** ****** ****** ******
  24  ****** ****** ****** ****** ****** ****** ****** ****** ****** ******
      ****** ****** ****** ****** ****** ****** ****** ****** ****** ******
      ****** ****** ****** ****** ****** ****** ****** ****** ****** ******
  25  ****** ****** ****** ****** ****** ****** ****** ****** ****** ******
      ****** ****** ****** ****** ****** ****** ****** ****** ****** ******
      ****** ****** ****** ****** ****** ****** ****** ****** ****** ******

 HEAD WILL BE SAVED ON UNIT   51 AT END OF TIME STEP    1, STRESS PERIOD    8
1
  VOLUMETRIC BUDGET FOR ENTIRE MODEL AT END OF TIME STEP    1, STRESS PERIOD   8
  ------------------------------------------------------------------------------

     CUMULATIVE VOLUMES      L**3       RATES FOR THIS TIME STEP      L**3/T
     ------------------                 ------------------------

           IN:                                      IN:
           ---                                      ---
             STORAGE =    34772882.6556               STORAGE =        1808.7649
       CONSTANT HEAD =    20746457.8018         CONSTANT HEAD =       35739.1016
               WELLS =           0.0000                 WELLS =           0.0000
            RECHARGE =    17608800.0000              RECHARGE =       27600.0000
      STREAM LEAKAGE =     4931422.3827        STREAM LEAKAGE =        7569.9355

            TOTAL IN =    78059562.8401              TOTAL IN =       72717.8020

          OUT:                                     OUT:
          ----                                     ----
             STORAGE =      836203.9135               STORAGE =        1412.7836
       CONSTANT HEAD =           0.0000         CONSTANT HEAD =           0.0000
               WELLS =    19316004.0624                 WELLS =       26460.2795
            RECHARGE =           0.0000              RECHARGE =           0.0000
      STREAM LEAKAGE =    57907356.7045        STREAM LEAKAGE =       44844.7313

           TOTAL OUT =    78059564.6804             TOTAL OUT =       72717.7945

            IN - OUT =          -1.8403              IN - OUT =       7.5558E-03

 PERCENT DISCREPANCY =          -0.00     PERCENT DISCREPANCY =           0.00






         TIME SUMMARY AT END OF TIME STEP    1 IN STRESS PERIOD    8
                    SECONDS     MINUTES      HOURS       DAYS        YEARS
                    -----------------------------------------------------------
   TIME STEP LENGTH 7.86240E+06 1.31040E+05  2184.0      91.000     0.24914    
 STRESS PERIOD TIME 7.86240E+06 1.31040E+05  2184.0      91.000     0.24914    
         TOTAL TIME 6.30720E+07 1.05120E+06  17520.      730.00      1.9986    
1
1
                            STRESS PERIOD NO.    9, LENGTH =   92.00000    
                            -----------------------------------------------

                              NUMBER OF TIME STEPS =     1

                               MULTIPLIER FOR DELT =     1.500

                            INITIAL TIME STEP SIZE =   92.00000    

 WELL NO.  LAYER   ROW   COL   STRESS RATE         
 --------------------------------------------------
      1      1     20     21      -6420.    
      2      1     18     16      -7655.    
      3      1     20     18      -5517.    
      4      1      4      9      -6868.    

      4 WELLS

                 RECHARGE =  5.000000E-04

 REUSING STREAM SEGMENT DATA FROM LAST STRESS PERIOD
 
 SOLVING FOR HEAD 


     6 CALLS TO PCG ROUTINE FOR TIME STEP   1 IN STRESS PERIOD    9
    23 TOTAL ITERATIONS

 OUTPUT CONTROL FOR STRESS PERIOD    9   TIME STEP    1
    SAVE BUDGET
    SAVE HEAD FOR ALL LAYERS
    PRINT HEAD FOR ALL LAYERS
 UBDSV2 SAVING "STREAMFLOW OUT  " ON UNIT  50 AT TIME STEP  1, STRESS PERIOD   9



 STREAM LISTING     PERIOD      9   STEP        1

 LAYER ROW COL. STREAM  RCH.  FLOW INTO     FLOW TO   FLOW OUT OF   OVRLND.     DIRECT     STREAM       STREAM     STREAM     STREAM   STREAMBED  STREAMBED
                SEG.NO.  NO.  STRM. RCH.    AQUIFER    STRM. RCH.    RUNOFF     PRECIP       ET          HEAD       DEPTH      WIDTH   CONDCTNC.   GRADIENT

   1   13    1     1     1    1.0000E+05 -1.1967E+03   1.0120E+05  0.000E+00  0.000E+00  0.000E+00  4.84065E+01  1.452E-01  2.000E+01  2.000E+04 -5.983E-02
   1   13    2     1     2    1.0120E+05 -2.1001E+03   1.0330E+05  0.000E+00  0.000E+00  0.000E+00  4.79307E+01  1.466E-01  2.000E+01  2.000E+04 -1.050E-01
   1   14    3     1     3    1.0330E+05 -3.5319E+02   1.0365E+05  0.000E+00  0.000E+00  0.000E+00  4.74545E+01  1.476E-01  2.000E+01  2.000E+04 -1.766E-02
   1   15    4     1     4    1.0365E+05 -3.2839E+02   1.0398E+05  0.000E+00  0.000E+00  0.000E+00  4.69775E+01  1.479E-01  2.000E+01  2.000E+04 -1.642E-02
   1   16    5     1     5    1.0398E+05 -1.2355E+03   1.0521E+05  0.000E+00  0.000E+00  0.000E+00  4.65009E+01  1.486E-01  2.000E+01  2.000E+04 -6.177E-02
   1   16    6     1     6    1.0521E+05 -7.6372E+02   1.0598E+05  0.000E+00  0.000E+00  0.000E+00  4.60245E+01  1.495E-01  2.000E+01  2.000E+04 -3.819E-02
   1   16    7     1     7    1.0598E+05 -7.1822E+02   1.0670E+05  0.000E+00  0.000E+00  0.000E+00  4.55478E+01  1.501E-01  2.000E+01  2.000E+04 -3.591E-02
   1   16    8     1     8    1.0670E+05 -6.6672E+02   1.0736E+05  0.000E+00  0.000E+00  0.000E+00  4.50711E+01  1.507E-01  2.000E+01  2.000E+04 -3.334E-02
   1   16    9     1     9    1.0736E+05 -5.8923E+02   1.0795E+05  0.000E+00  0.000E+00  0.000E+00  4.45944E+01  1.512E-01  2.000E+01  2.000E+04 -2.946E-02
   1   16   10     1    10    1.0795E+05 -4.7248E+02   1.0842E+05  0.000E+00  0.000E+00  0.000E+00  4.41176E+01  1.516E-01  2.000E+01  2.000E+04 -2.362E-02
   1   16   11     1    11    1.0842E+05 -2.9000E+02   1.0871E+05  0.000E+00  0.000E+00  0.000E+00  4.36406E+01  1.520E-01  2.000E+01  2.000E+04 -1.450E-02
   1   16   12     1    12    1.0871E+05  8.3301E+01   1.0863E+05  0.000E+00  0.000E+00  0.000E+00  4.31634E+01  1.521E-01  2.000E+01  2.000E+04  4.165E-03
   1   15   13     1    13    1.0863E+05  1.0390E+02   1.0853E+05  0.000E+00  0.000E+00  0.000E+00  4.26861E+01  1.520E-01  2.000E+01  2.000E+04  5.195E-03
   1   14   14     1    14    1.0853E+05 -2.6840E+02   1.0880E+05  0.000E+00  0.000E+00  0.000E+00  4.22089E+01  1.520E-01  2.000E+01  2.000E+04 -1.342E-02
   1   13   15     1    15    1.0880E+05 -8.2432E+02   1.0962E+05  0.000E+00  0.000E+00  0.000E+00  4.17320E+01  1.525E-01  2.000E+01  2.000E+04 -4.122E-02
   1   12   16     1    16    1.0962E+05 -1.8725E+03   1.1149E+05  0.000E+00  0.000E+00  0.000E+00  4.12559E+01  1.536E-01  2.000E+01  2.000E+04 -9.362E-02
   1   12   17     1    17    1.1149E+05 -1.0668E+03   1.1256E+05  0.000E+00  0.000E+00  0.000E+00  4.07799E+01  1.549E-01  2.000E+01  2.000E+04 -5.334E-02
   1   12   18     1    18    1.1256E+05 -1.0397E+03   1.1360E+05  0.000E+00  0.000E+00  0.000E+00  4.03035E+01  1.557E-01  2.000E+01  2.000E+04 -5.198E-02
   1   12   19     1    19    1.1360E+05 -1.6787E+03   1.1528E+05  0.000E+00  0.000E+00  0.000E+00  3.98273E+01  1.568E-01  2.000E+01  2.000E+04 -8.394E-02
   1   13   20     1    20    1.1528E+05 -5.9928E+02   1.1588E+05  0.000E+00  0.000E+00  0.000E+00  3.93510E+01  1.578E-01  2.000E+01  2.000E+04 -2.996E-02
   1   14   21     1    21    1.1588E+05  3.5954E+02   1.1552E+05  0.000E+00  0.000E+00  0.000E+00  3.88738E+01  1.579E-01  2.000E+01  2.000E+04  1.798E-02
   1   14   22     1    22    1.1552E+05  5.1723E+03   1.1034E+05  0.000E+00  0.000E+00  0.000E+00  3.83942E+01  1.556E-01  2.000E+01  2.000E+04  2.586E-01
   1    9   30     2     1    5.0000E+04 -5.4238E+02   5.0542E+04  0.000E+00  0.000E+00  0.000E+00  4.02412E+01  1.162E-01  2.000E+01  2.000E+04 -2.712E-02
   1    9   29     2     2    5.0542E+04 -8.3865E+02   5.1381E+04  0.000E+00  0.000E+00  0.000E+00  3.99922E+01  1.172E-01  2.000E+01  2.000E+04 -4.193E-02
   1    9   28     2     3    5.1381E+04 -1.0847E+03   5.2466E+04  0.000E+00  0.000E+00  0.000E+00  3.97435E+01  1.185E-01  2.000E+01  2.000E+04 -5.423E-02
   1    9   27     2     4    5.2466E+04 -2.2592E+03   5.4725E+04  0.000E+00  0.000E+00  0.000E+00  3.94958E+01  1.208E-01  2.000E+01  2.000E+04 -1.130E-01
   1   10   26     2     5    5.4725E+04 -1.4771E+03   5.6202E+04  0.000E+00  0.000E+00  0.000E+00  3.92483E+01  1.233E-01  2.000E+01  2.000E+04 -7.385E-02
   1   11   25     2     6    5.6202E+04 -1.2832E+03   5.7485E+04  0.000E+00  0.000E+00  0.000E+00  3.90001E+01  1.251E-01  2.000E+01  2.000E+04 -6.416E-02
   1   12   24     2     7    5.7485E+04 -1.3583E+03   5.8843E+04  0.000E+00  0.000E+00  0.000E+00  3.87519E+01  1.269E-01  2.000E+01  2.000E+04 -6.792E-02
   1   13   23     2     8    5.8843E+04 -2.1008E+02   5.9054E+04  0.000E+00  0.000E+00  0.000E+00  3.85029E+01  1.279E-01  2.000E+01  2.000E+04 -1.050E-02
   1   14   22     2     9    5.9054E+04  2.3179E+03   5.6736E+04  0.000E+00  0.000E+00  0.000E+00  3.82515E+01  1.265E-01  2.000E+01  2.000E+04  1.159E-01
   1   14   22     3     1    1.6708E+05 -8.2865E+03   1.7537E+05  0.000E+00  0.000E+00  0.000E+00  3.77213E+01  1.657E-01  2.000E+01  2.000E+04 -4.143E-01
   1   15   23     3     2    1.7537E+05 -1.2393E+02   1.7549E+05  0.000E+00  0.000E+00  0.000E+00  3.68348E+01  1.682E-01  2.000E+01  2.000E+04 -6.197E-03
   1   15   24     3     3    1.7549E+05 -1.2845E+02   1.7562E+05  0.000E+00  0.000E+00  0.000E+00  3.59460E+01  1.682E-01  2.000E+01  2.000E+04 -6.423E-03
   1   15   25     3     4    1.7562E+05 -1.5803E+02   1.7578E+05  0.000E+00  0.000E+00  0.000E+00  3.50572E+01  1.683E-01  2.000E+01  2.000E+04 -7.901E-03
   1   15   26     3     5    1.7578E+05 -2.4419E+02   1.7602E+05  0.000E+00  0.000E+00  0.000E+00  3.41684E+01  1.684E-01  2.000E+01  2.000E+04 -1.221E-02
   1   16   27     3     6    1.7602E+05 -2.3109E+02   1.7625E+05  0.000E+00  0.000E+00  0.000E+00  3.32797E+01  1.686E-01  2.000E+01  2.000E+04 -1.155E-02
   1   17   28     3     7    1.7625E+05 -1.0564E+03   1.7731E+05  0.000E+00  0.000E+00  0.000E+00  3.23912E+01  1.690E-01  2.000E+01  2.000E+04 -5.282E-02
   1   18   29     3     8    1.7731E+05 -1.9286E+03   1.7924E+05  0.000E+00  0.000E+00  0.000E+00  3.15031E+01  1.698E-01  2.000E+01  2.000E+04 -9.643E-02
   1   18   30     3     9    1.7924E+05 -2.5758E+03   1.8181E+05  0.000E+00  0.000E+00  0.000E+00  3.06155E+01  1.711E-01  2.000E+01  2.000E+04 -1.288E-01



1
              HEAD IN LAYER   1 AT END OF TIME STEP   1 IN STRESS PERIOD    9
  ---------------------------------------------------------------------------

          1      2      3      4      5      6      7      8      9     10
         11     12     13     14     15     16     17     18     19     20
         21     22     23     24     25     26     27     28     29     30
 .........................................................................
   1  ****** ****** ****** ****** ****** ****** ****** ****** ****** ******
      ****** ****** ****** ****** ****** ****** ****** ****** ****** ******
      ****** ****** ****** ****** ****** ****** ****** ****** ****** ******
   2  ****** ****** ****** ****** ****** ****** ****** ****** ****** ******
      ****** ****** ****** ****** ****** ****** ****** ****** ****** ******
      ****** ****** ****** ****** ****** ****** ****** ****** ****** ******
   3  ****** ****** ****** ****** ****** ****** ****** ****** ****** ******
      ****** ****** ****** ****** ****** ****** ****** ****** ****** ******
      ****** ****** ****** ****** ****** ****** ****** ****** ****** ******
   4  ****** ****** ****** ****** ****** ****** ****** ****** ****** ******
      ****** ****** ****** ****** ****** ****** ****** ****** ****** ******
      ****** ****** ****** ****** ****** ****** ****** ****** ****** ******
   5  ****** ****** ****** ****** ****** ****** ****** ****** ****** ******
      ****** ****** ****** ****** ****** ****** ****** ****** ****** ******
      ****** ****** ****** ****** ****** ****** ****** ****** ****** ******
   6  ****** ****** ****** ****** ****** ****** ****** ****** ****** ******
      ****** ****** ****** ****** ****** ****** ****** ****** ****** ******
      ****** ****** ****** ****** ****** ****** ****** ****** ****** ******
   7  ****** ****** ****** ****** ****** ****** ****** ****** ****** ******
      ****** ****** ****** ****** ****** ****** ****** ****** ****** ******
      ****** ****** ****** ****** ****** ****** ****** ****** ****** ******
   8  ****** ****** ****** ****** ****** ****** ****** ****** ****** ******
      ****** ****** ****** ****** ****** ****** ****** ****** ****** ******
      ****** ****** ****** ****** ****** ****** ****** ****** ****** ******
   9  ****** ****** ****** ****** ****** ****** ****** ****** ****** ******
      ****** ****** ****** ****** ****** ****** ****** ****** ****** ******
      ****** ****** ****** ****** ****** ****** ****** ****** ****** ******
  10  ****** ****** ****** ****** ****** ****** ****** ****** ****** ******
      ****** ****** ****** ****** ****** ****** ****** ****** ****** ******
      ****** ****** ****** ****** ****** ****** ****** ****** ****** ******
  11  ****** ****** ****** ****** ****** ****** ****** ****** ****** ******
      ****** ****** ****** ****** ****** ****** ****** ****** ****** ******
      ****** ****** ****** ****** ****** ****** ****** ****** ****** ******
  12  ****** ****** ****** ****** ****** ****** ****** ****** ****** ******
      ****** ****** ****** ****** ****** ****** ****** ****** ****** ******
      ****** ****** ****** ****** ****** ****** ****** ****** ****** ******
  13  ****** ****** ****** ****** ****** ****** ****** ****** ****** ******
      ****** ****** ****** ****** ****** ****** ****** ****** ****** ******
      ****** ****** ****** ****** ****** ****** ****** ****** ****** ******
  14  ****** ****** ****** ****** ****** ****** ****** ****** ****** ******
      ****** ****** ****** ****** ****** ****** ****** ****** ****** ******
      ****** ****** ****** ****** ****** ****** ****** ****** ****** ******
  15  ****** ****** ****** ****** ****** ****** ****** ****** ****** ******
      ****** ****** ****** ****** ****** ****** ****** ****** ****** ******
      ****** ****** ****** ****** ****** ****** ****** ****** ****** ******
  16  ****** ****** ****** ****** ****** ****** ****** ****** ****** ******
      ****** ****** ****** ****** ****** ****** ****** ****** ****** ******
      ****** ****** ****** ****** ****** ****** ****** ****** ****** ******
  17  ****** ****** ****** ****** ****** ****** ****** ****** ****** ******
      ****** ****** ****** ****** ****** ****** ****** ****** ****** ******
      ****** ****** ****** ****** ****** ****** ****** ****** ****** ******
  18  ****** ****** ****** ****** ****** ****** ****** ****** ****** ******
      ****** ****** ****** ****** ****** ****** ****** ****** ****** ******
      ****** ****** ****** ****** ****** ****** ****** ****** ****** ******
  19  ****** ****** ****** ****** ****** ****** ****** ****** ****** ******
      ****** ****** ****** ****** ****** ****** ****** ****** ****** ******
      ****** ****** ****** ****** ****** ****** ****** ****** ****** ******
  20  ****** ****** ****** ****** ****** ****** ****** ****** ****** ******
      ****** ****** ****** ****** ****** ****** ****** ****** ****** ******
      ****** ****** ****** ****** ****** ****** ****** ****** ****** ******
  21  ****** ****** ****** ****** ****** ****** ****** ****** ****** ******
      ****** ****** ****** ****** ****** ****** ****** ****** ****** ******
      ****** ****** ****** ****** ****** ****** ****** ****** ****** ******
  22  ****** ****** ****** ****** ****** ****** ****** ****** ****** ******
      ****** ****** ****** ****** ****** ****** ****** ****** ****** ******
      ****** ****** ****** ****** ****** ****** ****** ****** ****** ******
  23  ****** ****** ****** ****** ****** ****** ****** ****** ****** ******
      ****** ****** ****** ****** ****** ****** ****** ****** ****** ******
      ****** ****** ****** ****** ****** ****** ****** ****** ****** ******
  24  ****** ****** ****** ****** ****** ****** ****** ****** ****** ******
      ****** ****** ****** ****** ****** ****** ****** ****** ****** ******
      ****** ****** ****** ****** ****** ****** ****** ****** ****** ******
  25  ****** ****** ****** ****** ****** ****** ****** ****** ****** ******
      ****** ****** ****** ****** ****** ****** ****** ****** ****** ******
      ****** ****** ****** ****** ****** ****** ****** ****** ****** ******

 HEAD WILL BE SAVED ON UNIT   51 AT END OF TIME STEP    1, STRESS PERIOD    9
1
  VOLUMETRIC BUDGET FOR ENTIRE MODEL AT END OF TIME STEP    1, STRESS PERIOD   9
  ------------------------------------------------------------------------------

     CUMULATIVE VOLUMES      L**3       RATES FOR THIS TIME STEP      L**3/T
     ------------------                 ------------------------

           IN:                                      IN:
           ---                                      ---
             STORAGE =    35465341.9945               STORAGE =        7526.7319
       CONSTANT HEAD =    24145573.2550         CONSTANT HEAD =       36946.9071
               WELLS =           0.0000                 WELLS =           0.0000
            RECHARGE =    18878400.0000              RECHARGE =       13800.0000
      STREAM LEAKAGE =     5670818.4449        STREAM LEAKAGE =        8036.9137

            TOTAL IN =    84160133.6944              TOTAL IN =       66310.5528

          OUT:                                     OUT:
          ----                                     ----
             STORAGE =      836203.9135               STORAGE =           0.0000
       CONSTANT HEAD =           0.0000         CONSTANT HEAD =           0.0000
               WELLS =    21750349.7798                 WELLS =       26460.2795
            RECHARGE =           0.0000              RECHARGE =           0.0000
      STREAM LEAKAGE =    61573581.9142        STREAM LEAKAGE =       39850.2740

           TOTAL OUT =    84160135.6075             TOTAL OUT =       66310.5536

            IN - OUT =          -1.9131              IN - OUT =      -7.9107E-04

 PERCENT DISCREPANCY =          -0.00     PERCENT DISCREPANCY =          -0.00






         TIME SUMMARY AT END OF TIME STEP    1 IN STRESS PERIOD    9
                    SECONDS     MINUTES      HOURS       DAYS        YEARS
                    -----------------------------------------------------------
   TIME STEP LENGTH 7.94880E+06 1.32480E+05  2208.0      92.000     0.25188    
 STRESS PERIOD TIME 7.94880E+06 1.32480E+05  2208.0      92.000     0.25188    
         TOTAL TIME 7.10208E+07 1.18368E+06  19728.      822.00      2.2505    
1
1
                            STRESS PERIOD NO.   10, LENGTH =   91.00000    
                            -----------------------------------------------

                              NUMBER OF TIME STEPS =     1

                               MULTIPLIER FOR DELT =     1.500

                            INITIAL TIME STEP SIZE =   91.00000    

 WELL NO.  LAYER   ROW   COL   STRESS RATE         
 --------------------------------------------------
      1      1     20     21      -6420.    
      2      1     18     16      -7655.    
      3      1     20     18      -5517.    
      4      1      4      9      -6868.    

      4 WELLS

                 RECHARGE =  2.000000E-03

 REUSING STREAM SEGMENT DATA FROM LAST STRESS PERIOD
 
 SOLVING FOR HEAD 


     7 CALLS TO PCG ROUTINE FOR TIME STEP   1 IN STRESS PERIOD   10
    26 TOTAL ITERATIONS

 OUTPUT CONTROL FOR STRESS PERIOD   10   TIME STEP    1
    SAVE BUDGET
    SAVE HEAD FOR ALL LAYERS
    PRINT HEAD FOR ALL LAYERS
 UBDSV2 SAVING "STREAMFLOW OUT  " ON UNIT  50 AT TIME STEP  1, STRESS PERIOD  10



 STREAM LISTING     PERIOD     10   STEP        1

 LAYER ROW COL. STREAM  RCH.  FLOW INTO     FLOW TO   FLOW OUT OF   OVRLND.     DIRECT     STREAM       STREAM     STREAM     STREAM   STREAMBED  STREAMBED
                SEG.NO.  NO.  STRM. RCH.    AQUIFER    STRM. RCH.    RUNOFF     PRECIP       ET          HEAD       DEPTH      WIDTH   CONDCTNC.   GRADIENT

   1   13    1     1     1    1.0000E+05 -1.6422E+03   1.0164E+05  0.000E+00  0.000E+00  0.000E+00  4.84067E+01  1.454E-01  2.000E+01  2.000E+04 -8.211E-02
   1   13    2     1     2    1.0164E+05 -2.5934E+03   1.0424E+05  0.000E+00  0.000E+00  0.000E+00  4.79313E+01  1.472E-01  2.000E+01  2.000E+04 -1.297E-01
   1   14    3     1     3    1.0424E+05 -5.3841E+02   1.0477E+05  0.000E+00  0.000E+00  0.000E+00  4.74553E+01  1.485E-01  2.000E+01  2.000E+04 -2.692E-02
   1   15    4     1     4    1.0477E+05 -5.2672E+02   1.0530E+05  0.000E+00  0.000E+00  0.000E+00  4.69785E+01  1.490E-01  2.000E+01  2.000E+04 -2.634E-02
   1   16    5     1     5    1.0530E+05 -1.8528E+03   1.0715E+05  0.000E+00  0.000E+00  0.000E+00  4.65023E+01  1.500E-01  2.000E+01  2.000E+04 -9.264E-02
   1   16    6     1     6    1.0715E+05 -1.1246E+03   1.0828E+05  0.000E+00  0.000E+00  0.000E+00  4.60262E+01  1.512E-01  2.000E+01  2.000E+04 -5.623E-02
   1   16    7     1     7    1.0828E+05 -1.0612E+03   1.0934E+05  0.000E+00  0.000E+00  0.000E+00  4.55499E+01  1.522E-01  2.000E+01  2.000E+04 -5.306E-02
   1   16    8     1     8    1.0934E+05 -1.0042E+03   1.1034E+05  0.000E+00  0.000E+00  0.000E+00  4.50735E+01  1.530E-01  2.000E+01  2.000E+04 -5.021E-02
   1   16    9     1     9    1.1034E+05 -9.2527E+02   1.1127E+05  0.000E+00  0.000E+00  0.000E+00  4.45970E+01  1.538E-01  2.000E+01  2.000E+04 -4.626E-02
   1   16   10     1    10    1.1127E+05 -8.0880E+02   1.1208E+05  0.000E+00  0.000E+00  0.000E+00  4.41205E+01  1.546E-01  2.000E+01  2.000E+04 -4.044E-02
   1   16   11     1    11    1.1208E+05 -6.2988E+02   1.1271E+05  0.000E+00  0.000E+00  0.000E+00  4.36438E+01  1.552E-01  2.000E+01  2.000E+04 -3.149E-02
   1   16   12     1    12    1.1271E+05 -4.8352E+02   1.1319E+05  0.000E+00  0.000E+00  0.000E+00  4.31670E+01  1.556E-01  2.000E+01  2.000E+04 -2.418E-02
   1   15   13     1    13    1.1319E+05 -4.7902E+02   1.1367E+05  0.000E+00  0.000E+00  0.000E+00  4.26901E+01  1.560E-01  2.000E+01  2.000E+04 -2.395E-02
   1   14   14     1    14    1.1367E+05 -8.5785E+02   1.1453E+05  0.000E+00  0.000E+00  0.000E+00  4.22134E+01  1.566E-01  2.000E+01  2.000E+04 -4.289E-02
   1   13   15     1    15    1.1453E+05 -1.4033E+03   1.1593E+05  0.000E+00  0.000E+00  0.000E+00  4.17370E+01  1.575E-01  2.000E+01  2.000E+04 -7.017E-02
   1   12   16     1    16    1.1593E+05 -2.4293E+03   1.1836E+05  0.000E+00  0.000E+00  0.000E+00  4.12613E+01  1.591E-01  2.000E+01  2.000E+04 -1.215E-01
   1   12   17     1    17    1.1836E+05 -1.4896E+03   1.1985E+05  0.000E+00  0.000E+00  0.000E+00  4.07857E+01  1.607E-01  2.000E+01  2.000E+04 -7.448E-02
   1   12   18     1    18    1.1985E+05 -1.4587E+03   1.2131E+05  0.000E+00  0.000E+00  0.000E+00  4.03096E+01  1.618E-01  2.000E+01  2.000E+04 -7.294E-02
   1   12   19     1    19    1.2131E+05 -2.1948E+03   1.2350E+05  0.000E+00  0.000E+00  0.000E+00  3.98338E+01  1.633E-01  2.000E+01  2.000E+04 -1.097E-01
   1   13   20     1    20    1.2350E+05 -1.1187E+03   1.2462E+05  0.000E+00  0.000E+00  0.000E+00  3.93578E+01  1.646E-01  2.000E+01  2.000E+04 -5.594E-02
   1   14   21     1    21    1.2462E+05 -1.6316E+02   1.2479E+05  0.000E+00  0.000E+00  0.000E+00  3.88810E+01  1.651E-01  2.000E+01  2.000E+04 -8.158E-03
   1   14   22     1    22    1.2479E+05  5.0478E+03   1.1974E+05  0.000E+00  0.000E+00  0.000E+00  3.84018E+01  1.632E-01  2.000E+01  2.000E+04  2.524E-01
   1    9   30     2     1    5.0000E+04 -9.5631E+02   5.0956E+04  0.000E+00  0.000E+00  0.000E+00  4.02415E+01  1.165E-01  2.000E+01  2.000E+04 -4.782E-02
   1    9   29     2     2    5.0956E+04 -1.2503E+03   5.2207E+04  0.000E+00  0.000E+00  0.000E+00  3.99931E+01  1.181E-01  2.000E+01  2.000E+04 -6.251E-02
   1    9   28     2     3    5.2207E+04 -1.4954E+03   5.3702E+04  0.000E+00  0.000E+00  0.000E+00  3.97449E+01  1.199E-01  2.000E+01  2.000E+04 -7.477E-02
   1    9   27     2     4    5.3702E+04 -2.8112E+03   5.6513E+04  0.000E+00  0.000E+00  0.000E+00  3.94978E+01  1.228E-01  2.000E+01  2.000E+04 -1.406E-01
   1   10   26     2     5    5.6513E+04 -2.0291E+03   5.8542E+04  0.000E+00  0.000E+00  0.000E+00  3.92510E+01  1.260E-01  2.000E+01  2.000E+04 -1.015E-01
   1   11   25     2     6    5.8542E+04 -1.8107E+03   6.0353E+04  0.000E+00  0.000E+00  0.000E+00  3.90035E+01  1.285E-01  2.000E+01  2.000E+04 -9.054E-02
   1   12   24     2     7    6.0353E+04 -1.8357E+03   6.2189E+04  0.000E+00  0.000E+00  0.000E+00  3.87559E+01  1.309E-01  2.000E+01  2.000E+04 -9.178E-02
   1   13   23     2     8    6.2189E+04 -3.5865E+02   6.2547E+04  0.000E+00  0.000E+00  0.000E+00  3.85073E+01  1.323E-01  2.000E+01  2.000E+04 -1.793E-02
   1   14   22     2     9    6.2547E+04  2.1345E+03   6.0413E+04  0.000E+00  0.000E+00  0.000E+00  3.82562E+01  1.312E-01  2.000E+01  2.000E+04  1.067E-01
   1   14   22     3     1    1.8015E+05 -8.4125E+03   1.8856E+05  0.000E+00  0.000E+00  0.000E+00  3.77288E+01  1.733E-01  2.000E+01  2.000E+04 -4.206E-01
   1   15   23     3     2    1.8856E+05 -2.8596E+02   1.8885E+05  0.000E+00  0.000E+00  0.000E+00  3.68424E+01  1.757E-01  2.000E+01  2.000E+04 -1.430E-02
   1   15   24     3     3    1.8885E+05 -2.6533E+02   1.8911E+05  0.000E+00  0.000E+00  0.000E+00  3.59536E+01  1.759E-01  2.000E+01  2.000E+04 -1.327E-02
   1   15   25     3     4    1.8911E+05 -2.9835E+02   1.8941E+05  0.000E+00  0.000E+00  0.000E+00  3.50649E+01  1.760E-01  2.000E+01  2.000E+04 -1.492E-02
   1   15   26     3     5    1.8941E+05 -4.0626E+02   1.8982E+05  0.000E+00  0.000E+00  0.000E+00  3.41762E+01  1.762E-01  2.000E+01  2.000E+04 -2.031E-02
   1   16   27     3     6    1.8982E+05 -4.1663E+02   1.9024E+05  0.000E+00  0.000E+00  0.000E+00  3.32875E+01  1.764E-01  2.000E+01  2.000E+04 -2.083E-02
   1   17   28     3     7    1.9024E+05 -1.5759E+03   1.9181E+05  0.000E+00  0.000E+00  0.000E+00  3.23992E+01  1.770E-01  2.000E+01  2.000E+04 -7.880E-02
   1   18   29     3     8    1.9181E+05 -2.4777E+03   1.9429E+05  0.000E+00  0.000E+00  0.000E+00  3.15114E+01  1.781E-01  2.000E+01  2.000E+04 -1.239E-01
   1   18   30     3     9    1.9429E+05 -2.9997E+03   1.9729E+05  0.000E+00  0.000E+00  0.000E+00  3.06241E+01  1.796E-01  2.000E+01  2.000E+04 -1.500E-01



1
              HEAD IN LAYER   1 AT END OF TIME STEP   1 IN STRESS PERIOD   10
  ---------------------------------------------------------------------------

          1      2      3      4      5      6      7      8      9     10
         11     12     13     14     15     16     17     18     19     20
         21     22     23     24     25     26     27     28     29     30
 .........................................................................
   1  ****** ****** ****** ****** ****** ****** ****** ****** ****** ******
      ****** ****** ****** ****** ****** ****** ****** ****** ****** ******
      ****** ****** ****** ****** ****** ****** ****** ****** ****** ******
   2  ****** ****** ****** ****** ****** ****** ****** ****** ****** ******
      ****** ****** ****** ****** ****** ****** ****** ****** ****** ******
      ****** ****** ****** ****** ****** ****** ****** ****** ****** ******
   3  ****** ****** ****** ****** ****** ****** ****** ****** ****** ******
      ****** ****** ****** ****** ****** ****** ****** ****** ****** ******
      ****** ****** ****** ****** ****** ****** ****** ****** ****** ******
   4  ****** ****** ****** ****** ****** ****** ****** ****** ****** ******
      ****** ****** ****** ****** ****** ****** ****** ****** ****** ******
      ****** ****** ****** ****** ****** ****** ****** ****** ****** ******
   5  ****** ****** ****** ****** ****** ****** ****** ****** ****** ******
      ****** ****** ****** ****** ****** ****** ****** ****** ****** ******
      ****** ****** ****** ****** ****** ****** ****** ****** ****** ******
   6  ****** ****** ****** ****** ****** ****** ****** ****** ****** ******
      ****** ****** ****** ****** ****** ****** ****** ****** ****** ******
      ****** ****** ****** ****** ****** ****** ****** ****** ****** ******
   7  ****** ****** ****** ****** ****** ****** ****** ****** ****** ******
      ****** ****** ****** ****** ****** ****** ****** ****** ****** ******
      ****** ****** ****** ****** ****** ****** ****** ****** ****** ******
   8  ****** ****** ****** ****** ****** ****** ****** ****** ****** ******
      ****** ****** ****** ****** ****** ****** ****** ****** ****** ******
      ****** ****** ****** ****** ****** ****** ****** ****** ****** ******
   9  ****** ****** ****** ****** ****** ****** ****** ****** ****** ******
      ****** ****** ****** ****** ****** ****** ****** ****** ****** ******
      ****** ****** ****** ****** ****** ****** ****** ****** ****** ******
  10  ****** ****** ****** ****** ****** ****** ****** ****** ****** ******
      ****** ****** ****** ****** ****** ****** ****** ****** ****** ******
      ****** ****** ****** ****** ****** ****** ****** ****** ****** ******
  11  ****** ****** ****** ****** ****** ****** ****** ****** ****** ******
      ****** ****** ****** ****** ****** ****** ****** ****** ****** ******
      ****** ****** ****** ****** ****** ****** ****** ****** ****** ******
  12  ****** ****** ****** ****** ****** ****** ****** ****** ****** ******
      ****** ****** ****** ****** ****** ****** ****** ****** ****** ******
      ****** ****** ****** ****** ****** ****** ****** ****** ****** ******
  13  ****** ****** ****** ****** ****** ****** ****** ****** ****** ******
      ****** ****** ****** ****** ****** ****** ****** ****** ****** ******
      ****** ****** ****** ****** ****** ****** ****** ****** ****** ******
  14  ****** ****** ****** ****** ****** ****** ****** ****** ****** ******
      ****** ****** ****** ****** ****** ****** ****** ****** ****** ******
      ****** ****** ****** ****** ****** ****** ****** ****** ****** ******
  15  ****** ****** ****** ****** ****** ****** ****** ****** ****** ******
      ****** ****** ****** ****** ****** ****** ****** ****** ****** ******
      ****** ****** ****** ****** ****** ****** ****** ****** ****** ******
  16  ****** ****** ****** ****** ****** ****** ****** ****** ****** ******
      ****** ****** ****** ****** ****** ****** ****** ****** ****** ******
      ****** ****** ****** ****** ****** ****** ****** ****** ****** ******
  17  ****** ****** ****** ****** ****** ****** ****** ****** ****** ******
      ****** ****** ****** ****** ****** ****** ****** ****** ****** ******
      ****** ****** ****** ****** ****** ****** ****** ****** ****** ******
  18  ****** ****** ****** ****** ****** ****** ****** ****** ****** ******
      ****** ****** ****** ****** ****** ****** ****** ****** ****** ******
      ****** ****** ****** ****** ****** ****** ****** ****** ****** ******
  19  ****** ****** ****** ****** ****** ****** ****** ****** ****** ******
      ****** ****** ****** ****** ****** ****** ****** ****** ****** ******
      ****** ****** ****** ****** ****** ****** ****** ****** ****** ******
  20  ****** ****** ****** ****** ****** ****** ****** ****** ****** ******
      ****** ****** ****** ****** ****** ****** ****** ****** ****** ******
      ****** ****** ****** ****** ****** ****** ****** ****** ****** ******
  21  ****** ****** ****** ****** ****** ****** ****** ****** ****** ******
      ****** ****** ****** ****** ****** ****** ****** ****** ****** ******
      ****** ****** ****** ****** ****** ****** ****** ****** ****** ******
  22  ****** ****** ****** ****** ****** ****** ****** ****** ****** ******
      ****** ****** ****** ****** ****** ****** ****** ****** ****** ******
      ****** ****** ****** ****** ****** ****** ****** ****** ****** ******
  23  ****** ****** ****** ****** ****** ****** ****** ****** ****** ******
      ****** ****** ****** ****** ****** ****** ****** ****** ****** ******
      ****** ****** ****** ****** ****** ****** ****** ****** ****** ******
  24  ****** ****** ****** ****** ****** ****** ****** ****** ****** ******
      ****** ****** ****** ****** ****** ****** ****** ****** ****** ******
      ****** ****** ****** ****** ****** ****** ****** ****** ****** ******
  25  ****** ****** ****** ****** ****** ****** ****** ****** ****** ******
      ****** ****** ****** ****** ****** ****** ****** ****** ****** ******
      ****** ****** ****** ****** ****** ****** ****** ****** ****** ******

 HEAD WILL BE SAVED ON UNIT   51 AT END OF TIME STEP    1, STRESS PERIOD   10
1
  VOLUMETRIC BUDGET FOR ENTIRE MODEL AT END OF TIME STEP    1, STRESS PERIOD  10
  ------------------------------------------------------------------------------

     CUMULATIVE VOLUMES      L**3       RATES FOR THIS TIME STEP      L**3/T
     ------------------                 ------------------------

           IN:                                      IN:
           ---                                      ---
             STORAGE =    35465341.9945               STORAGE =           0.0000
       CONSTANT HEAD =    27241462.0163         CONSTANT HEAD =       34020.7556
               WELLS =           0.0000                 WELLS =           0.0000
            RECHARGE =    23901600.0000              RECHARGE =       55200.0000
      STREAM LEAKAGE =     6324411.5306        STREAM LEAKAGE =        7182.3416

            TOTAL IN =    92932815.5414              TOTAL IN =       96403.0972

          OUT:                                     OUT:
          ----                                     ----
             STORAGE =     2244129.1429               STORAGE =       15471.7058
       CONSTANT HEAD =           0.0000         CONSTANT HEAD =           0.0000
               WELLS =    24158235.2178                 WELLS =       26460.2795
            RECHARGE =           0.0000              RECHARGE =           0.0000
      STREAM LEAKAGE =    66530452.7513        STREAM LEAKAGE =       54471.1081

           TOTAL OUT =    92932817.1120             TOTAL OUT =       96403.0935

            IN - OUT =          -1.5705              IN - OUT =       3.7642E-03

 PERCENT DISCREPANCY =          -0.00     PERCENT DISCREPANCY =           0.00






         TIME SUMMARY AT END OF TIME STEP    1 IN STRESS PERIOD   10
                    SECONDS     MINUTES      HOURS       DAYS        YEARS
                    -----------------------------------------------------------
   TIME STEP LENGTH 7.86240E+06 1.31040E+05  2184.0      91.000     0.24914    
 STRESS PERIOD TIME 7.86240E+06 1.31040E+05  2184.0      91.000     0.24914    
         TOTAL TIME 7.88832E+07 1.31472E+06  21912.      913.00      2.4997    
1
1
                            STRESS PERIOD NO.   11, LENGTH =   91.00000    
                            -----------------------------------------------

                              NUMBER OF TIME STEPS =     1

                               MULTIPLIER FOR DELT =     1.500

                            INITIAL TIME STEP SIZE =   91.00000    

 WELL NO.  LAYER   ROW   COL   STRESS RATE         
 --------------------------------------------------
      1      1     20     21      -6420.    
      2      1     18     16      -7655.    
      3      1     20     18      -5517.    
      4      1      4      9      -6868.    

      4 WELLS

                 RECHARGE =   0.00000    

 REUSING STREAM SEGMENT DATA FROM LAST STRESS PERIOD
 
 SOLVING FOR HEAD 


     7 CALLS TO PCG ROUTINE FOR TIME STEP   1 IN STRESS PERIOD   11
    26 TOTAL ITERATIONS

 OUTPUT CONTROL FOR STRESS PERIOD   11   TIME STEP    1
    SAVE BUDGET
    SAVE HEAD FOR ALL LAYERS
    PRINT HEAD FOR ALL LAYERS
 UBDSV2 SAVING "STREAMFLOW OUT  " ON UNIT  50 AT TIME STEP  1, STRESS PERIOD  11



 STREAM LISTING     PERIOD     11   STEP        1

 LAYER ROW COL. STREAM  RCH.  FLOW INTO     FLOW TO   FLOW OUT OF   OVRLND.     DIRECT     STREAM       STREAM     STREAM     STREAM   STREAMBED  STREAMBED
                SEG.NO.  NO.  STRM. RCH.    AQUIFER    STRM. RCH.    RUNOFF     PRECIP       ET          HEAD       DEPTH      WIDTH   CONDCTNC.   GRADIENT

   1   13    1     1     1    1.0000E+05 -1.0695E+03   1.0107E+05  0.000E+00  0.000E+00  0.000E+00  4.84065E+01  1.451E-01  2.000E+01  2.000E+04 -5.348E-02
   1   13    2     1     2    1.0107E+05 -1.9554E+03   1.0302E+05  0.000E+00  0.000E+00  0.000E+00  4.79305E+01  1.464E-01  2.000E+01  2.000E+04 -9.777E-02
   1   14    3     1     3    1.0302E+05 -3.0658E+02   1.0333E+05  0.000E+00  0.000E+00  0.000E+00  4.74542E+01  1.474E-01  2.000E+01  2.000E+04 -1.533E-02
   1   15    4     1     4    1.0333E+05 -2.8404E+02   1.0362E+05  0.000E+00  0.000E+00  0.000E+00  4.69772E+01  1.476E-01  2.000E+01  2.000E+04 -1.420E-02
   1   16    5     1     5    1.0362E+05 -1.1640E+03   1.0478E+05  0.000E+00  0.000E+00  0.000E+00  4.65005E+01  1.483E-01  2.000E+01  2.000E+04 -5.820E-02
   1   16    6     1     6    1.0478E+05 -7.0934E+02   1.0549E+05  0.000E+00  0.000E+00  0.000E+00  4.60241E+01  1.491E-01  2.000E+01  2.000E+04 -3.547E-02
   1   16    7     1     7    1.0549E+05 -6.6352E+02   1.0615E+05  0.000E+00  0.000E+00  0.000E+00  4.55474E+01  1.496E-01  2.000E+01  2.000E+04 -3.318E-02
   1   16    8     1     8    1.0615E+05 -6.1208E+02   1.0676E+05  0.000E+00  0.000E+00  0.000E+00  4.50706E+01  1.502E-01  2.000E+01  2.000E+04 -3.060E-02
   1   16    9     1     9    1.0676E+05 -5.3541E+02   1.0730E+05  0.000E+00  0.000E+00  0.000E+00  4.45939E+01  1.507E-01  2.000E+01  2.000E+04 -2.677E-02
   1   16   10     1    10    1.0730E+05 -4.2012E+02   1.0772E+05  0.000E+00  0.000E+00  0.000E+00  4.41170E+01  1.511E-01  2.000E+01  2.000E+04 -2.101E-02
   1   16   11     1    11    1.0772E+05 -2.3949E+02   1.0796E+05  0.000E+00  0.000E+00  0.000E+00  4.36400E+01  1.514E-01  2.000E+01  2.000E+04 -1.197E-02
   1   16   12     1    12    1.0796E+05  1.6370E+02   1.0780E+05  0.000E+00  0.000E+00  0.000E+00  4.31627E+01  1.514E-01  2.000E+01  2.000E+04  8.185E-03
   1   15   13     1    13    1.0780E+05  2.1179E+02   1.0758E+05  0.000E+00  0.000E+00  0.000E+00  4.26853E+01  1.512E-01  2.000E+01  2.000E+04  1.059E-02
   1   14   14     1    14    1.0758E+05 -1.4878E+02   1.0773E+05  0.000E+00  0.000E+00  0.000E+00  4.22080E+01  1.512E-01  2.000E+01  2.000E+04 -7.439E-03
   1   13   15     1    15    1.0773E+05 -6.9949E+02   1.0843E+05  0.000E+00  0.000E+00  0.000E+00  4.17311E+01  1.516E-01  2.000E+01  2.000E+04 -3.497E-02
   1   12   16     1    16    1.0843E+05 -1.7483E+03   1.1018E+05  0.000E+00  0.000E+00  0.000E+00  4.12549E+01  1.526E-01  2.000E+01  2.000E+04 -8.742E-02
   1   12   17     1    17    1.1018E+05 -9.8092E+02   1.1116E+05  0.000E+00  0.000E+00  0.000E+00  4.07787E+01  1.537E-01  2.000E+01  2.000E+04 -4.905E-02
   1   12   18     1    18    1.1116E+05 -9.5810E+02   1.1212E+05  0.000E+00  0.000E+00  0.000E+00  4.03023E+01  1.545E-01  2.000E+01  2.000E+04 -4.791E-02
   1   12   19     1    19    1.1212E+05 -1.5805E+03   1.1370E+05  0.000E+00  0.000E+00  0.000E+00  3.98260E+01  1.556E-01  2.000E+01  2.000E+04 -7.903E-02
   1   13   20     1    20    1.1370E+05 -5.0529E+02   1.1421E+05  0.000E+00  0.000E+00  0.000E+00  3.93496E+01  1.564E-01  2.000E+01  2.000E+04 -2.526E-02
   1   14   21     1    21    1.1421E+05  4.3484E+02   1.1377E+05  0.000E+00  0.000E+00  0.000E+00  3.88724E+01  1.565E-01  2.000E+01  2.000E+04  2.174E-02
   1   14   22     1    22    1.1377E+05  5.1918E+03   1.0858E+05  0.000E+00  0.000E+00  0.000E+00  3.83928E+01  1.541E-01  2.000E+01  2.000E+04  2.596E-01
   1    9   30     2     1    5.0000E+04 -4.6807E+02   5.0468E+04  0.000E+00  0.000E+00  0.000E+00  4.02412E+01  1.162E-01  2.000E+01  2.000E+04 -2.340E-02
   1    9   29     2     2    5.0468E+04 -7.6504E+02   5.1233E+04  0.000E+00  0.000E+00  0.000E+00  3.99920E+01  1.170E-01  2.000E+01  2.000E+04 -3.825E-02
   1    9   28     2     3    5.1233E+04 -1.0123E+03   5.2245E+04  0.000E+00  0.000E+00  0.000E+00  3.97433E+01  1.183E-01  2.000E+01  2.000E+04 -5.061E-02
   1    9   27     2     4    5.2245E+04 -2.1707E+03   5.4416E+04  0.000E+00  0.000E+00  0.000E+00  3.94954E+01  1.204E-01  2.000E+01  2.000E+04 -1.085E-01
   1   10   26     2     5    5.4416E+04 -1.3743E+03   5.5790E+04  0.000E+00  0.000E+00  0.000E+00  3.92478E+01  1.228E-01  2.000E+01  2.000E+04 -6.872E-02
   1   11   25     2     6    5.5790E+04 -1.1797E+03   5.6970E+04  0.000E+00  0.000E+00  0.000E+00  3.89995E+01  1.245E-01  2.000E+01  2.000E+04 -5.899E-02
   1   12   24     2     7    5.6970E+04 -1.2616E+03   5.8232E+04  0.000E+00  0.000E+00  0.000E+00  3.87511E+01  1.261E-01  2.000E+01  2.000E+04 -6.308E-02
   1   13   23     2     8    5.8232E+04 -1.7264E+02   5.8404E+04  0.000E+00  0.000E+00  0.000E+00  3.85021E+01  1.271E-01  2.000E+01  2.000E+04 -8.632E-03
   1   14   22     2     9    5.8404E+04  2.3490E+03   5.6055E+04  0.000E+00  0.000E+00  0.000E+00  3.82506E+01  1.256E-01  2.000E+01  2.000E+04  1.175E-01
   1   14   22     3     1    1.6463E+05 -8.2665E+03   1.7290E+05  0.000E+00  0.000E+00  0.000E+00  3.77199E+01  1.643E-01  2.000E+01  2.000E+04 -4.133E-01
   1   15   23     3     2    1.7290E+05 -9.3637E+01   1.7299E+05  0.000E+00  0.000E+00  0.000E+00  3.68334E+01  1.667E-01  2.000E+01  2.000E+04 -4.682E-03
   1   15   24     3     3    1.7299E+05 -1.0004E+02   1.7309E+05  0.000E+00  0.000E+00  0.000E+00  3.59446E+01  1.668E-01  2.000E+01  2.000E+04 -5.002E-03
   1   15   25     3     4    1.7309E+05 -1.2924E+02   1.7322E+05  0.000E+00  0.000E+00  0.000E+00  3.50558E+01  1.669E-01  2.000E+01  2.000E+04 -6.462E-03
   1   15   26     3     5    1.7322E+05 -2.1047E+02   1.7343E+05  0.000E+00  0.000E+00  0.000E+00  3.41670E+01  1.670E-01  2.000E+01  2.000E+04 -1.052E-02
   1   16   27     3     6    1.7343E+05 -1.9344E+02   1.7363E+05  0.000E+00  0.000E+00  0.000E+00  3.32782E+01  1.671E-01  2.000E+01  2.000E+04 -9.672E-03
   1   17   28     3     7    1.7363E+05 -9.6558E+02   1.7459E+05  0.000E+00  0.000E+00  0.000E+00  3.23896E+01  1.674E-01  2.000E+01  2.000E+04 -4.828E-02
   1   18   29     3     8    1.7459E+05 -1.8545E+03   1.7645E+05  0.000E+00  0.000E+00  0.000E+00  3.15016E+01  1.682E-01  2.000E+01  2.000E+04 -9.273E-02
   1   18   30     3     9    1.7645E+05 -2.5098E+03   1.7896E+05  0.000E+00  0.000E+00  0.000E+00  3.06139E+01  1.695E-01  2.000E+01  2.000E+04 -1.255E-01



1
              HEAD IN LAYER   1 AT END OF TIME STEP   1 IN STRESS PERIOD   11
  ---------------------------------------------------------------------------

          1      2      3      4      5      6      7      8      9     10
         11     12     13     14     15     16     17     18     19     20
         21     22     23     24     25     26     27     28     29     30
 .........................................................................
   1  ****** ****** ****** ****** ****** ****** ****** ****** ****** ******
      ****** ****** ****** ****** ****** ****** ****** ****** ****** ******
      ****** ****** ****** ****** ****** ****** ****** ****** ****** ******
   2  ****** ****** ****** ****** ****** ****** ****** ****** ****** ******
      ****** ****** ****** ****** ****** ****** ****** ****** ****** ******
      ****** ****** ****** ****** ****** ****** ****** ****** ****** ******
   3  ****** ****** ****** ****** ****** ****** ****** ****** ****** ******
      ****** ****** ****** ****** ****** ****** ****** ****** ****** ******
      ****** ****** ****** ****** ****** ****** ****** ****** ****** ******
   4  ****** ****** ****** ****** ****** ****** ****** ****** ****** ******
      ****** ****** ****** ****** ****** ****** ****** ****** ****** ******
      ****** ****** ****** ****** ****** ****** ****** ****** ****** ******
   5  ****** ****** ****** ****** ****** ****** ****** ****** ****** ******
      ****** ****** ****** ****** ****** ****** ****** ****** ****** ******
      ****** ****** ****** ****** ****** ****** ****** ****** ****** ******
   6  ****** ****** ****** ****** ****** ****** ****** ****** ****** ******
      ****** ****** ****** ****** ****** ****** ****** ****** ****** ******
      ****** ****** ****** ****** ****** ****** ****** ****** ****** ******
   7  ****** ****** ****** ****** ****** ****** ****** ****** ****** ******
      ****** ****** ****** ****** ****** ****** ****** ****** ****** ******
      ****** ****** ****** ****** ****** ****** ****** ****** ****** ******
   8  ****** ****** ****** ****** ****** ****** ****** ****** ****** ******
      ****** ****** ****** ****** ****** ****** ****** ****** ****** ******
      ****** ****** ****** ****** ****** ****** ****** ****** ****** ******
   9  ****** ****** ****** ****** ****** ****** ****** ****** ****** ******
      ****** ****** ****** ****** ****** ****** ****** ****** ****** ******
      ****** ****** ****** ****** ****** ****** ****** ****** ****** ******
  10  ****** ****** ****** ****** ****** ****** ****** ****** ****** ******
      ****** ****** ****** ****** ****** ****** ****** ****** ****** ******
      ****** ****** ****** ****** ****** ****** ****** ****** ****** ******
  11  ****** ****** ****** ****** ****** ****** ****** ****** ****** ******
      ****** ****** ****** ****** ****** ****** ****** ****** ****** ******
      ****** ****** ****** ****** ****** ****** ****** ****** ****** ******
  12  ****** ****** ****** ****** ****** ****** ****** ****** ****** ******
      ****** ****** ****** ****** ****** ****** ****** ****** ****** ******
      ****** ****** ****** ****** ****** ****** ****** ****** ****** ******
  13  ****** ****** ****** ****** ****** ****** ****** ****** ****** ******
      ****** ****** ****** ****** ****** ****** ****** ****** ****** ******
      ****** ****** ****** ****** ****** ****** ****** ****** ****** ******
  14  ****** ****** ****** ****** ****** ****** ****** ****** ****** ******
      ****** ****** ****** ****** ****** ****** ****** ****** ****** ******
      ****** ****** ****** ****** ****** ****** ****** ****** ****** ******
  15  ****** ****** ****** ****** ****** ****** ****** ****** ****** ******
      ****** ****** ****** ****** ****** ****** ****** ****** ****** ******
      ****** ****** ****** ****** ****** ****** ****** ****** ****** ******
  16  ****** ****** ****** ****** ****** ****** ****** ****** ****** ******
      ****** ****** ****** ****** ****** ****** ****** ****** ****** ******
      ****** ****** ****** ****** ****** ****** ****** ****** ****** ******
  17  ****** ****** ****** ****** ****** ****** ****** ****** ****** ******
      ****** ****** ****** ****** ****** ****** ****** ****** ****** ******
      ****** ****** ****** ****** ****** ****** ****** ****** ****** ******
  18  ****** ****** ****** ****** ****** ****** ****** ****** ****** ******
      ****** ****** ****** ****** ****** ****** ****** ****** ****** ******
      ****** ****** ****** ****** ****** ****** ****** ****** ****** ******
  19  ****** ****** ****** ****** ****** ****** ****** ****** ****** ******
      ****** ****** ****** ****** ****** ****** ****** ****** ****** ******
      ****** ****** ****** ****** ****** ****** ****** ****** ****** ******
  20  ****** ****** ****** ****** ****** ****** ****** ****** ****** ******
      ****** ****** ****** ****** ****** ****** ****** ****** ****** ******
      ****** ****** ****** ****** ****** ****** ****** ****** ****** ******
  21  ****** ****** ****** ****** ****** ****** ****** ****** ****** ******
      ****** ****** ****** ****** ****** ****** ****** ****** ****** ******
      ****** ****** ****** ****** ****** ****** ****** ****** ****** ******
  22  ****** ****** ****** ****** ****** ****** ****** ****** ****** ******
      ****** ****** ****** ****** ****** ****** ****** ****** ****** ******
      ****** ****** ****** ****** ****** ****** ****** ****** ****** ******
  23  ****** ****** ****** ****** ****** ****** ****** ****** ****** ******
      ****** ****** ****** ****** ****** ****** ****** ****** ****** ******
      ****** ****** ****** ****** ****** ****** ****** ****** ****** ******
  24  ****** ****** ****** ****** ****** ****** ****** ****** ****** ******
      ****** ****** ****** ****** ****** ****** ****** ****** ****** ******
      ****** ****** ****** ****** ****** ****** ****** ****** ****** ******
  25  ****** ****** ****** ****** ****** ****** ****** ****** ****** ******
      ****** ****** ****** ****** ****** ****** ****** ****** ****** ******
      ****** ****** ****** ****** ****** ****** ****** ****** ****** ******

 HEAD WILL BE SAVED ON UNIT   51 AT END OF TIME STEP    1, STRESS PERIOD   11
1
  VOLUMETRIC BUDGET FOR ENTIRE MODEL AT END OF TIME STEP    1, STRESS PERIOD  11
  ------------------------------------------------------------------------------

     CUMULATIVE VOLUMES      L**3       RATES FOR THIS TIME STEP      L**3/T
     ------------------                 ------------------------

           IN:                                      IN:
           ---                                      ---
             STORAGE =    37111790.9185               STORAGE =       18092.8453
       CONSTANT HEAD =    30638017.9362         CONSTANT HEAD =       37324.7903
               WELLS =           0.0000                 WELLS =           0.0000
            RECHARGE =    23901600.0000              RECHARGE =           0.0000
      STREAM LEAKAGE =     7084363.4788        STREAM LEAKAGE =        8351.1203

            TOTAL IN =    98735772.3335              TOTAL IN =       63768.7560

          OUT:                                     OUT:
          ----                                     ----
             STORAGE =     2244129.1429               STORAGE =           0.0000
       CONSTANT HEAD =           0.0000         CONSTANT HEAD =           0.0000
               WELLS =    26566120.6557                 WELLS =       26460.2795
            RECHARGE =           0.0000              RECHARGE =           0.0000
      STREAM LEAKAGE =    69925524.5475        STREAM LEAKAGE =       37308.4813

           TOTAL OUT =    98735774.3461             TOTAL OUT =       63768.7608

            IN - OUT =          -2.0125              IN - OUT =      -4.8572E-03

 PERCENT DISCREPANCY =          -0.00     PERCENT DISCREPANCY =          -0.00






         TIME SUMMARY AT END OF TIME STEP    1 IN STRESS PERIOD   11
                    SECONDS     MINUTES      HOURS       DAYS        YEARS
                    -----------------------------------------------------------
   TIME STEP LENGTH 7.86240E+06 1.31040E+05  2184.0      91.000     0.24914    
 STRESS PERIOD TIME 7.86240E+06 1.31040E+05  2184.0      91.000     0.24914    
         TOTAL TIME 8.67456E+07 1.44576E+06  24096.      1004.0      2.7488    
1
1
                            STRESS PERIOD NO.   12, LENGTH =   91.00000    
                            -----------------------------------------------

                              NUMBER OF TIME STEPS =     1

                               MULTIPLIER FOR DELT =     1.500

                            INITIAL TIME STEP SIZE =   91.00000    

 WELL NO.  LAYER   ROW   COL   STRESS RATE         
 --------------------------------------------------
      1      1     20     21      -6420.    
      2      1     18     16      -7655.    
      3      1     20     18      -5517.    
      4      1      4      9      -6868.    

      4 WELLS

                 RECHARGE =  1.000000E-03

 REUSING STREAM SEGMENT DATA FROM LAST STRESS PERIOD
 
 SOLVING FOR HEAD 


     7 CALLS TO PCG ROUTINE FOR TIME STEP   1 IN STRESS PERIOD   12
    24 TOTAL ITERATIONS

 OUTPUT CONTROL FOR STRESS PERIOD   12   TIME STEP    1
    SAVE BUDGET
    SAVE HEAD FOR ALL LAYERS
    PRINT HEAD FOR ALL LAYERS
 UBDSV2 SAVING "STREAMFLOW OUT  " ON UNIT  50 AT TIME STEP  1, STRESS PERIOD  12



 STREAM LISTING     PERIOD     12   STEP        1

 LAYER ROW COL. STREAM  RCH.  FLOW INTO     FLOW TO   FLOW OUT OF   OVRLND.     DIRECT     STREAM       STREAM     STREAM     STREAM   STREAMBED  STREAMBED
                SEG.NO.  NO.  STRM. RCH.    AQUIFER    STRM. RCH.    RUNOFF     PRECIP       ET          HEAD       DEPTH      WIDTH   CONDCTNC.   GRADIENT

   1   13    1     1     1    1.0000E+05 -1.2102E+03   1.0121E+05  0.000E+00  0.000E+00  0.000E+00  4.84065E+01  1.452E-01  2.000E+01  2.000E+04 -6.051E-02
   1   13    2     1     2    1.0121E+05 -2.1063E+03   1.0332E+05  0.000E+00  0.000E+00  0.000E+00  4.79307E+01  1.466E-01  2.000E+01  2.000E+04 -1.053E-01
   1   14    3     1     3    1.0332E+05 -3.8445E+02   1.0370E+05  0.000E+00  0.000E+00  0.000E+00  4.74545E+01  1.477E-01  2.000E+01  2.000E+04 -1.922E-02
   1   15    4     1     4    1.0370E+05 -3.6583E+02   1.0407E+05  0.000E+00  0.000E+00  0.000E+00  4.69775E+01  1.480E-01  2.000E+01  2.000E+04 -1.829E-02
   1   16    5     1     5    1.0407E+05 -1.3731E+03   1.0544E+05  0.000E+00  0.000E+00  0.000E+00  4.65010E+01  1.487E-01  2.000E+01  2.000E+04 -6.866E-02
   1   16    6     1     6    1.0544E+05 -8.3916E+02   1.0628E+05  0.000E+00  0.000E+00  0.000E+00  4.60247E+01  1.497E-01  2.000E+01  2.000E+04 -4.196E-02
   1   16    7     1     7    1.0628E+05 -7.8823E+02   1.0707E+05  0.000E+00  0.000E+00  0.000E+00  4.55481E+01  1.504E-01  2.000E+01  2.000E+04 -3.941E-02
   1   16    8     1     8    1.0707E+05 -7.3575E+02   1.0780E+05  0.000E+00  0.000E+00  0.000E+00  4.50715E+01  1.510E-01  2.000E+01  2.000E+04 -3.679E-02
   1   16    9     1     9    1.0780E+05 -6.5955E+02   1.0846E+05  0.000E+00  0.000E+00  0.000E+00  4.45948E+01  1.516E-01  2.000E+01  2.000E+04 -3.298E-02
   1   16   10     1    10    1.0846E+05 -5.4566E+02   1.0901E+05  0.000E+00  0.000E+00  0.000E+00  4.41180E+01  1.521E-01  2.000E+01  2.000E+04 -2.728E-02
   1   16   11     1    11    1.0901E+05 -3.6733E+02   1.0938E+05  0.000E+00  0.000E+00  0.000E+00  4.36411E+01  1.525E-01  2.000E+01  2.000E+04 -1.837E-02
   1   16   12     1    12    1.0938E+05 -3.7013E+01   1.0941E+05  0.000E+00  0.000E+00  0.000E+00  4.31640E+01  1.527E-01  2.000E+01  2.000E+04 -1.851E-03
   1   15   13     1    13    1.0941E+05 -3.6026E+00   1.0942E+05  0.000E+00  0.000E+00  0.000E+00  4.26868E+01  1.527E-01  2.000E+01  2.000E+04 -1.801E-04
   1   14   14     1    14    1.0942E+05 -3.6436E+02   1.0978E+05  0.000E+00  0.000E+00  0.000E+00  4.22096E+01  1.528E-01  2.000E+01  2.000E+04 -1.822E-02
   1   13   15     1    15    1.0978E+05 -9.0749E+02   1.1069E+05  0.000E+00  0.000E+00  0.000E+00  4.17329E+01  1.534E-01  2.000E+01  2.000E+04 -4.537E-02
   1   12   16     1    16    1.1069E+05 -1.9294E+03   1.1262E+05  0.000E+00  0.000E+00  0.000E+00  4.12568E+01  1.545E-01  2.000E+01  2.000E+04 -9.647E-02
   1   12   17     1    17    1.1262E+05 -1.1332E+03   1.1375E+05  0.000E+00  0.000E+00  0.000E+00  4.07808E+01  1.558E-01  2.000E+01  2.000E+04 -5.666E-02
   1   12   18     1    18    1.1375E+05 -1.1127E+03   1.1486E+05  0.000E+00  0.000E+00  0.000E+00  4.03045E+01  1.567E-01  2.000E+01  2.000E+04 -5.564E-02
   1   12   19     1    19    1.1486E+05 -1.7719E+03   1.1664E+05  0.000E+00  0.000E+00  0.000E+00  3.98284E+01  1.579E-01  2.000E+01  2.000E+04 -8.859E-02
   1   13   20     1    20    1.1664E+05 -7.1496E+02   1.1735E+05  0.000E+00  0.000E+00  0.000E+00  3.93521E+01  1.589E-01  2.000E+01  2.000E+04 -3.575E-02
   1   14   21     1    21    1.1735E+05  2.4150E+02   1.1711E+05  0.000E+00  0.000E+00  0.000E+00  3.88750E+01  1.591E-01  2.000E+01  2.000E+04  1.208E-02
   1   14   22     1    22    1.1711E+05  5.1397E+03   1.1197E+05  0.000E+00  0.000E+00  0.000E+00  3.83956E+01  1.569E-01  2.000E+01  2.000E+04  2.570E-01
   1    9   30     2     1    5.0000E+04 -6.4432E+02   5.0644E+04  0.000E+00  0.000E+00  0.000E+00  4.02413E+01  1.163E-01  2.000E+01  2.000E+04 -3.222E-02
   1    9   29     2     2    5.0644E+04 -9.3923E+02   5.1584E+04  0.000E+00  0.000E+00  0.000E+00  3.99924E+01  1.174E-01  2.000E+01  2.000E+04 -4.696E-02
   1    9   28     2     3    5.1584E+04 -1.1829E+03   5.2766E+04  0.000E+00  0.000E+00  0.000E+00  3.97439E+01  1.189E-01  2.000E+01  2.000E+04 -5.914E-02
   1    9   27     2     4    5.2766E+04 -2.3794E+03   5.5146E+04  0.000E+00  0.000E+00  0.000E+00  3.94963E+01  1.213E-01  2.000E+01  2.000E+04 -1.190E-01
   1   10   26     2     5    5.5146E+04 -1.6037E+03   5.6750E+04  0.000E+00  0.000E+00  0.000E+00  3.92489E+01  1.239E-01  2.000E+01  2.000E+04 -8.018E-02
   1   11   25     2     6    5.6750E+04 -1.4052E+03   5.8155E+04  0.000E+00  0.000E+00  0.000E+00  3.90009E+01  1.259E-01  2.000E+01  2.000E+04 -7.026E-02
   1   12   24     2     7    5.8155E+04 -1.4674E+03   5.9622E+04  0.000E+00  0.000E+00  0.000E+00  3.87528E+01  1.278E-01  2.000E+01  2.000E+04 -7.337E-02
   1   13   23     2     8    5.9622E+04 -2.5022E+02   5.9872E+04  0.000E+00  0.000E+00  0.000E+00  3.85039E+01  1.289E-01  2.000E+01  2.000E+04 -1.251E-02
   1   14   22     2     9    5.9872E+04  2.2807E+03   5.7592E+04  0.000E+00  0.000E+00  0.000E+00  3.82526E+01  1.276E-01  2.000E+01  2.000E+04  1.140E-01
   1   14   22     3     1    1.6956E+05 -8.3167E+03   1.7788E+05  0.000E+00  0.000E+00  0.000E+00  3.77227E+01  1.672E-01  2.000E+01  2.000E+04 -4.158E-01
   1   15   23     3     2    1.7788E+05 -1.6552E+02   1.7804E+05  0.000E+00  0.000E+00  0.000E+00  3.68363E+01  1.696E-01  2.000E+01  2.000E+04 -8.276E-03
   1   15   24     3     3    1.7804E+05 -1.6504E+02   1.7821E+05  0.000E+00  0.000E+00  0.000E+00  3.59475E+01  1.697E-01  2.000E+01  2.000E+04 -8.252E-03
   1   15   25     3     4    1.7821E+05 -1.9553E+02   1.7840E+05  0.000E+00  0.000E+00  0.000E+00  3.50587E+01  1.698E-01  2.000E+01  2.000E+04 -9.776E-03
   1   15   26     3     5    1.7840E+05 -2.8791E+02   1.7869E+05  0.000E+00  0.000E+00  0.000E+00  3.41700E+01  1.700E-01  2.000E+01  2.000E+04 -1.440E-02
   1   16   27     3     6    1.7869E+05 -2.8014E+02   1.7897E+05  0.000E+00  0.000E+00  0.000E+00  3.32812E+01  1.701E-01  2.000E+01  2.000E+04 -1.401E-02
   1   17   28     3     7    1.7897E+05 -1.1860E+03   1.8016E+05  0.000E+00  0.000E+00  0.000E+00  3.23928E+01  1.705E-01  2.000E+01  2.000E+04 -5.930E-02
   1   18   29     3     8    1.8016E+05 -2.0545E+03   1.8221E+05  0.000E+00  0.000E+00  0.000E+00  3.15048E+01  1.715E-01  2.000E+01  2.000E+04 -1.027E-01
   1   18   30     3     9    1.8221E+05 -2.6775E+03   1.8489E+05  0.000E+00  0.000E+00  0.000E+00  3.06172E+01  1.728E-01  2.000E+01  2.000E+04 -1.339E-01



1
              HEAD IN LAYER   1 AT END OF TIME STEP   1 IN STRESS PERIOD   12
  ---------------------------------------------------------------------------

          1      2      3      4      5      6      7      8      9     10
         11     12     13     14     15     16     17     18     19     20
         21     22     23     24     25     26     27     28     29     30
 .........................................................................
   1  ****** ****** ****** ****** ****** ****** ****** ****** ****** ******
      ****** ****** ****** ****** ****** ****** ****** ****** ****** ******
      ****** ****** ****** ****** ****** ****** ****** ****** ****** ******
   2  ****** ****** ****** ****** ****** ****** ****** ****** ****** ******
      ****** ****** ****** ****** ****** ****** ****** ****** ****** ******
      ****** ****** ****** ****** ****** ****** ****** ****** ****** ******
   3  ****** ****** ****** ****** ****** ****** ****** ****** ****** ******
      ****** ****** ****** ****** ****** ****** ****** ****** ****** ******
      ****** ****** ****** ****** ****** ****** ****** ****** ****** ******
   4  ****** ****** ****** ****** ****** ****** ****** ****** ****** ******
      ****** ****** ****** ****** ****** ****** ****** ****** ****** ******
      ****** ****** ****** ****** ****** ****** ****** ****** ****** ******
   5  ****** ****** ****** ****** ****** ****** ****** ****** ****** ******
      ****** ****** ****** ****** ****** ****** ****** ****** ****** ******
      ****** ****** ****** ****** ****** ****** ****** ****** ****** ******
   6  ****** ****** ****** ****** ****** ****** ****** ****** ****** ******
      ****** ****** ****** ****** ****** ****** ****** ****** ****** ******
      ****** ****** ****** ****** ****** ****** ****** ****** ****** ******
   7  ****** ****** ****** ****** ****** ****** ****** ****** ****** ******
      ****** ****** ****** ****** ****** ****** ****** ****** ****** ******
      ****** ****** ****** ****** ****** ****** ****** ****** ****** ******
   8  ****** ****** ****** ****** ****** ****** ****** ****** ****** ******
      ****** ****** ****** ****** ****** ****** ****** ****** ****** ******
      ****** ****** ****** ****** ****** ****** ****** ****** ****** ******
   9  ****** ****** ****** ****** ****** ****** ****** ****** ****** ******
      ****** ****** ****** ****** ****** ****** ****** ****** ****** ******
      ****** ****** ****** ****** ****** ****** ****** ****** ****** ******
  10  ****** ****** ****** ****** ****** ****** ****** ****** ****** ******
      ****** ****** ****** ****** ****** ****** ****** ****** ****** ******
      ****** ****** ****** ****** ****** ****** ****** ****** ****** ******
  11  ****** ****** ****** ****** ****** ****** ****** ****** ****** ******
      ****** ****** ****** ****** ****** ****** ****** ****** ****** ******
      ****** ****** ****** ****** ****** ****** ****** ****** ****** ******
  12  ****** ****** ****** ****** ****** ****** ****** ****** ****** ******
      ****** ****** ****** ****** ****** ****** ****** ****** ****** ******
      ****** ****** ****** ****** ****** ****** ****** ****** ****** ******
  13  ****** ****** ****** ****** ****** ****** ****** ****** ****** ******
      ****** ****** ****** ****** ****** ****** ****** ****** ****** ******
      ****** ****** ****** ****** ****** ****** ****** ****** ****** ******
  14  ****** ****** ****** ****** ****** ****** ****** ****** ****** ******
      ****** ****** ****** ****** ****** ****** ****** ****** ****** ******
      ****** ****** ****** ****** ****** ****** ****** ****** ****** ******
  15  ****** ****** ****** ****** ****** ****** ****** ****** ****** ******
      ****** ****** ****** ****** ****** ****** ****** ****** ****** ******
      ****** ****** ****** ****** ****** ****** ****** ****** ****** ******
  16  ****** ****** ****** ****** ****** ****** ****** ****** ****** ******
      ****** ****** ****** ****** ****** ****** ****** ****** ****** ******
      ****** ****** ****** ****** ****** ****** ****** ****** ****** ******
  17  ****** ****** ****** ****** ****** ****** ****** ****** ****** ******
      ****** ****** ****** ****** ****** ****** ****** ****** ****** ******
      ****** ****** ****** ****** ****** ****** ****** ****** ****** ******
  18  ****** ****** ****** ****** ****** ****** ****** ****** ****** ******
      ****** ****** ****** ****** ****** ****** ****** ****** ****** ******
      ****** ****** ****** ****** ****** ****** ****** ****** ****** ******
  19  ****** ****** ****** ****** ****** ****** ****** ****** ****** ******
      ****** ****** ****** ****** ****** ****** ****** ****** ****** ******
      ****** ****** ****** ****** ****** ****** ****** ****** ****** ******
  20  ****** ****** ****** ****** ****** ****** ****** ****** ****** ******
      ****** ****** ****** ****** ****** ****** ****** ****** ****** ******
      ****** ****** ****** ****** ****** ****** ****** ****** ****** ******
  21  ****** ****** ****** ****** ****** ****** ****** ****** ****** ******
      ****** ****** ****** ****** ****** ****** ****** ****** ****** ******
      ****** ****** ****** ****** ****** ****** ****** ****** ****** ******
  22  ****** ****** ****** ****** ****** ****** ****** ****** ****** ******
      ****** ****** ****** ****** ****** ****** ****** ****** ****** ******
      ****** ****** ****** ****** ****** ****** ****** ****** ****** ******
  23  ****** ****** ****** ****** ****** ****** ****** ****** ****** ******
      ****** ****** ****** ****** ****** ****** ****** ****** ****** ******
      ****** ****** ****** ****** ****** ****** ****** ****** ****** ******
  24  ****** ****** ****** ****** ****** ****** ****** ****** ****** ******
      ****** ****** ****** ****** ****** ****** ****** ****** ****** ******
      ****** ****** ****** ****** ****** ****** ****** ****** ****** ******
  25  ****** ****** ****** ****** ****** ****** ****** ****** ****** ******
      ****** ****** ****** ****** ****** ****** ****** ****** ****** ******
      ****** ****** ****** ****** ****** ****** ****** ****** ****** ******

 HEAD WILL BE SAVED ON UNIT   51 AT END OF TIME STEP    1, STRESS PERIOD   12
1
  VOLUMETRIC BUDGET FOR ENTIRE MODEL AT END OF TIME STEP    1, STRESS PERIOD  12
  ------------------------------------------------------------------------------

     CUMULATIVE VOLUMES      L**3       RATES FOR THIS TIME STEP      L**3/T
     ------------------                 ------------------------

           IN:                                      IN:
           ---                                      ---
             STORAGE =    37114833.7223               STORAGE =          33.4374
       CONSTANT HEAD =    33972377.0037         CONSTANT HEAD =       36641.3084
               WELLS =           0.0000                 WELLS =           0.0000
            RECHARGE =    26413200.0000              RECHARGE =       27600.0000
      STREAM LEAKAGE =     7781595.1634        STREAM LEAKAGE =        7661.8866

            TOTAL IN =   105282005.8893              TOTAL IN =       71936.6325

          OUT:                                     OUT:
          ----                                     ----
             STORAGE =     2510318.3927               STORAGE =        2925.1566
       CONSTANT HEAD =           0.0000         CONSTANT HEAD =           0.0000
               WELLS =    28974006.0936                 WELLS =       26460.2795
            RECHARGE =           0.0000              RECHARGE =           0.0000
      STREAM LEAKAGE =    73797683.3304        STREAM LEAKAGE =       42551.1954

           TOTAL OUT =   105282007.8166             TOTAL OUT =       71936.6315

            IN - OUT =          -1.9273              IN - OUT =       9.3656E-04

 PERCENT DISCREPANCY =          -0.00     PERCENT DISCREPANCY =           0.00






         TIME SUMMARY AT END OF TIME STEP    1 IN STRESS PERIOD   12
                    SECONDS     MINUTES      HOURS       DAYS        YEARS
                    -----------------------------------------------------------
   TIME STEP LENGTH 7.86240E+06 1.31040E+05  2184.0      91.000     0.24914    
 STRESS PERIOD TIME 7.86240E+06 1.31040E+05  2184.0      91.000     0.24914    
         TOTAL TIME 9.46080E+07 1.57680E+06  26280.      1095.0      2.9979    
1

 Run end date and time (yyyy/mm/dd hh:mm:ss): 2019/08/27 21:01:18
 Elapsed run time:  0.037 Seconds

