                                  MODFLOW-2005     
      U.S. GEOLOGICAL SURVEY MODULAR FINITE-DIFFERENCE GROUND-WATER FLOW MODEL
                            VERSION 1.11.00 8/8/2013

 LIST FILE: supply2.lst
                         UNIT   10

 OPENING ..\data\supply.dis
 FILE TYPE:DIS   UNIT   11   STATUS:OLD    
 FORMAT:FORMATTED              ACCESS:SEQUENTIAL          

 OPENING ..\data\supply.ba6
 FILE TYPE:BAS6   UNIT   12   STATUS:OLD    
 FORMAT:FORMATTED              ACCESS:SEQUENTIAL          

 OPENING ..\data\supply_het.bc6
 FILE TYPE:BCF6   UNIT   13   STATUS:OLD    
 FORMAT:FORMATTED              ACCESS:SEQUENTIAL          

 OPENING ..\data\supply.rch
 FILE TYPE:RCH   UNIT   15   STATUS:OLD    
 FORMAT:FORMATTED              ACCESS:SEQUENTIAL          

 OPENING ..\data\supply2.sfr
 FILE TYPE:SFR   UNIT   16   STATUS:OLD    
 FORMAT:FORMATTED              ACCESS:SEQUENTIAL          

 OPENING ..\data\supply.oc
 FILE TYPE:OC   UNIT   17   STATUS:OLD    
 FORMAT:FORMATTED              ACCESS:SEQUENTIAL          

 OPENING ..\data\supply.pcg
 FILE TYPE:PCG   UNIT   18   STATUS:OLD    
 FORMAT:FORMATTED              ACCESS:SEQUENTIAL          

 OPENING supply2.wel
 FILE TYPE:WEL   UNIT   19   STATUS:OLD    
 FORMAT:FORMATTED              ACCESS:SEQUENTIAL          

 OPENING supply2sf.cbc
 FILE TYPE:DATA(BINARY)   UNIT   50   STATUS:UNKNOWN
 FORMAT:BINARY                 ACCESS:SEQUENTIAL          

 OPENING supply2hd.bhd
 FILE TYPE:DATA(BINARY)   UNIT   51   STATUS:UNKNOWN
 FORMAT:BINARY                 ACCESS:SEQUENTIAL          

 BAS -- BASIC PACKAGE, VERSION 7, 5/2/2005 INPUT READ FROM UNIT   12
 
 MODFLOW was compiled using uniform precision
 Precision of REAL and DOUBLE PRECISION variables:          15

 DISCRETIZATION INPUT DATA READ FROM UNIT   11
    1 LAYERS        25 ROWS        30 COLUMNS
   12 STRESS PERIOD(S) IN SIMULATION
 MODEL TIME UNIT IS DAYS
 MODEL LENGTH UNIT IS UNDEFINED
  Confining bed flag for each layer:
   0

                     DELR =   200.000    

                     DELC =   200.000    

 TOP ELEVATION OF LAYER 1 =  100.0000    

   MODEL LAYER BOTTOM EL. =   0.00000     FOR LAYER   1


 STRESS PERIOD     LENGTH       TIME STEPS     MULTIPLIER FOR DELT    SS FLAG
 ----------------------------------------------------------------------------
        1         92.00000          1                    1.500         TR
        2         91.00000          1                    1.500         TR
        3         91.00000          1                    1.500         TR
        4         91.00000          1                    1.500         TR
        5         92.00000          1                    1.500         TR
        6         91.00000          1                    1.500         TR
        7         91.00000          1                    1.500         TR
        8         91.00000          1                    1.500         TR
        9         92.00000          1                    1.500         TR
       10         91.00000          1                    1.500         TR
       11         91.00000          1                    1.500         TR
       12         91.00000          1                    1.500         TR

 TRANSIENT SIMULATION



 
 #MODOFC transient water supply sample problem                                   
 #                                                                               
 THE FREE FORMAT OPTION HAS BEEN SELECTED



                     BOUNDARY ARRAY FOR LAYER   1
 READING ON UNIT   12 WITH FORMAT: (20I4)              

 AQUIFER HEAD WILL BE SET TO   0.0000     AT ALL NO-FLOW NODES (IBOUND=0).



                       INITIAL HEAD FOR LAYER   1
 READING ON UNIT   12 WITH FORMAT: (10F13.0)           

 OUTPUT CONTROL IS SPECIFIED ONLY AT TIME STEPS FOR WHICH OUTPUT IS DESIRED
 COMPACT CELL-BY-CELL BUDGET FILES WILL BE WRITTEN
 HEAD PRINT FORMAT CODE IS  18    DRAWDOWN PRINT FORMAT CODE IS   0
 HEADS WILL BE SAVED ON UNIT   51    DRAWDOWNS WILL BE SAVED ON UNIT    0

 BCF -- BLOCK-CENTERED FLOW PACKAGE, VERSION 7, 5/2/2005
         INPUT READ FROM UNIT 13
 TRANSIENT SIMULATION
 HEAD AT CELLS THAT CONVERT TO DRY=   0.0000    
 WETTING CAPABILITY IS NOT ACTIVE
      LAYER  LAYER-TYPE CODE     INTERBLOCK T
      --------------------------------------------
         1            0          0 -- HARMONIC    

 COLUMN TO ROW ANISOTROPY =  1.000000    

     PRIMARY STORAGE COEF =  5.000000E-02 FOR LAYER   1



               TRANSMIS. ALONG ROWS FOR LAYER   1
 READING ON UNIT   13 WITH FORMAT: (FREE)              

 WEL -- WELL PACKAGE, VERSION 7, 5/2/2005 INPUT READ FROM UNIT   19
 # Well package input file written by MMProc
 No named parameters
 MAXIMUM OF      4 ACTIVE WELLS AT ONE TIME


     0 Well parameters

 RCH -- RECHARGE PACKAGE, VERSION 7, 5/2/2005 INPUT READ FROM UNIT   15
 No named parameters
 OPTION 1 -- RECHARGE TO TOP LAYER


     0 Recharge parameters

 SFR7 -- STREAMFLOW ROUTING PACKAGE, VERSION 1.0.7, 2013-01-15
         INPUT READ FROM UNIT  16
 #  Supply2 test problem for GWM-VI
 #  The eighth entry in the first data line is ISTCB2 -
 #    Setting this to a negative number indicates that
 #    streamflows out of the reach will be saved to a
 #    binary file.  The absolute value of ISTCB2 is the
 #    unit to which unformatted flows will be written.
 #
 No named parameters
 Segment information will not be 
 read by reach
 No named parameters
 No specifed inflow files


 NUMBER OF STREAM REACHES IS   40

 NUMBER OF STREAM SEGMENTS IS    3

 NUMBER OF STREAM PARAMETERS IS    0

 NUMBER OF STREAM SEGMENTS DEFINED USING PARAMETERS IS              0

 MAXIMUM ERROR FOR STREAM LEAKAGE RATES IS  1.00E-04

 CONSTANT FOR MANNINGS EQUATION IS  1.2839E+05





   STREAM NETWORK DESCRIPTION: 

   LAYER    ROW    COL   SEGMENT   REACH     LENGTH
                          NUMBER   NUMBER    IN CELL        
   --------------------------------------------------
      1     13      1       1        1    2.0000E+02
      1     13      2       1        2    2.0000E+02
      1     14      3       1        3    2.0000E+02
      1     15      4       1        4    2.0000E+02
      1     16      5       1        5    2.0000E+02
      1     16      6       1        6    2.0000E+02
      1     16      7       1        7    2.0000E+02
      1     16      8       1        8    2.0000E+02
      1     16      9       1        9    2.0000E+02
      1     16     10       1       10    2.0000E+02
      1     16     11       1       11    2.0000E+02
      1     16     12       1       12    2.0000E+02
      1     15     13       1       13    2.0000E+02
      1     14     14       1       14    2.0000E+02
      1     13     15       1       15    2.0000E+02
      1     12     16       1       16    2.0000E+02
      1     12     17       1       17    2.0000E+02
      1     12     18       1       18    2.0000E+02
      1     12     19       1       19    2.0000E+02
      1     13     20       1       20    2.0000E+02
      1     14     21       1       21    2.0000E+02
      1     14     22       1       22    2.0000E+02
      1      9     30       2        1    2.0000E+02
      1      9     29       2        2    2.0000E+02
      1      9     28       2        3    2.0000E+02
      1      9     27       2        4    2.0000E+02
      1     10     26       2        5    2.0000E+02
      1     11     25       2        6    2.0000E+02
      1     12     24       2        7    2.0000E+02
      1     13     23       2        8    2.0000E+02
      1     14     22       2        9    2.0000E+02
      1     14     22       3        1    2.0000E+02
      1     15     23       3        2    2.0000E+02
      1     15     24       3        3    2.0000E+02
      1     15     25       3        4    2.0000E+02
      1     15     26       3        5    2.0000E+02
      1     16     27       3        6    2.0000E+02
      1     17     28       3        7    2.0000E+02
      1     18     29       3        8    2.0000E+02
      1     18     30       3        9    2.0000E+02




 PCG -- CONJUGATE-GRADIENT SOLUTION PACKAGE, VERSION 7, 5/2/2005
 MAXIMUM OF    500 CALLS OF SOLUTION ROUTINE
 MAXIMUM OF      5 INTERNAL ITERATIONS PER CALL TO SOLUTION ROUTINE
 MATRIX PRECONDITIONING TYPE :    1



                                    SOLUTION BY THE CONJUGATE-GRADIENT METHOD
                                   -------------------------------------------
                    MAXIMUM NUMBER OF CALLS TO PCG ROUTINE =      500
                        MAXIMUM ITERATIONS PER CALL TO PCG =        5
                               MATRIX PRECONDITIONING TYPE =        1
        RELAXATION FACTOR (ONLY USED WITH PRECOND. TYPE 1) =    0.10000E+01
 PARAMETER OF POLYNOMIAL PRECOND. = 2 (2) OR IS CALCULATED :        0
                         HEAD CHANGE CRITERION FOR CLOSURE =    0.10000E-05
                     RESIDUAL CHANGE CRITERION FOR CLOSURE =    0.10000E+01
            PCG HEAD AND RESIDUAL CHANGE PRINTOUT INTERVAL =        1
     PRINTING FROM SOLVER IS LIMITED(1) OR SUPPRESSED (>1) =        1
                            STEADY-STATE DAMPING PARAMETER =    0.10000E+01
                               TRANSIENT DAMPING PARAMETER =    0.10000E+01
1
                            STRESS PERIOD NO.    1, LENGTH =   92.00000    
                            -----------------------------------------------

                              NUMBER OF TIME STEPS =     1

                               MULTIPLIER FOR DELT =     1.500

                            INITIAL TIME STEP SIZE =   92.00000    

 WELL NO.  LAYER   ROW   COL   STRESS RATE         
 --------------------------------------------------
      1      1     16      2      -8562.    
      2      1     23     16      -2065.    
      3      1     13     14      -6003.    
      4      1      6     16      -8940.    

      4 WELLS

                 RECHARGE =  5.000000E-04



 CLASSIFICATION & COUNT OF STREAM SEGMENTS BASED ON SOURCE OF INFLOW:

                HEADWATER     DIVERSION     RECEIVES TRIBUTARY FLOW
                ---------     ---------     -----------------------
                     2              0               1



                    INPUT DATA FOR EACH STREAM SEGMENT
 ---------------------------------------------------------------------------------------------

 SEGMENT    SEG.     INFLOW   OVERLAND   STREAM    STREAM   ICALC  OUTFLOW  DIVERSION PRIORITY
    NO.    LENGTH     RATE     RUNOFF      ET       PPT.    METH.  TO SEG.  FROM SEG.    NO.

      1  4.400E+03 1.000E+05 0.000E+00 0.000E+00 0.000E+00    1        3        0        0
      2  1.800E+03 5.000E+04 0.000E+00 0.000E+00 0.000E+00    1        3        0        0
      3  1.800E+03 0.000E+00 0.000E+00 0.000E+00 0.000E+00    1        0        0        0


         STREAMBED PROPERTIES AND STREAM DIMENSIONS

 SEGMENT     BED HYD. COND.      BED THICKNESS     ELEV.-TOP OF BED     WIDTH OF STREAM     DEPTH OF STREAM    STREAM ROUGHNESS
    No.     UPPER     LOWER     UPPER     LOWER     UPPER     LOWER     UPPER     LOWER     UPPER     LOWER   CHANNEL      BANK

     1  5.000E+00 5.000E+00 1.000E+00 1.000E+00 4.850E+01 3.800E+01 2.000E+01 2.000E+01                     5.000E-02
     2  5.000E+00 5.000E+00 1.000E+00 1.000E+00 4.025E+01 3.800E+01 2.000E+01 2.000E+01                     5.000E-02
     3  5.000E+00 5.000E+00 1.000E+00 1.000E+00 3.800E+01 3.000E+01 2.000E+01 2.000E+01                     5.000E-02



 
 SOLVING FOR HEAD 


     9 CALLS TO PCG ROUTINE FOR TIME STEP   1 IN STRESS PERIOD    1
    36 TOTAL ITERATIONS

 OUTPUT CONTROL FOR STRESS PERIOD    1   TIME STEP    1
    SAVE BUDGET
    SAVE HEAD FOR ALL LAYERS
    PRINT HEAD FOR ALL LAYERS
 UBDSV2 SAVING "STREAMFLOW OUT  " ON UNIT  50 AT TIME STEP  1, STRESS PERIOD   1



 STREAM LISTING     PERIOD      1   STEP        1

 LAYER ROW COL. STREAM  RCH.  FLOW INTO     FLOW TO   FLOW OUT OF   OVRLND.     DIRECT     STREAM       STREAM     STREAM     STREAM   STREAMBED  STREAMBED
                SEG.NO.  NO.  STRM. RCH.    AQUIFER    STRM. RCH.    RUNOFF     PRECIP       ET          HEAD       DEPTH      WIDTH   CONDCTNC.   GRADIENT

   1   13    1     1     1    1.0000E+05 -4.9411E+03   1.0494E+05  0.000E+00  0.000E+00  0.000E+00  4.84081E+01  1.468E-01  2.000E+01  2.000E+04 -2.471E-01
   1   13    2     1     2    1.0494E+05 -6.3807E+03   1.1132E+05  0.000E+00  0.000E+00  0.000E+00  4.79357E+01  1.516E-01  2.000E+01  2.000E+04 -3.190E-01
   1   14    3     1     3    1.1132E+05 -1.8124E+03   1.1313E+05  0.000E+00  0.000E+00  0.000E+00  4.74618E+01  1.550E-01  2.000E+01  2.000E+04 -9.062E-02
   1   15    4     1     4    1.1313E+05 -1.8895E+03   1.1502E+05  0.000E+00  0.000E+00  0.000E+00  4.69861E+01  1.565E-01  2.000E+01  2.000E+04 -9.447E-02
   1   16    5     1     5    1.1502E+05 -5.5563E+03   1.2058E+05  0.000E+00  0.000E+00  0.000E+00  4.65119E+01  1.596E-01  2.000E+01  2.000E+04 -2.778E-01
   1   16    6     1     6    1.2058E+05 -4.0077E+03   1.2459E+05  0.000E+00  0.000E+00  0.000E+00  4.60384E+01  1.634E-01  2.000E+01  2.000E+04 -2.004E-01
   1   16    7     1     7    1.2459E+05 -3.9827E+03   1.2857E+05  0.000E+00  0.000E+00  0.000E+00  4.55644E+01  1.666E-01  2.000E+01  2.000E+04 -1.991E-01
   1   16    8     1     8    1.2857E+05 -3.9984E+03   1.3257E+05  0.000E+00  0.000E+00  0.000E+00  4.50902E+01  1.698E-01  2.000E+01  2.000E+04 -1.999E-01
   1   16    9     1     9    1.3257E+05 -4.0157E+03   1.3658E+05  0.000E+00  0.000E+00  0.000E+00  4.46160E+01  1.729E-01  2.000E+01  2.000E+04 -2.008E-01
   1   16   10     1    10    1.3658E+05 -4.0249E+03   1.4061E+05  0.000E+00  0.000E+00  0.000E+00  4.41419E+01  1.759E-01  2.000E+01  2.000E+04 -2.012E-01
   1   16   11     1    11    1.4061E+05 -4.0574E+03   1.4467E+05  0.000E+00  0.000E+00  0.000E+00  4.36676E+01  1.790E-01  2.000E+01  2.000E+04 -2.029E-01
   1   16   12     1    12    1.4467E+05 -6.8216E+03   1.5149E+05  0.000E+00  0.000E+00  0.000E+00  4.31944E+01  1.831E-01  2.000E+01  2.000E+04 -3.411E-01
   1   15   13     1    13    1.5149E+05 -6.8486E+03   1.5834E+05  0.000E+00  0.000E+00  0.000E+00  4.27222E+01  1.881E-01  2.000E+01  2.000E+04 -3.424E-01
   1   14   14     1    14    1.5834E+05 -5.6346E+03   1.6397E+05  0.000E+00  0.000E+00  0.000E+00  4.22494E+01  1.926E-01  2.000E+01  2.000E+04 -2.817E-01
   1   13   15     1    15    1.6397E+05 -5.9252E+03   1.6990E+05  0.000E+00  0.000E+00  0.000E+00  4.17763E+01  1.967E-01  2.000E+01  2.000E+04 -2.963E-01
   1   12   16     1    16    1.6990E+05 -8.0679E+03   1.7796E+05  0.000E+00  0.000E+00  0.000E+00  4.13039E+01  2.016E-01  2.000E+01  2.000E+04 -4.034E-01
   1   12   17     1    17    1.7796E+05 -5.9715E+03   1.8394E+05  0.000E+00  0.000E+00  0.000E+00  4.08315E+01  2.065E-01  2.000E+01  2.000E+04 -2.986E-01
   1   12   18     1    18    1.8394E+05 -5.8909E+03   1.8983E+05  0.000E+00  0.000E+00  0.000E+00  4.03582E+01  2.105E-01  2.000E+01  2.000E+04 -2.945E-01
   1   12   19     1    19    1.8983E+05 -7.4784E+03   1.9731E+05  0.000E+00  0.000E+00  0.000E+00  3.98854E+01  2.150E-01  2.000E+01  2.000E+04 -3.739E-01
   1   13   20     1    20    1.9731E+05 -6.7565E+03   2.0406E+05  0.000E+00  0.000E+00  0.000E+00  3.94129E+01  2.197E-01  2.000E+01  2.000E+04 -3.378E-01
   1   14   21     1    21    2.0406E+05 -6.3945E+03   2.1046E+05  0.000E+00  0.000E+00  0.000E+00  3.89399E+01  2.240E-01  2.000E+01  2.000E+04 -3.197E-01
   1   14   22     1    22    2.1046E+05  3.5900E+03   2.0687E+05  0.000E+00  0.000E+00  0.000E+00  3.84635E+01  2.249E-01  2.000E+01  2.000E+04  1.795E-01
   1    9   30     2     1    5.0000E+04 -4.8405E+03   5.4841E+04  0.000E+00  0.000E+00  0.000E+00  4.02442E+01  1.192E-01  2.000E+01  2.000E+04 -2.420E-01
   1    9   29     2     2    5.4841E+04 -5.1332E+03   5.9974E+04  0.000E+00  0.000E+00  0.000E+00  4.00009E+01  1.259E-01  2.000E+01  2.000E+04 -2.567E-01
   1    9   28     2     3    5.9974E+04 -5.4110E+03   6.5385E+04  0.000E+00  0.000E+00  0.000E+00  3.97577E+01  1.327E-01  2.000E+01  2.000E+04 -2.705E-01
   1    9   27     2     4    6.5385E+04 -8.2227E+03   7.3607E+04  0.000E+00  0.000E+00  0.000E+00  3.95162E+01  1.412E-01  2.000E+01  2.000E+04 -4.111E-01
   1   10   26     2     5    7.3607E+04 -7.2605E+03   8.0868E+04  0.000E+00  0.000E+00  0.000E+00  3.92754E+01  1.504E-01  2.000E+01  2.000E+04 -3.630E-01
   1   11   25     2     6    8.0868E+04 -6.7119E+03   8.7580E+04  0.000E+00  0.000E+00  0.000E+00  3.90334E+01  1.584E-01  2.000E+01  2.000E+04 -3.356E-01
   1   12   24     2     7    8.7580E+04 -6.2194E+03   9.3799E+04  0.000E+00  0.000E+00  0.000E+00  3.87906E+01  1.656E-01  2.000E+01  2.000E+04 -3.110E-01
   1   13   23     2     8    9.3799E+04 -1.6396E+03   9.5439E+04  0.000E+00  0.000E+00  0.000E+00  3.85449E+01  1.699E-01  2.000E+01  2.000E+04 -8.198E-02
   1   14   22     2     9    9.5439E+04  2.3216E+02   9.5207E+04  0.000E+00  0.000E+00  0.000E+00  3.82956E+01  1.706E-01  2.000E+01  2.000E+04  1.161E-02
   1   14   22     3     1    3.0207E+05 -9.8640E+03   3.1194E+05  0.000E+00  0.000E+00  0.000E+00  3.77908E+01  2.353E-01  2.000E+01  2.000E+04 -4.932E-01
   1   15   23     3     2    3.1194E+05 -1.9840E+03   3.1392E+05  0.000E+00  0.000E+00  0.000E+00  3.69047E+01  2.380E-01  2.000E+01  2.000E+04 -9.920E-02
   1   15   24     3     3    3.1392E+05 -1.5292E+03   3.1545E+05  0.000E+00  0.000E+00  0.000E+00  3.60166E+01  2.388E-01  2.000E+01  2.000E+04 -7.646E-02
   1   15   25     3     4    3.1545E+05 -1.5792E+03   3.1703E+05  0.000E+00  0.000E+00  0.000E+00  3.51284E+01  2.395E-01  2.000E+01  2.000E+04 -7.896E-02
   1   15   26     3     5    3.1703E+05 -1.8829E+03   3.1891E+05  0.000E+00  0.000E+00  0.000E+00  3.42403E+01  2.403E-01  2.000E+01  2.000E+04 -9.415E-02
   1   16   27     3     6    3.1891E+05 -2.1644E+03   3.2108E+05  0.000E+00  0.000E+00  0.000E+00  3.33523E+01  2.412E-01  2.000E+01  2.000E+04 -1.082E-01
   1   17   28     3     7    3.2108E+05 -6.5783E+03   3.2766E+05  0.000E+00  0.000E+00  0.000E+00  3.24654E+01  2.432E-01  2.000E+01  2.000E+04 -3.289E-01
   1   18   29     3     8    3.2766E+05 -7.9886E+03   3.3564E+05  0.000E+00  0.000E+00  0.000E+00  3.15798E+01  2.464E-01  2.000E+01  2.000E+04 -3.994E-01
   1   18   30     3     9    3.3564E+05 -7.1716E+03   3.4282E+05  0.000E+00  0.000E+00  0.000E+00  3.06942E+01  2.498E-01  2.000E+01  2.000E+04 -3.586E-01



1
              HEAD IN LAYER   1 AT END OF TIME STEP   1 IN STRESS PERIOD    1
  ---------------------------------------------------------------------------

          1      2      3      4      5      6      7      8      9     10
         11     12     13     14     15     16     17     18     19     20
         21     22     23     24     25     26     27     28     29     30
 .........................................................................
   1  ****** ****** ****** ****** ****** ****** ****** ****** ****** ******
      ****** ****** ****** ****** ****** ****** ****** ****** ****** ******
      ****** ****** ****** ****** ****** ****** ****** ****** ****** ******
   2  ****** ****** ****** ****** ****** ****** ****** ****** ****** ******
      ****** ****** ****** ****** ****** ****** ****** ****** ****** ******
      ****** ****** ****** ****** ****** ****** ****** ****** ****** ******
   3  ****** ****** ****** ****** ****** ****** ****** ****** ****** ******
      ****** ****** ****** ****** ****** ****** ****** ****** ****** ******
      ****** ****** ****** ****** ****** ****** ****** ****** ****** ******
   4  ****** ****** ****** ****** ****** ****** ****** ****** ****** ******
      ****** ****** ****** ****** ****** ****** ****** ****** ****** ******
      ****** ****** ****** ****** ****** ****** ****** ****** ****** ******
   5  ****** ****** ****** ****** ****** ****** ****** ****** ****** ******
      ****** ****** ****** ****** ****** ****** ****** ****** ****** ******
      ****** ****** ****** ****** ****** ****** ****** ****** ****** ******
   6  ****** ****** ****** ****** ****** ****** ****** ****** ****** ******
      ****** ****** ****** ****** ****** ****** ****** ****** ****** ******
      ****** ****** ****** ****** ****** ****** ****** ****** ****** ******
   7  ****** ****** ****** ****** ****** ****** ****** ****** ****** ******
      ****** ****** ****** ****** ****** ****** ****** ****** ****** ******
      ****** ****** ****** ****** ****** ****** ****** ****** ****** ******
   8  ****** ****** ****** ****** ****** ****** ****** ****** ****** ******
      ****** ****** ****** ****** ****** ****** ****** ****** ****** ******
      ****** ****** ****** ****** ****** ****** ****** ****** ****** ******
   9  ****** ****** ****** ****** ****** ****** ****** ****** ****** ******
      ****** ****** ****** ****** ****** ****** ****** ****** ****** ******
      ****** ****** ****** ****** ****** ****** ****** ****** ****** ******
  10  ****** ****** ****** ****** ****** ****** ****** ****** ****** ******
      ****** ****** ****** ****** ****** ****** ****** ****** ****** ******
      ****** ****** ****** ****** ****** ****** ****** ****** ****** ******
  11  ****** ****** ****** ****** ****** ****** ****** ****** ****** ******
      ****** ****** ****** ****** ****** ****** ****** ****** ****** ******
      ****** ****** ****** ****** ****** ****** ****** ****** ****** ******
  12  ****** ****** ****** ****** ****** ****** ****** ****** ****** ******
      ****** ****** ****** ****** ****** ****** ****** ****** ****** ******
      ****** ****** ****** ****** ****** ****** ****** ****** ****** ******
  13  ****** ****** ****** ****** ****** ****** ****** ****** ****** ******
      ****** ****** ****** ****** ****** ****** ****** ****** ****** ******
      ****** ****** ****** ****** ****** ****** ****** ****** ****** ******
  14  ****** ****** ****** ****** ****** ****** ****** ****** ****** ******
      ****** ****** ****** ****** ****** ****** ****** ****** ****** ******
      ****** ****** ****** ****** ****** ****** ****** ****** ****** ******
  15  ****** ****** ****** ****** ****** ****** ****** ****** ****** ******
      ****** ****** ****** ****** ****** ****** ****** ****** ****** ******
      ****** ****** ****** ****** ****** ****** ****** ****** ****** ******
  16  ****** ****** ****** ****** ****** ****** ****** ****** ****** ******
      ****** ****** ****** ****** ****** ****** ****** ****** ****** ******
      ****** ****** ****** ****** ****** ****** ****** ****** ****** ******
  17  ****** ****** ****** ****** ****** ****** ****** ****** ****** ******
      ****** ****** ****** ****** ****** ****** ****** ****** ****** ******
      ****** ****** ****** ****** ****** ****** ****** ****** ****** ******
  18  ****** ****** ****** ****** ****** ****** ****** ****** ****** ******
      ****** ****** ****** ****** ****** ****** ****** ****** ****** ******
      ****** ****** ****** ****** ****** ****** ****** ****** ****** ******
  19  ****** ****** ****** ****** ****** ****** ****** ****** ****** ******
      ****** ****** ****** ****** ****** ****** ****** ****** ****** ******
      ****** ****** ****** ****** ****** ****** ****** ****** ****** ******
  20  ****** ****** ****** ****** ****** ****** ****** ****** ****** ******
      ****** ****** ****** ****** ****** ****** ****** ****** ****** ******
      ****** ****** ****** ****** ****** ****** ****** ****** ****** ******
  21  ****** ****** ****** ****** ****** ****** ****** ****** ****** ******
      ****** ****** ****** ****** ****** ****** ****** ****** ****** ******
      ****** ****** ****** ****** ****** ****** ****** ****** ****** ******
  22  ****** ****** ****** ****** ****** ****** ****** ****** ****** ******
      ****** ****** ****** ****** ****** ****** ****** ****** ****** ******
      ****** ****** ****** ****** ****** ****** ****** ****** ****** ******
  23  ****** ****** ****** ****** ****** ****** ****** ****** ****** ******
      ****** ****** ****** ****** ****** ****** ****** ****** ****** ******
      ****** ****** ****** ****** ****** ****** ****** ****** ****** ******
  24  ****** ****** ****** ****** ****** ****** ****** ****** ****** ******
      ****** ****** ****** ****** ****** ****** ****** ****** ****** ******
      ****** ****** ****** ****** ****** ****** ****** ****** ****** ******
  25  ****** ****** ****** ****** ****** ****** ****** ****** ****** ******
      ****** ****** ****** ****** ****** ****** ****** ****** ****** ******
      ****** ****** ****** ****** ****** ****** ****** ****** ****** ******

 HEAD WILL BE SAVED ON UNIT   51 AT END OF TIME STEP    1, STRESS PERIOD    1
1
  VOLUMETRIC BUDGET FOR ENTIRE MODEL AT END OF TIME STEP    1, STRESS PERIOD   1
  ------------------------------------------------------------------------------

     CUMULATIVE VOLUMES      L**3       RATES FOR THIS TIME STEP      L**3/T
     ------------------                 ------------------------

           IN:                                      IN:
           ---                                      ---
             STORAGE =    17638981.5147               STORAGE =      191728.0599
       CONSTANT HEAD =     1182866.9903         CONSTANT HEAD =       12857.2499
               WELLS =           0.0000                 WELLS =           0.0000
            RECHARGE =     1269600.0000              RECHARGE =       13800.0000
      STREAM LEAKAGE =      351641.2494        STREAM LEAKAGE =        3822.1875

            TOTAL IN =    20443089.7544              TOTAL IN =      222207.4973

          OUT:                                     OUT:
          ----                                     ----
             STORAGE =           0.0000               STORAGE =           0.0000
       CONSTANT HEAD =           0.0000         CONSTANT HEAD =           0.0000
               WELLS =     2352442.7240                 WELLS =       25570.0296
            RECHARGE =           0.0000              RECHARGE =           0.0000
      STREAM LEAKAGE =    18090647.3284        STREAM LEAKAGE =      196637.4710

           TOTAL OUT =    20443090.0524             TOTAL OUT =      222207.5006

            IN - OUT =          -0.2980              IN - OUT =      -3.2396E-03

 PERCENT DISCREPANCY =          -0.00     PERCENT DISCREPANCY =          -0.00






         TIME SUMMARY AT END OF TIME STEP    1 IN STRESS PERIOD    1
                    SECONDS     MINUTES      HOURS       DAYS        YEARS
                    -----------------------------------------------------------
   TIME STEP LENGTH 7.94880E+06 1.32480E+05  2208.0      92.000     0.25188    
 STRESS PERIOD TIME 7.94880E+06 1.32480E+05  2208.0      92.000     0.25188    
         TOTAL TIME 7.94880E+06 1.32480E+05  2208.0      92.000     0.25188    
1
1
                            STRESS PERIOD NO.    2, LENGTH =   91.00000    
                            -----------------------------------------------

                              NUMBER OF TIME STEPS =     1

                               MULTIPLIER FOR DELT =     1.500

                            INITIAL TIME STEP SIZE =   91.00000    

 WELL NO.  LAYER   ROW   COL   STRESS RATE         
 --------------------------------------------------
      1      1     16      2      -8562.    
      2      1     23     16      -2065.    
      3      1     13     14      -6003.    
      4      1      6     16      -8940.    

      4 WELLS

                 RECHARGE =  2.000000E-03

 REUSING STREAM SEGMENT DATA FROM LAST STRESS PERIOD
 
 SOLVING FOR HEAD 


     7 CALLS TO PCG ROUTINE FOR TIME STEP   1 IN STRESS PERIOD    2
    27 TOTAL ITERATIONS

 OUTPUT CONTROL FOR STRESS PERIOD    2   TIME STEP    1
    SAVE BUDGET
    SAVE HEAD FOR ALL LAYERS
    PRINT HEAD FOR ALL LAYERS
 UBDSV2 SAVING "STREAMFLOW OUT  " ON UNIT  50 AT TIME STEP  1, STRESS PERIOD   2



 STREAM LISTING     PERIOD      2   STEP        1

 LAYER ROW COL. STREAM  RCH.  FLOW INTO     FLOW TO   FLOW OUT OF   OVRLND.     DIRECT     STREAM       STREAM     STREAM     STREAM   STREAMBED  STREAMBED
                SEG.NO.  NO.  STRM. RCH.    AQUIFER    STRM. RCH.    RUNOFF     PRECIP       ET          HEAD       DEPTH      WIDTH   CONDCTNC.   GRADIENT

   1   13    1     1     1    1.0000E+05 -2.5579E+03   1.0256E+05  0.000E+00  0.000E+00  0.000E+00  4.84071E+01  1.458E-01  2.000E+01  2.000E+04 -1.279E-01
   1   13    2     1     2    1.0256E+05 -3.7998E+03   1.0636E+05  0.000E+00  0.000E+00  0.000E+00  4.79326E+01  1.485E-01  2.000E+01  2.000E+04 -1.900E-01
   1   14    3     1     3    1.0636E+05 -6.4350E+02   1.0700E+05  0.000E+00  0.000E+00  0.000E+00  4.74572E+01  1.504E-01  2.000E+01  2.000E+04 -3.217E-02
   1   15    4     1     4    1.0700E+05 -6.6958E+02   1.0767E+05  0.000E+00  0.000E+00  0.000E+00  4.69805E+01  1.509E-01  2.000E+01  2.000E+04 -3.348E-02
   1   16    5     1     5    1.0767E+05 -2.1664E+03   1.0984E+05  0.000E+00  0.000E+00  0.000E+00  4.65044E+01  1.521E-01  2.000E+01  2.000E+04 -1.083E-01
   1   16    6     1     6    1.0984E+05 -2.0770E+03   1.1191E+05  0.000E+00  0.000E+00  0.000E+00  4.60289E+01  1.539E-01  2.000E+01  2.000E+04 -1.039E-01
   1   16    7     1     7    1.1191E+05 -2.1670E+03   1.1408E+05  0.000E+00  0.000E+00  0.000E+00  4.55534E+01  1.557E-01  2.000E+01  2.000E+04 -1.084E-01
   1   16    8     1     8    1.1408E+05 -2.2165E+03   1.1630E+05  0.000E+00  0.000E+00  0.000E+00  4.50779E+01  1.575E-01  2.000E+01  2.000E+04 -1.108E-01
   1   16    9     1     9    1.1630E+05 -2.2367E+03   1.1853E+05  0.000E+00  0.000E+00  0.000E+00  4.46025E+01  1.593E-01  2.000E+01  2.000E+04 -1.118E-01
   1   16   10     1    10    1.1853E+05 -2.2314E+03   1.2077E+05  0.000E+00  0.000E+00  0.000E+00  4.41270E+01  1.611E-01  2.000E+01  2.000E+04 -1.116E-01
   1   16   11     1    11    1.2077E+05 -2.2371E+03   1.2300E+05  0.000E+00  0.000E+00  0.000E+00  4.36515E+01  1.629E-01  2.000E+01  2.000E+04 -1.119E-01
   1   16   12     1    12    1.2300E+05 -3.8615E+03   1.2686E+05  0.000E+00  0.000E+00  0.000E+00  4.31767E+01  1.653E-01  2.000E+01  2.000E+04 -1.931E-01
   1   15   13     1    13    1.2686E+05 -3.5134E+03   1.3038E+05  0.000E+00  0.000E+00  0.000E+00  4.27023E+01  1.682E-01  2.000E+01  2.000E+04 -1.757E-01
   1   14   14     1    14    1.3038E+05 -2.1285E+03   1.3251E+05  0.000E+00  0.000E+00  0.000E+00  4.22273E+01  1.704E-01  2.000E+01  2.000E+04 -1.064E-01
   1   13   15     1    15    1.3251E+05 -2.3963E+03   1.3490E+05  0.000E+00  0.000E+00  0.000E+00  4.17517E+01  1.722E-01  2.000E+01  2.000E+04 -1.198E-01
   1   12   16     1    16    1.3490E+05 -4.6881E+03   1.3959E+05  0.000E+00  0.000E+00  0.000E+00  4.12772E+01  1.749E-01  2.000E+01  2.000E+04 -2.344E-01
   1   12   17     1    17    1.3959E+05 -3.3560E+03   1.4295E+05  0.000E+00  0.000E+00  0.000E+00  4.08030E+01  1.780E-01  2.000E+01  2.000E+04 -1.678E-01
   1   12   18     1    18    1.4295E+05 -3.2937E+03   1.4624E+05  0.000E+00  0.000E+00  0.000E+00  4.03282E+01  1.805E-01  2.000E+01  2.000E+04 -1.647E-01
   1   12   19     1    19    1.4624E+05 -4.2569E+03   1.5050E+05  0.000E+00  0.000E+00  0.000E+00  3.98537E+01  1.833E-01  2.000E+01  2.000E+04 -2.128E-01
   1   13   20     1    20    1.5050E+05 -3.6237E+03   1.5412E+05  0.000E+00  0.000E+00  0.000E+00  3.93794E+01  1.862E-01  2.000E+01  2.000E+04 -1.812E-01
   1   14   21     1    21    1.5412E+05 -3.6736E+03   1.5779E+05  0.000E+00  0.000E+00  0.000E+00  3.89048E+01  1.889E-01  2.000E+01  2.000E+04 -1.837E-01
   1   14   22     1    22    1.5779E+05  4.3246E+03   1.5347E+05  0.000E+00  0.000E+00  0.000E+00  3.84273E+01  1.886E-01  2.000E+01  2.000E+04  2.162E-01
   1    9   30     2     1    5.0000E+04 -2.1162E+03   5.2116E+04  0.000E+00  0.000E+00  0.000E+00  4.02423E+01  1.173E-01  2.000E+01  2.000E+04 -1.058E-01
   1    9   29     2     2    5.2116E+04 -2.4210E+03   5.4537E+04  0.000E+00  0.000E+00  0.000E+00  3.99954E+01  1.204E-01  2.000E+01  2.000E+04 -1.210E-01
   1    9   28     2     3    5.4537E+04 -2.7120E+03   5.7249E+04  0.000E+00  0.000E+00  0.000E+00  3.97489E+01  1.239E-01  2.000E+01  2.000E+04 -1.356E-01
   1    9   27     2     4    5.7249E+04 -4.7289E+03   6.1978E+04  0.000E+00  0.000E+00  0.000E+00  3.95038E+01  1.288E-01  2.000E+01  2.000E+04 -2.364E-01
   1   10   26     2     5    6.1978E+04 -3.6311E+03   6.5609E+04  0.000E+00  0.000E+00  0.000E+00  3.92591E+01  1.341E-01  2.000E+01  2.000E+04 -1.816E-01
   1   11   25     2     6    6.5609E+04 -3.2384E+03   6.8848E+04  0.000E+00  0.000E+00  0.000E+00  3.90134E+01  1.384E-01  2.000E+01  2.000E+04 -1.619E-01
   1   12   24     2     7    6.8848E+04 -3.0990E+03   7.1947E+04  0.000E+00  0.000E+00  0.000E+00  3.87673E+01  1.423E-01  2.000E+01  2.000E+04 -1.549E-01
   1   13   23     2     8    7.1947E+04 -5.9212E+02   7.2539E+04  0.000E+00  0.000E+00  0.000E+00  3.85195E+01  1.445E-01  2.000E+01  2.000E+04 -2.961E-02
   1   14   22     2     9    7.2539E+04  1.1625E+03   7.1376E+04  0.000E+00  0.000E+00  0.000E+00  3.82692E+01  1.442E-01  2.000E+01  2.000E+04  5.813E-02
   1   14   22     3     1    2.2485E+05 -9.1583E+03   2.3400E+05  0.000E+00  0.000E+00  0.000E+00  3.77531E+01  1.976E-01  2.000E+01  2.000E+04 -4.579E-01
   1   15   23     3     2    2.3400E+05 -1.0443E+03   2.3505E+05  0.000E+00  0.000E+00  0.000E+00  3.68668E+01  2.002E-01  2.000E+01  2.000E+04 -5.221E-02
   1   15   24     3     3    2.3505E+05 -6.6333E+02   2.3571E+05  0.000E+00  0.000E+00  0.000E+00  3.59784E+01  2.006E-01  2.000E+01  2.000E+04 -3.317E-02
   1   15   25     3     4    2.3571E+05 -6.7045E+02   2.3638E+05  0.000E+00  0.000E+00  0.000E+00  3.50898E+01  2.010E-01  2.000E+01  2.000E+04 -3.352E-02
   1   15   26     3     5    2.3638E+05 -7.7281E+02   2.3716E+05  0.000E+00  0.000E+00  0.000E+00  3.42013E+01  2.013E-01  2.000E+01  2.000E+04 -3.864E-02
   1   16   27     3     6    2.3716E+05 -8.9787E+02   2.3805E+05  0.000E+00  0.000E+00  0.000E+00  3.33129E+01  2.017E-01  2.000E+01  2.000E+04 -4.489E-02
   1   17   28     3     7    2.3805E+05 -3.2537E+03   2.4131E+05  0.000E+00  0.000E+00  0.000E+00  3.24250E+01  2.028E-01  2.000E+01  2.000E+04 -1.627E-01
   1   18   29     3     8    2.4131E+05 -5.0418E+03   2.4635E+05  0.000E+00  0.000E+00  0.000E+00  3.15382E+01  2.049E-01  2.000E+01  2.000E+04 -2.521E-01
   1   18   30     3     9    2.4635E+05 -4.6769E+03   2.5103E+05  0.000E+00  0.000E+00  0.000E+00  3.06518E+01  2.073E-01  2.000E+01  2.000E+04 -2.338E-01



1
              HEAD IN LAYER   1 AT END OF TIME STEP   1 IN STRESS PERIOD    2
  ---------------------------------------------------------------------------

          1      2      3      4      5      6      7      8      9     10
         11     12     13     14     15     16     17     18     19     20
         21     22     23     24     25     26     27     28     29     30
 .........................................................................
   1  ****** ****** ****** ****** ****** ****** ****** ****** ****** ******
      ****** ****** ****** ****** ****** ****** ****** ****** ****** ******
      ****** ****** ****** ****** ****** ****** ****** ****** ****** ******
   2  ****** ****** ****** ****** ****** ****** ****** ****** ****** ******
      ****** ****** ****** ****** ****** ****** ****** ****** ****** ******
      ****** ****** ****** ****** ****** ****** ****** ****** ****** ******
   3  ****** ****** ****** ****** ****** ****** ****** ****** ****** ******
      ****** ****** ****** ****** ****** ****** ****** ****** ****** ******
      ****** ****** ****** ****** ****** ****** ****** ****** ****** ******
   4  ****** ****** ****** ****** ****** ****** ****** ****** ****** ******
      ****** ****** ****** ****** ****** ****** ****** ****** ****** ******
      ****** ****** ****** ****** ****** ****** ****** ****** ****** ******
   5  ****** ****** ****** ****** ****** ****** ****** ****** ****** ******
      ****** ****** ****** ****** ****** ****** ****** ****** ****** ******
      ****** ****** ****** ****** ****** ****** ****** ****** ****** ******
   6  ****** ****** ****** ****** ****** ****** ****** ****** ****** ******
      ****** ****** ****** ****** ****** ****** ****** ****** ****** ******
      ****** ****** ****** ****** ****** ****** ****** ****** ****** ******
   7  ****** ****** ****** ****** ****** ****** ****** ****** ****** ******
      ****** ****** ****** ****** ****** ****** ****** ****** ****** ******
      ****** ****** ****** ****** ****** ****** ****** ****** ****** ******
   8  ****** ****** ****** ****** ****** ****** ****** ****** ****** ******
      ****** ****** ****** ****** ****** ****** ****** ****** ****** ******
      ****** ****** ****** ****** ****** ****** ****** ****** ****** ******
   9  ****** ****** ****** ****** ****** ****** ****** ****** ****** ******
      ****** ****** ****** ****** ****** ****** ****** ****** ****** ******
      ****** ****** ****** ****** ****** ****** ****** ****** ****** ******
  10  ****** ****** ****** ****** ****** ****** ****** ****** ****** ******
      ****** ****** ****** ****** ****** ****** ****** ****** ****** ******
      ****** ****** ****** ****** ****** ****** ****** ****** ****** ******
  11  ****** ****** ****** ****** ****** ****** ****** ****** ****** ******
      ****** ****** ****** ****** ****** ****** ****** ****** ****** ******
      ****** ****** ****** ****** ****** ****** ****** ****** ****** ******
  12  ****** ****** ****** ****** ****** ****** ****** ****** ****** ******
      ****** ****** ****** ****** ****** ****** ****** ****** ****** ******
      ****** ****** ****** ****** ****** ****** ****** ****** ****** ******
  13  ****** ****** ****** ****** ****** ****** ****** ****** ****** ******
      ****** ****** ****** ****** ****** ****** ****** ****** ****** ******
      ****** ****** ****** ****** ****** ****** ****** ****** ****** ******
  14  ****** ****** ****** ****** ****** ****** ****** ****** ****** ******
      ****** ****** ****** ****** ****** ****** ****** ****** ****** ******
      ****** ****** ****** ****** ****** ****** ****** ****** ****** ******
  15  ****** ****** ****** ****** ****** ****** ****** ****** ****** ******
      ****** ****** ****** ****** ****** ****** ****** ****** ****** ******
      ****** ****** ****** ****** ****** ****** ****** ****** ****** ******
  16  ****** ****** ****** ****** ****** ****** ****** ****** ****** ******
      ****** ****** ****** ****** ****** ****** ****** ****** ****** ******
      ****** ****** ****** ****** ****** ****** ****** ****** ****** ******
  17  ****** ****** ****** ****** ****** ****** ****** ****** ****** ******
      ****** ****** ****** ****** ****** ****** ****** ****** ****** ******
      ****** ****** ****** ****** ****** ****** ****** ****** ****** ******
  18  ****** ****** ****** ****** ****** ****** ****** ****** ****** ******
      ****** ****** ****** ****** ****** ****** ****** ****** ****** ******
      ****** ****** ****** ****** ****** ****** ****** ****** ****** ******
  19  ****** ****** ****** ****** ****** ****** ****** ****** ****** ******
      ****** ****** ****** ****** ****** ****** ****** ****** ****** ******
      ****** ****** ****** ****** ****** ****** ****** ****** ****** ******
  20  ****** ****** ****** ****** ****** ****** ****** ****** ****** ******
      ****** ****** ****** ****** ****** ****** ****** ****** ****** ******
      ****** ****** ****** ****** ****** ****** ****** ****** ****** ******
  21  ****** ****** ****** ****** ****** ****** ****** ****** ****** ******
      ****** ****** ****** ****** ****** ****** ****** ****** ****** ******
      ****** ****** ****** ****** ****** ****** ****** ****** ****** ******
  22  ****** ****** ****** ****** ****** ****** ****** ****** ****** ******
      ****** ****** ****** ****** ****** ****** ****** ****** ****** ******
      ****** ****** ****** ****** ****** ****** ****** ****** ****** ******
  23  ****** ****** ****** ****** ****** ****** ****** ****** ****** ******
      ****** ****** ****** ****** ****** ****** ****** ****** ****** ******
      ****** ****** ****** ****** ****** ****** ****** ****** ****** ******
  24  ****** ****** ****** ****** ****** ****** ****** ****** ****** ******
      ****** ****** ****** ****** ****** ****** ****** ****** ****** ******
      ****** ****** ****** ****** ****** ****** ****** ****** ****** ******
  25  ****** ****** ****** ****** ****** ****** ****** ****** ****** ******
      ****** ****** ****** ****** ****** ****** ****** ****** ****** ******
      ****** ****** ****** ****** ****** ****** ****** ****** ****** ******

 HEAD WILL BE SAVED ON UNIT   51 AT END OF TIME STEP    1, STRESS PERIOD    2
1
  VOLUMETRIC BUDGET FOR ENTIRE MODEL AT END OF TIME STEP    1, STRESS PERIOD   2
  ------------------------------------------------------------------------------

     CUMULATIVE VOLUMES      L**3       RATES FOR THIS TIME STEP      L**3/T
     ------------------                 ------------------------

           IN:                                      IN:
           ---                                      ---
             STORAGE =    22542329.9815               STORAGE =       53882.9502
       CONSTANT HEAD =     2776495.5114         CONSTANT HEAD =       17512.4013
               WELLS =           0.0000                 WELLS =           0.0000
            RECHARGE =     6292800.0000              RECHARGE =       55200.0000
      STREAM LEAKAGE =      850973.4669        STREAM LEAKAGE =        5487.1672

            TOTAL IN =    32462598.9598              TOTAL IN =      132082.5187

          OUT:                                     OUT:
          ----                                     ----
             STORAGE =           0.0000               STORAGE =           0.0000
       CONSTANT HEAD =           0.0000         CONSTANT HEAD =           0.0000
               WELLS =     4679315.4184                 WELLS =       25570.0296
            RECHARGE =           0.0000              RECHARGE =           0.0000
      STREAM LEAKAGE =    27783284.8654        STREAM LEAKAGE =      106512.5004

           TOTAL OUT =    32462600.2838             TOTAL OUT =      132082.5300

            IN - OUT =          -1.3240              IN - OUT =      -1.1274E-02

 PERCENT DISCREPANCY =          -0.00     PERCENT DISCREPANCY =          -0.00






         TIME SUMMARY AT END OF TIME STEP    1 IN STRESS PERIOD    2
                    SECONDS     MINUTES      HOURS       DAYS        YEARS
                    -----------------------------------------------------------
   TIME STEP LENGTH 7.86240E+06 1.31040E+05  2184.0      91.000     0.24914    
 STRESS PERIOD TIME 7.86240E+06 1.31040E+05  2184.0      91.000     0.24914    
         TOTAL TIME 1.58112E+07 2.63520E+05  4392.0      183.00     0.50103    
1
1
                            STRESS PERIOD NO.    3, LENGTH =   91.00000    
                            -----------------------------------------------

                              NUMBER OF TIME STEPS =     1

                               MULTIPLIER FOR DELT =     1.500

                            INITIAL TIME STEP SIZE =   91.00000    

 WELL NO.  LAYER   ROW   COL   STRESS RATE         
 --------------------------------------------------
      1      1     16      2      -8562.    
      2      1     23     16      -2065.    
      3      1     13     14      -6003.    
      4      1      6     16      -8940.    

      4 WELLS

                 RECHARGE =   0.00000    

 REUSING STREAM SEGMENT DATA FROM LAST STRESS PERIOD
 
 SOLVING FOR HEAD 


     7 CALLS TO PCG ROUTINE FOR TIME STEP   1 IN STRESS PERIOD    3
    27 TOTAL ITERATIONS

 OUTPUT CONTROL FOR STRESS PERIOD    3   TIME STEP    1
    SAVE BUDGET
    SAVE HEAD FOR ALL LAYERS
    PRINT HEAD FOR ALL LAYERS
 UBDSV2 SAVING "STREAMFLOW OUT  " ON UNIT  50 AT TIME STEP  1, STRESS PERIOD   3



 STREAM LISTING     PERIOD      3   STEP        1

 LAYER ROW COL. STREAM  RCH.  FLOW INTO     FLOW TO   FLOW OUT OF   OVRLND.     DIRECT     STREAM       STREAM     STREAM     STREAM   STREAMBED  STREAMBED
                SEG.NO.  NO.  STRM. RCH.    AQUIFER    STRM. RCH.    RUNOFF     PRECIP       ET          HEAD       DEPTH      WIDTH   CONDCTNC.   GRADIENT

   1   13    1     1     1    1.0000E+05 -1.2276E+03   1.0123E+05  0.000E+00  0.000E+00  0.000E+00  4.84065E+01  1.452E-01  2.000E+01  2.000E+04 -6.138E-02
   1   13    2     1     2    1.0123E+05 -2.3176E+03   1.0355E+05  0.000E+00  0.000E+00  0.000E+00  4.79308E+01  1.467E-01  2.000E+01  2.000E+04 -1.159E-01
   1   14    3     1     3    1.0355E+05 -1.5943E+02   1.0370E+05  0.000E+00  0.000E+00  0.000E+00  4.74546E+01  1.478E-01  2.000E+01  2.000E+04 -7.972E-03
   1   15    4     1     4    1.0370E+05 -1.3685E+02   1.0384E+05  0.000E+00  0.000E+00  0.000E+00  4.69774E+01  1.479E-01  2.000E+01  2.000E+04 -6.843E-03
   1   16    5     1     5    1.0384E+05 -2.1701E+02   1.0406E+05  0.000E+00  0.000E+00  0.000E+00  4.65003E+01  1.481E-01  2.000E+01  2.000E+04 -1.085E-02
   1   16    6     1     6    1.0406E+05 -1.0164E+03   1.0507E+05  0.000E+00  0.000E+00  0.000E+00  4.60236E+01  1.486E-01  2.000E+01  2.000E+04 -5.082E-02
   1   16    7     1     7    1.0507E+05 -1.1784E+03   1.0625E+05  0.000E+00  0.000E+00  0.000E+00  4.55472E+01  1.495E-01  2.000E+01  2.000E+04 -5.892E-02
   1   16    8     1     8    1.0625E+05 -1.2535E+03   1.0751E+05  0.000E+00  0.000E+00  0.000E+00  4.50710E+01  1.505E-01  2.000E+01  2.000E+04 -6.268E-02
   1   16    9     1     9    1.0751E+05 -1.2834E+03   1.0879E+05  0.000E+00  0.000E+00  0.000E+00  4.45948E+01  1.516E-01  2.000E+01  2.000E+04 -6.417E-02
   1   16   10     1    10    1.0879E+05 -1.2820E+03   1.1007E+05  0.000E+00  0.000E+00  0.000E+00  4.41186E+01  1.527E-01  2.000E+01  2.000E+04 -6.410E-02
   1   16   11     1    11    1.1007E+05 -1.2845E+03   1.1136E+05  0.000E+00  0.000E+00  0.000E+00  4.36424E+01  1.538E-01  2.000E+01  2.000E+04 -6.423E-02
   1   16   12     1    12    1.1136E+05 -2.2106E+03   1.1357E+05  0.000E+00  0.000E+00  0.000E+00  4.31666E+01  1.552E-01  2.000E+01  2.000E+04 -1.105E-01
   1   15   13     1    13    1.1357E+05 -1.8177E+03   1.1539E+05  0.000E+00  0.000E+00  0.000E+00  4.26910E+01  1.569E-01  2.000E+01  2.000E+04 -9.088E-02
   1   14   14     1    14    1.1539E+05 -3.7449E+02   1.1576E+05  0.000E+00  0.000E+00  0.000E+00  4.22146E+01  1.578E-01  2.000E+01  2.000E+04 -1.872E-02
   1   13   15     1    15    1.1576E+05 -6.2398E+02   1.1638E+05  0.000E+00  0.000E+00  0.000E+00  4.17377E+01  1.582E-01  2.000E+01  2.000E+04 -3.120E-02
   1   12   16     1    16    1.1638E+05 -2.8228E+03   1.1921E+05  0.000E+00  0.000E+00  0.000E+00  4.12619E+01  1.596E-01  2.000E+01  2.000E+04 -1.411E-01
   1   12   17     1    17    1.1921E+05 -2.0252E+03   1.2123E+05  0.000E+00  0.000E+00  0.000E+00  4.07866E+01  1.616E-01  2.000E+01  2.000E+04 -1.013E-01
   1   12   18     1    18    1.2123E+05 -1.9899E+03   1.2322E+05  0.000E+00  0.000E+00  0.000E+00  4.03109E+01  1.632E-01  2.000E+01  2.000E+04 -9.949E-02
   1   12   19     1    19    1.2322E+05 -2.6223E+03   1.2584E+05  0.000E+00  0.000E+00  0.000E+00  3.98355E+01  1.650E-01  2.000E+01  2.000E+04 -1.311E-01
   1   13   20     1    20    1.2584E+05 -2.1565E+03   1.2800E+05  0.000E+00  0.000E+00  0.000E+00  3.93601E+01  1.669E-01  2.000E+01  2.000E+04 -1.078E-01
   1   14   21     1    21    1.2800E+05 -2.2012E+03   1.3020E+05  0.000E+00  0.000E+00  0.000E+00  3.88845E+01  1.686E-01  2.000E+01  2.000E+04 -1.101E-01
   1   14   22     1    22    1.3020E+05  4.6680E+03   1.2553E+05  0.000E+00  0.000E+00  0.000E+00  3.84063E+01  1.676E-01  2.000E+01  2.000E+04  2.334E-01
   1    9   30     2     1    5.0000E+04 -9.1185E+02   5.0912E+04  0.000E+00  0.000E+00  0.000E+00  4.02415E+01  1.165E-01  2.000E+01  2.000E+04 -4.559E-02
   1    9   29     2     2    5.0912E+04 -1.2172E+03   5.2129E+04  0.000E+00  0.000E+00  0.000E+00  3.99930E+01  1.180E-01  2.000E+01  2.000E+04 -6.086E-02
   1    9   28     2     3    5.2129E+04 -1.4923E+03   5.3621E+04  0.000E+00  0.000E+00  0.000E+00  3.97448E+01  1.198E-01  2.000E+01  2.000E+04 -7.462E-02
   1    9   27     2     4    5.3621E+04 -2.9618E+03   5.6583E+04  0.000E+00  0.000E+00  0.000E+00  3.94978E+01  1.228E-01  2.000E+01  2.000E+04 -1.481E-01
   1   10   26     2     5    5.6583E+04 -1.9821E+03   5.8565E+04  0.000E+00  0.000E+00  0.000E+00  3.92511E+01  1.261E-01  2.000E+01  2.000E+04 -9.911E-02
   1   11   25     2     6    5.8565E+04 -1.7007E+03   6.0266E+04  0.000E+00  0.000E+00  0.000E+00  3.90035E+01  1.285E-01  2.000E+01  2.000E+04 -8.504E-02
   1   12   24     2     7    6.0266E+04 -1.7204E+03   6.1986E+04  0.000E+00  0.000E+00  0.000E+00  3.87557E+01  1.307E-01  2.000E+01  2.000E+04 -8.602E-02
   1   13   23     2     8    6.1986E+04 -2.5253E+02   6.2239E+04  0.000E+00  0.000E+00  0.000E+00  3.85070E+01  1.320E-01  2.000E+01  2.000E+04 -1.263E-02
   1   14   22     2     9    6.2239E+04  1.6638E+03   6.0575E+04  0.000E+00  0.000E+00  0.000E+00  3.82561E+01  1.311E-01  2.000E+01  2.000E+04  8.319E-02
   1   14   22     3     1    1.8611E+05 -8.8123E+03   1.9492E+05  0.000E+00  0.000E+00  0.000E+00  3.77323E+01  1.767E-01  2.000E+01  2.000E+04 -4.406E-01
   1   15   23     3     2    1.9492E+05 -6.5411E+02   1.9557E+05  0.000E+00  0.000E+00  0.000E+00  3.68460E+01  1.793E-01  2.000E+01  2.000E+04 -3.271E-02
   1   15   24     3     3    1.9557E+05 -3.4206E+02   1.9592E+05  0.000E+00  0.000E+00  0.000E+00  3.59574E+01  1.796E-01  2.000E+01  2.000E+04 -1.710E-02
   1   15   25     3     4    1.9592E+05 -3.3251E+02   1.9625E+05  0.000E+00  0.000E+00  0.000E+00  3.50687E+01  1.798E-01  2.000E+01  2.000E+04 -1.663E-02
   1   15   26     3     5    1.9625E+05 -3.6983E+02   1.9662E+05  0.000E+00  0.000E+00  0.000E+00  3.41800E+01  1.800E-01  2.000E+01  2.000E+04 -1.849E-02
   1   16   27     3     6    1.9662E+05 -4.3350E+02   1.9705E+05  0.000E+00  0.000E+00  0.000E+00  3.32913E+01  1.802E-01  2.000E+01  2.000E+04 -2.168E-02
   1   17   28     3     7    1.9705E+05 -1.8450E+03   1.9890E+05  0.000E+00  0.000E+00  0.000E+00  3.24031E+01  1.808E-01  2.000E+01  2.000E+04 -9.225E-02
   1   18   29     3     8    1.9890E+05 -3.5295E+03   2.0243E+05  0.000E+00  0.000E+00  0.000E+00  3.15156E+01  1.823E-01  2.000E+01  2.000E+04 -1.765E-01
   1   18   30     3     9    2.0243E+05 -3.5434E+03   2.0597E+05  0.000E+00  0.000E+00  0.000E+00  3.06287E+01  1.842E-01  2.000E+01  2.000E+04 -1.772E-01



1
              HEAD IN LAYER   1 AT END OF TIME STEP   1 IN STRESS PERIOD    3
  ---------------------------------------------------------------------------

          1      2      3      4      5      6      7      8      9     10
         11     12     13     14     15     16     17     18     19     20
         21     22     23     24     25     26     27     28     29     30
 .........................................................................
   1  ****** ****** ****** ****** ****** ****** ****** ****** ****** ******
      ****** ****** ****** ****** ****** ****** ****** ****** ****** ******
      ****** ****** ****** ****** ****** ****** ****** ****** ****** ******
   2  ****** ****** ****** ****** ****** ****** ****** ****** ****** ******
      ****** ****** ****** ****** ****** ****** ****** ****** ****** ******
      ****** ****** ****** ****** ****** ****** ****** ****** ****** ******
   3  ****** ****** ****** ****** ****** ****** ****** ****** ****** ******
      ****** ****** ****** ****** ****** ****** ****** ****** ****** ******
      ****** ****** ****** ****** ****** ****** ****** ****** ****** ******
   4  ****** ****** ****** ****** ****** ****** ****** ****** ****** ******
      ****** ****** ****** ****** ****** ****** ****** ****** ****** ******
      ****** ****** ****** ****** ****** ****** ****** ****** ****** ******
   5  ****** ****** ****** ****** ****** ****** ****** ****** ****** ******
      ****** ****** ****** ****** ****** ****** ****** ****** ****** ******
      ****** ****** ****** ****** ****** ****** ****** ****** ****** ******
   6  ****** ****** ****** ****** ****** ****** ****** ****** ****** ******
      ****** ****** ****** ****** ****** ****** ****** ****** ****** ******
      ****** ****** ****** ****** ****** ****** ****** ****** ****** ******
   7  ****** ****** ****** ****** ****** ****** ****** ****** ****** ******
      ****** ****** ****** ****** ****** ****** ****** ****** ****** ******
      ****** ****** ****** ****** ****** ****** ****** ****** ****** ******
   8  ****** ****** ****** ****** ****** ****** ****** ****** ****** ******
      ****** ****** ****** ****** ****** ****** ****** ****** ****** ******
      ****** ****** ****** ****** ****** ****** ****** ****** ****** ******
   9  ****** ****** ****** ****** ****** ****** ****** ****** ****** ******
      ****** ****** ****** ****** ****** ****** ****** ****** ****** ******
      ****** ****** ****** ****** ****** ****** ****** ****** ****** ******
  10  ****** ****** ****** ****** ****** ****** ****** ****** ****** ******
      ****** ****** ****** ****** ****** ****** ****** ****** ****** ******
      ****** ****** ****** ****** ****** ****** ****** ****** ****** ******
  11  ****** ****** ****** ****** ****** ****** ****** ****** ****** ******
      ****** ****** ****** ****** ****** ****** ****** ****** ****** ******
      ****** ****** ****** ****** ****** ****** ****** ****** ****** ******
  12  ****** ****** ****** ****** ****** ****** ****** ****** ****** ******
      ****** ****** ****** ****** ****** ****** ****** ****** ****** ******
      ****** ****** ****** ****** ****** ****** ****** ****** ****** ******
  13  ****** ****** ****** ****** ****** ****** ****** ****** ****** ******
      ****** ****** ****** ****** ****** ****** ****** ****** ****** ******
      ****** ****** ****** ****** ****** ****** ****** ****** ****** ******
  14  ****** ****** ****** ****** ****** ****** ****** ****** ****** ******
      ****** ****** ****** ****** ****** ****** ****** ****** ****** ******
      ****** ****** ****** ****** ****** ****** ****** ****** ****** ******
  15  ****** ****** ****** ****** ****** ****** ****** ****** ****** ******
      ****** ****** ****** ****** ****** ****** ****** ****** ****** ******
      ****** ****** ****** ****** ****** ****** ****** ****** ****** ******
  16  ****** ****** ****** ****** ****** ****** ****** ****** ****** ******
      ****** ****** ****** ****** ****** ****** ****** ****** ****** ******
      ****** ****** ****** ****** ****** ****** ****** ****** ****** ******
  17  ****** ****** ****** ****** ****** ****** ****** ****** ****** ******
      ****** ****** ****** ****** ****** ****** ****** ****** ****** ******
      ****** ****** ****** ****** ****** ****** ****** ****** ****** ******
  18  ****** ****** ****** ****** ****** ****** ****** ****** ****** ******
      ****** ****** ****** ****** ****** ****** ****** ****** ****** ******
      ****** ****** ****** ****** ****** ****** ****** ****** ****** ******
  19  ****** ****** ****** ****** ****** ****** ****** ****** ****** ******
      ****** ****** ****** ****** ****** ****** ****** ****** ****** ******
      ****** ****** ****** ****** ****** ****** ****** ****** ****** ******
  20  ****** ****** ****** ****** ****** ****** ****** ****** ****** ******
      ****** ****** ****** ****** ****** ****** ****** ****** ****** ******
      ****** ****** ****** ****** ****** ****** ****** ****** ****** ******
  21  ****** ****** ****** ****** ****** ****** ****** ****** ****** ******
      ****** ****** ****** ****** ****** ****** ****** ****** ****** ******
      ****** ****** ****** ****** ****** ****** ****** ****** ****** ******
  22  ****** ****** ****** ****** ****** ****** ****** ****** ****** ******
      ****** ****** ****** ****** ****** ****** ****** ****** ****** ******
      ****** ****** ****** ****** ****** ****** ****** ****** ****** ******
  23  ****** ****** ****** ****** ****** ****** ****** ****** ****** ******
      ****** ****** ****** ****** ****** ****** ****** ****** ****** ******
      ****** ****** ****** ****** ****** ****** ****** ****** ****** ******
  24  ****** ****** ****** ****** ****** ****** ****** ****** ****** ******
      ****** ****** ****** ****** ****** ****** ****** ****** ****** ******
      ****** ****** ****** ****** ****** ****** ****** ****** ****** ******
  25  ****** ****** ****** ****** ****** ****** ****** ****** ****** ******
      ****** ****** ****** ****** ****** ****** ****** ****** ****** ******
      ****** ****** ****** ****** ****** ****** ****** ****** ****** ******

 HEAD WILL BE SAVED ON UNIT   51 AT END OF TIME STEP    1, STRESS PERIOD    3
1
  VOLUMETRIC BUDGET FOR ENTIRE MODEL AT END OF TIME STEP    1, STRESS PERIOD   3
  ------------------------------------------------------------------------------

     CUMULATIVE VOLUMES      L**3       RATES FOR THIS TIME STEP      L**3/T
     ------------------                 ------------------------

           IN:                                      IN:
           ---                                      ---
             STORAGE =    27583803.1725               STORAGE =       55400.8043
       CONSTANT HEAD =     5155221.8479         CONSTANT HEAD =       26139.8499
               WELLS =           0.0000                 WELLS =           0.0000
            RECHARGE =     6292800.0000              RECHARGE =           0.0000
      STREAM LEAKAGE =     1427170.8945        STREAM LEAKAGE =        6331.8399

            TOTAL IN =    40458995.9148              TOTAL IN =       87872.4940

          OUT:                                     OUT:
          ----                                     ----
             STORAGE =           0.0000               STORAGE =           0.0000
       CONSTANT HEAD =           0.0000         CONSTANT HEAD =           0.0000
               WELLS =     7006188.1128                 WELLS =       25570.0296
            RECHARGE =           0.0000              RECHARGE =           0.0000
      STREAM LEAKAGE =    33452809.8469        STREAM LEAKAGE =       62302.4723

           TOTAL OUT =    40458997.9597             TOTAL OUT =       87872.5019

            IN - OUT =          -2.0449              IN - OUT =      -7.9215E-03

 PERCENT DISCREPANCY =          -0.00     PERCENT DISCREPANCY =          -0.00






         TIME SUMMARY AT END OF TIME STEP    1 IN STRESS PERIOD    3
                    SECONDS     MINUTES      HOURS       DAYS        YEARS
                    -----------------------------------------------------------
   TIME STEP LENGTH 7.86240E+06 1.31040E+05  2184.0      91.000     0.24914    
 STRESS PERIOD TIME 7.86240E+06 1.31040E+05  2184.0      91.000     0.24914    
         TOTAL TIME 2.36736E+07 3.94560E+05  6576.0      274.00     0.75017    
1
1
                            STRESS PERIOD NO.    4, LENGTH =   91.00000    
                            -----------------------------------------------

                              NUMBER OF TIME STEPS =     1

                               MULTIPLIER FOR DELT =     1.500

                            INITIAL TIME STEP SIZE =   91.00000    

 WELL NO.  LAYER   ROW   COL   STRESS RATE         
 --------------------------------------------------
      1      1     16      2      -8562.    
      2      1     23     16      -2065.    
      3      1     13     14      -6003.    
      4      1      6     16      -8940.    

      4 WELLS

                 RECHARGE =  1.000000E-03

 REUSING STREAM SEGMENT DATA FROM LAST STRESS PERIOD
 
 SOLVING FOR HEAD 


     6 CALLS TO PCG ROUTINE FOR TIME STEP   1 IN STRESS PERIOD    4
    23 TOTAL ITERATIONS

 OUTPUT CONTROL FOR STRESS PERIOD    4   TIME STEP    1
    SAVE BUDGET
    SAVE HEAD FOR ALL LAYERS
    PRINT HEAD FOR ALL LAYERS
 UBDSV2 SAVING "STREAMFLOW OUT  " ON UNIT  50 AT TIME STEP  1, STRESS PERIOD   4



 STREAM LISTING     PERIOD      4   STEP        1

 LAYER ROW COL. STREAM  RCH.  FLOW INTO     FLOW TO   FLOW OUT OF   OVRLND.     DIRECT     STREAM       STREAM     STREAM     STREAM   STREAMBED  STREAMBED
                SEG.NO.  NO.  STRM. RCH.    AQUIFER    STRM. RCH.    RUNOFF     PRECIP       ET          HEAD       DEPTH      WIDTH   CONDCTNC.   GRADIENT

   1   13    1     1     1    1.0000E+05 -9.5621E+02   1.0096E+05  0.000E+00  0.000E+00  0.000E+00  4.84064E+01  1.451E-01  2.000E+01  2.000E+04 -4.781E-02
   1   13    2     1     2    1.0096E+05 -2.0072E+03   1.0296E+05  0.000E+00  0.000E+00  0.000E+00  4.79304E+01  1.463E-01  2.000E+01  2.000E+04 -1.004E-01
   1   14    3     1     3    1.0296E+05 -1.2217E+02   1.0309E+05  0.000E+00  0.000E+00  0.000E+00  4.74541E+01  1.473E-01  2.000E+01  2.000E+04 -6.109E-03
   1   15    4     1     4    1.0309E+05 -8.7960E+01   1.0317E+05  0.000E+00  0.000E+00  0.000E+00  4.69769E+01  1.474E-01  2.000E+01  2.000E+04 -4.398E-03
   1   16    5     1     5    1.0317E+05  1.4504E+02   1.0303E+05  0.000E+00  0.000E+00  0.000E+00  4.64996E+01  1.473E-01  2.000E+01  2.000E+04  7.252E-03
   1   16    6     1     6    1.0303E+05 -8.4309E+02   1.0387E+05  0.000E+00  0.000E+00  0.000E+00  4.60226E+01  1.476E-01  2.000E+01  2.000E+04 -4.215E-02
   1   16    7     1     7    1.0387E+05 -1.0214E+03   1.0489E+05  0.000E+00  0.000E+00  0.000E+00  4.55462E+01  1.484E-01  2.000E+01  2.000E+04 -5.107E-02
   1   16    8     1     8    1.0489E+05 -1.1039E+03   1.0600E+05  0.000E+00  0.000E+00  0.000E+00  4.50698E+01  1.493E-01  2.000E+01  2.000E+04 -5.520E-02
   1   16    9     1     9    1.0600E+05 -1.1391E+03   1.0714E+05  0.000E+00  0.000E+00  0.000E+00  4.45935E+01  1.503E-01  2.000E+01  2.000E+04 -5.696E-02
   1   16   10     1    10    1.0714E+05 -1.1436E+03   1.0828E+05  0.000E+00  0.000E+00  0.000E+00  4.41172E+01  1.512E-01  2.000E+01  2.000E+04 -5.718E-02
   1   16   11     1    11    1.0828E+05 -1.1484E+03   1.0943E+05  0.000E+00  0.000E+00  0.000E+00  4.36408E+01  1.522E-01  2.000E+01  2.000E+04 -5.742E-02
   1   16   12     1    12    1.0943E+05 -1.9321E+03   1.1136E+05  0.000E+00  0.000E+00  0.000E+00  4.31649E+01  1.535E-01  2.000E+01  2.000E+04 -9.660E-02
   1   15   13     1    13    1.1136E+05 -1.5552E+03   1.1292E+05  0.000E+00  0.000E+00  0.000E+00  4.26890E+01  1.549E-01  2.000E+01  2.000E+04 -7.776E-02
   1   14   14     1    14    1.1292E+05 -8.4666E+01   1.1300E+05  0.000E+00  0.000E+00  0.000E+00  4.22124E+01  1.556E-01  2.000E+01  2.000E+04 -4.233E-03
   1   13   15     1    15    1.1300E+05 -3.0270E+02   1.1330E+05  0.000E+00  0.000E+00  0.000E+00  4.17353E+01  1.558E-01  2.000E+01  2.000E+04 -1.514E-02
   1   12   16     1    16    1.1330E+05 -2.3906E+03   1.1569E+05  0.000E+00  0.000E+00  0.000E+00  4.12592E+01  1.569E-01  2.000E+01  2.000E+04 -1.195E-01
   1   12   17     1    17    1.1569E+05 -1.7709E+03   1.1746E+05  0.000E+00  0.000E+00  0.000E+00  4.07836E+01  1.586E-01  2.000E+01  2.000E+04 -8.855E-02
   1   12   18     1    18    1.1746E+05 -1.7558E+03   1.1922E+05  0.000E+00  0.000E+00  0.000E+00  4.03078E+01  1.600E-01  2.000E+01  2.000E+04 -8.779E-02
   1   12   19     1    19    1.1922E+05 -2.3314E+03   1.2155E+05  0.000E+00  0.000E+00  0.000E+00  3.98321E+01  1.617E-01  2.000E+01  2.000E+04 -1.166E-01
   1   13   20     1    20    1.2155E+05 -1.9801E+03   1.2353E+05  0.000E+00  0.000E+00  0.000E+00  3.93566E+01  1.634E-01  2.000E+01  2.000E+04 -9.901E-02
   1   14   21     1    21    1.2353E+05 -1.9764E+03   1.2551E+05  0.000E+00  0.000E+00  0.000E+00  3.88809E+01  1.650E-01  2.000E+01  2.000E+04 -9.882E-02
   1   14   22     1    22    1.2551E+05  4.6986E+03   1.2081E+05  0.000E+00  0.000E+00  0.000E+00  3.84025E+01  1.639E-01  2.000E+01  2.000E+04  2.349E-01
   1    9   30     2     1    5.0000E+04 -8.2045E+02   5.0820E+04  0.000E+00  0.000E+00  0.000E+00  4.02414E+01  1.164E-01  2.000E+01  2.000E+04 -4.102E-02
   1    9   29     2     2    5.0820E+04 -1.1181E+03   5.1939E+04  0.000E+00  0.000E+00  0.000E+00  3.99928E+01  1.178E-01  2.000E+01  2.000E+04 -5.591E-02
   1    9   28     2     3    5.1939E+04 -1.3714E+03   5.3310E+04  0.000E+00  0.000E+00  0.000E+00  3.97445E+01  1.195E-01  2.000E+01  2.000E+04 -6.857E-02
   1    9   27     2     4    5.3310E+04 -2.6813E+03   5.5991E+04  0.000E+00  0.000E+00  0.000E+00  3.94972E+01  1.222E-01  2.000E+01  2.000E+04 -1.341E-01
   1   10   26     2     5    5.5991E+04 -1.8140E+03   5.7805E+04  0.000E+00  0.000E+00  0.000E+00  3.92502E+01  1.252E-01  2.000E+01  2.000E+04 -9.070E-02
   1   11   25     2     6    5.7805E+04 -1.5727E+03   5.9378E+04  0.000E+00  0.000E+00  0.000E+00  3.90024E+01  1.274E-01  2.000E+01  2.000E+04 -7.863E-02
   1   12   24     2     7    5.9378E+04 -1.6088E+03   6.0987E+04  0.000E+00  0.000E+00  0.000E+00  3.87545E+01  1.295E-01  2.000E+01  2.000E+04 -8.044E-02
   1   13   23     2     8    6.0987E+04 -2.7601E+02   6.1263E+04  0.000E+00  0.000E+00  0.000E+00  3.85057E+01  1.307E-01  2.000E+01  2.000E+04 -1.380E-02
   1   14   22     2     9    6.1263E+04  1.7430E+03   5.9520E+04  0.000E+00  0.000E+00  0.000E+00  3.82548E+01  1.298E-01  2.000E+01  2.000E+04  8.715E-02
   1   14   22     3     1    1.8033E+05 -8.7720E+03   1.8910E+05  0.000E+00  0.000E+00  0.000E+00  3.77290E+01  1.735E-01  2.000E+01  2.000E+04 -4.386E-01
   1   15   23     3     2    1.8910E+05 -6.3268E+02   1.8973E+05  0.000E+00  0.000E+00  0.000E+00  3.68428E+01  1.761E-01  2.000E+01  2.000E+04 -3.163E-02
   1   15   24     3     3    1.8973E+05 -3.4269E+02   1.9008E+05  0.000E+00  0.000E+00  0.000E+00  3.59541E+01  1.764E-01  2.000E+01  2.000E+04 -1.713E-02
   1   15   25     3     4    1.9008E+05 -3.3289E+02   1.9041E+05  0.000E+00  0.000E+00  0.000E+00  3.50654E+01  1.766E-01  2.000E+01  2.000E+04 -1.664E-02
   1   15   26     3     5    1.9041E+05 -3.7971E+02   1.9079E+05  0.000E+00  0.000E+00  0.000E+00  3.41768E+01  1.768E-01  2.000E+01  2.000E+04 -1.899E-02
   1   16   27     3     6    1.9079E+05 -4.3515E+02   1.9122E+05  0.000E+00  0.000E+00  0.000E+00  3.32881E+01  1.770E-01  2.000E+01  2.000E+04 -2.176E-02
   1   17   28     3     7    1.9122E+05 -1.7859E+03   1.9301E+05  0.000E+00  0.000E+00  0.000E+00  3.23998E+01  1.776E-01  2.000E+01  2.000E+04 -8.929E-02
   1   18   29     3     8    1.9301E+05 -3.3207E+03   1.9633E+05  0.000E+00  0.000E+00  0.000E+00  3.15123E+01  1.790E-01  2.000E+01  2.000E+04 -1.660E-01
   1   18   30     3     9    1.9633E+05 -3.4408E+03   1.9977E+05  0.000E+00  0.000E+00  0.000E+00  3.06253E+01  1.809E-01  2.000E+01  2.000E+04 -1.720E-01



1
              HEAD IN LAYER   1 AT END OF TIME STEP   1 IN STRESS PERIOD    4
  ---------------------------------------------------------------------------

          1      2      3      4      5      6      7      8      9     10
         11     12     13     14     15     16     17     18     19     20
         21     22     23     24     25     26     27     28     29     30
 .........................................................................
   1  ****** ****** ****** ****** ****** ****** ****** ****** ****** ******
      ****** ****** ****** ****** ****** ****** ****** ****** ****** ******
      ****** ****** ****** ****** ****** ****** ****** ****** ****** ******
   2  ****** ****** ****** ****** ****** ****** ****** ****** ****** ******
      ****** ****** ****** ****** ****** ****** ****** ****** ****** ******
      ****** ****** ****** ****** ****** ****** ****** ****** ****** ******
   3  ****** ****** ****** ****** ****** ****** ****** ****** ****** ******
      ****** ****** ****** ****** ****** ****** ****** ****** ****** ******
      ****** ****** ****** ****** ****** ****** ****** ****** ****** ******
   4  ****** ****** ****** ****** ****** ****** ****** ****** ****** ******
      ****** ****** ****** ****** ****** ****** ****** ****** ****** ******
      ****** ****** ****** ****** ****** ****** ****** ****** ****** ******
   5  ****** ****** ****** ****** ****** ****** ****** ****** ****** ******
      ****** ****** ****** ****** ****** ****** ****** ****** ****** ******
      ****** ****** ****** ****** ****** ****** ****** ****** ****** ******
   6  ****** ****** ****** ****** ****** ****** ****** ****** ****** ******
      ****** ****** ****** ****** ****** ****** ****** ****** ****** ******
      ****** ****** ****** ****** ****** ****** ****** ****** ****** ******
   7  ****** ****** ****** ****** ****** ****** ****** ****** ****** ******
      ****** ****** ****** ****** ****** ****** ****** ****** ****** ******
      ****** ****** ****** ****** ****** ****** ****** ****** ****** ******
   8  ****** ****** ****** ****** ****** ****** ****** ****** ****** ******
      ****** ****** ****** ****** ****** ****** ****** ****** ****** ******
      ****** ****** ****** ****** ****** ****** ****** ****** ****** ******
   9  ****** ****** ****** ****** ****** ****** ****** ****** ****** ******
      ****** ****** ****** ****** ****** ****** ****** ****** ****** ******
      ****** ****** ****** ****** ****** ****** ****** ****** ****** ******
  10  ****** ****** ****** ****** ****** ****** ****** ****** ****** ******
      ****** ****** ****** ****** ****** ****** ****** ****** ****** ******
      ****** ****** ****** ****** ****** ****** ****** ****** ****** ******
  11  ****** ****** ****** ****** ****** ****** ****** ****** ****** ******
      ****** ****** ****** ****** ****** ****** ****** ****** ****** ******
      ****** ****** ****** ****** ****** ****** ****** ****** ****** ******
  12  ****** ****** ****** ****** ****** ****** ****** ****** ****** ******
      ****** ****** ****** ****** ****** ****** ****** ****** ****** ******
      ****** ****** ****** ****** ****** ****** ****** ****** ****** ******
  13  ****** ****** ****** ****** ****** ****** ****** ****** ****** ******
      ****** ****** ****** ****** ****** ****** ****** ****** ****** ******
      ****** ****** ****** ****** ****** ****** ****** ****** ****** ******
  14  ****** ****** ****** ****** ****** ****** ****** ****** ****** ******
      ****** ****** ****** ****** ****** ****** ****** ****** ****** ******
      ****** ****** ****** ****** ****** ****** ****** ****** ****** ******
  15  ****** ****** ****** ****** ****** ****** ****** ****** ****** ******
      ****** ****** ****** ****** ****** ****** ****** ****** ****** ******
      ****** ****** ****** ****** ****** ****** ****** ****** ****** ******
  16  ****** ****** ****** ****** ****** ****** ****** ****** ****** ******
      ****** ****** ****** ****** ****** ****** ****** ****** ****** ******
      ****** ****** ****** ****** ****** ****** ****** ****** ****** ******
  17  ****** ****** ****** ****** ****** ****** ****** ****** ****** ******
      ****** ****** ****** ****** ****** ****** ****** ****** ****** ******
      ****** ****** ****** ****** ****** ****** ****** ****** ****** ******
  18  ****** ****** ****** ****** ****** ****** ****** ****** ****** ******
      ****** ****** ****** ****** ****** ****** ****** ****** ****** ******
      ****** ****** ****** ****** ****** ****** ****** ****** ****** ******
  19  ****** ****** ****** ****** ****** ****** ****** ****** ****** ******
      ****** ****** ****** ****** ****** ****** ****** ****** ****** ******
      ****** ****** ****** ****** ****** ****** ****** ****** ****** ******
  20  ****** ****** ****** ****** ****** ****** ****** ****** ****** ******
      ****** ****** ****** ****** ****** ****** ****** ****** ****** ******
      ****** ****** ****** ****** ****** ****** ****** ****** ****** ******
  21  ****** ****** ****** ****** ****** ****** ****** ****** ****** ******
      ****** ****** ****** ****** ****** ****** ****** ****** ****** ******
      ****** ****** ****** ****** ****** ****** ****** ****** ****** ******
  22  ****** ****** ****** ****** ****** ****** ****** ****** ****** ******
      ****** ****** ****** ****** ****** ****** ****** ****** ****** ******
      ****** ****** ****** ****** ****** ****** ****** ****** ****** ******
  23  ****** ****** ****** ****** ****** ****** ****** ****** ****** ******
      ****** ****** ****** ****** ****** ****** ****** ****** ****** ******
      ****** ****** ****** ****** ****** ****** ****** ****** ****** ******
  24  ****** ****** ****** ****** ****** ****** ****** ****** ****** ******
      ****** ****** ****** ****** ****** ****** ****** ****** ****** ******
      ****** ****** ****** ****** ****** ****** ****** ****** ****** ******
  25  ****** ****** ****** ****** ****** ****** ****** ****** ****** ******
      ****** ****** ****** ****** ****** ****** ****** ****** ****** ******
      ****** ****** ****** ****** ****** ****** ****** ****** ****** ******

 HEAD WILL BE SAVED ON UNIT   51 AT END OF TIME STEP    1, STRESS PERIOD    4
1
  VOLUMETRIC BUDGET FOR ENTIRE MODEL AT END OF TIME STEP    1, STRESS PERIOD   4
  ------------------------------------------------------------------------------

     CUMULATIVE VOLUMES      L**3       RATES FOR THIS TIME STEP      L**3/T
     ------------------                 ------------------------

           IN:                                      IN:
           ---                                      ---
             STORAGE =    29308812.1624               STORAGE =       18956.1427
       CONSTANT HEAD =     7775934.4054         CONSTANT HEAD =       28799.0391
               WELLS =           0.0000                 WELLS =           0.0000
            RECHARGE =     8804400.0000              RECHARGE =       27600.0000
      STREAM LEAKAGE =     2026554.1297        STREAM LEAKAGE =        6586.6290

            TOTAL IN =    47915700.6975              TOTAL IN =       81941.8108

          OUT:                                     OUT:
          ----                                     ----
             STORAGE =        1224.7815               STORAGE =          13.4591
       CONSTANT HEAD =           0.0000         CONSTANT HEAD =           0.0000
               WELLS =     9333060.8072                 WELLS =       25570.0296
            RECHARGE =           0.0000              RECHARGE =           0.0000
      STREAM LEAKAGE =    38581417.2399        STREAM LEAKAGE =       56358.3230

           TOTAL OUT =    47915702.8287             TOTAL OUT =       81941.8117

            IN - OUT =          -2.1311              IN - OUT =      -9.4760E-04

 PERCENT DISCREPANCY =          -0.00     PERCENT DISCREPANCY =          -0.00






         TIME SUMMARY AT END OF TIME STEP    1 IN STRESS PERIOD    4
                    SECONDS     MINUTES      HOURS       DAYS        YEARS
                    -----------------------------------------------------------
   TIME STEP LENGTH 7.86240E+06 1.31040E+05  2184.0      91.000     0.24914    
 STRESS PERIOD TIME 7.86240E+06 1.31040E+05  2184.0      91.000     0.24914    
         TOTAL TIME 3.15360E+07 5.25600E+05  8760.0      365.00     0.99932    
1
1
                            STRESS PERIOD NO.    5, LENGTH =   92.00000    
                            -----------------------------------------------

                              NUMBER OF TIME STEPS =     1

                               MULTIPLIER FOR DELT =     1.500

                            INITIAL TIME STEP SIZE =   92.00000    

 WELL NO.  LAYER   ROW   COL   STRESS RATE         
 --------------------------------------------------
      1      1     16      2      -8562.    
      2      1     23     16      -2065.    
      3      1     13     14      -6003.    
      4      1      6     16      -8940.    

      4 WELLS

                 RECHARGE =  5.000000E-04

 REUSING STREAM SEGMENT DATA FROM LAST STRESS PERIOD
 
 SOLVING FOR HEAD 


     7 CALLS TO PCG ROUTINE FOR TIME STEP   1 IN STRESS PERIOD    5
    26 TOTAL ITERATIONS

 OUTPUT CONTROL FOR STRESS PERIOD    5   TIME STEP    1
    SAVE BUDGET
    SAVE HEAD FOR ALL LAYERS
    PRINT HEAD FOR ALL LAYERS
 UBDSV2 SAVING "STREAMFLOW OUT  " ON UNIT  50 AT TIME STEP  1, STRESS PERIOD   5



 STREAM LISTING     PERIOD      5   STEP        1

 LAYER ROW COL. STREAM  RCH.  FLOW INTO     FLOW TO   FLOW OUT OF   OVRLND.     DIRECT     STREAM       STREAM     STREAM     STREAM   STREAMBED  STREAMBED
                SEG.NO.  NO.  STRM. RCH.    AQUIFER    STRM. RCH.    RUNOFF     PRECIP       ET          HEAD       DEPTH      WIDTH   CONDCTNC.   GRADIENT

   1   13    1     1     1    1.0000E+05 -5.2012E+02   1.0052E+05  0.000E+00  0.000E+00  0.000E+00  4.84062E+01  1.449E-01  2.000E+01  2.000E+04 -2.601E-02
   1   13    2     1     2    1.0052E+05 -1.5158E+03   1.0204E+05  0.000E+00  0.000E+00  0.000E+00  4.79298E+01  1.458E-01  2.000E+01  2.000E+04 -7.579E-02
   1   14    3     1     3    1.0204E+05  4.4458E+00   1.0203E+05  0.000E+00  0.000E+00  0.000E+00  4.74532E+01  1.464E-01  2.000E+01  2.000E+04  2.223E-04
   1   15    4     1     4    1.0203E+05  4.5799E+01   1.0199E+05  0.000E+00  0.000E+00  0.000E+00  4.69759E+01  1.464E-01  2.000E+01  2.000E+04  2.290E-03
   1   16    5     1     5    1.0199E+05  6.0159E+02   1.0138E+05  0.000E+00  0.000E+00  0.000E+00  4.64984E+01  1.461E-01  2.000E+01  2.000E+04  3.008E-02
   1   16    6     1     6    1.0138E+05 -5.7947E+02   1.0196E+05  0.000E+00  0.000E+00  0.000E+00  4.60211E+01  1.461E-01  2.000E+01  2.000E+04 -2.897E-02
   1   16    7     1     7    1.0196E+05 -7.7016E+02   1.0273E+05  0.000E+00  0.000E+00  0.000E+00  4.55444E+01  1.467E-01  2.000E+01  2.000E+04 -3.851E-02
   1   16    8     1     8    1.0273E+05 -8.5774E+02   1.0359E+05  0.000E+00  0.000E+00  0.000E+00  4.50678E+01  1.474E-01  2.000E+01  2.000E+04 -4.289E-02
   1   16    9     1     9    1.0359E+05 -8.9715E+02   1.0449E+05  0.000E+00  0.000E+00  0.000E+00  4.45913E+01  1.481E-01  2.000E+01  2.000E+04 -4.486E-02
   1   16   10     1    10    1.0449E+05 -9.0634E+02   1.0539E+05  0.000E+00  0.000E+00  0.000E+00  4.41148E+01  1.489E-01  2.000E+01  2.000E+04 -4.532E-02
   1   16   11     1    11    1.0539E+05 -9.1221E+02   1.0631E+05  0.000E+00  0.000E+00  0.000E+00  4.36383E+01  1.497E-01  2.000E+01  2.000E+04 -4.561E-02
   1   16   12     1    12    1.0631E+05 -1.5114E+03   1.0782E+05  0.000E+00  0.000E+00  0.000E+00  4.31621E+01  1.507E-01  2.000E+01  2.000E+04 -7.557E-02
   1   15   13     1    13    1.0782E+05 -1.1099E+03   1.0893E+05  0.000E+00  0.000E+00  0.000E+00  4.26859E+01  1.518E-01  2.000E+01  2.000E+04 -5.549E-02
   1   14   14     1    14    1.0893E+05  3.9151E+02   1.0854E+05  0.000E+00  0.000E+00  0.000E+00  4.22089E+01  1.521E-01  2.000E+01  2.000E+04  1.958E-02
   1   13   15     1    15    1.0854E+05  1.9455E+02   1.0834E+05  0.000E+00  0.000E+00  0.000E+00  4.17314E+01  1.519E-01  2.000E+01  2.000E+04  9.728E-03
   1   12   16     1    16    1.0834E+05 -1.8394E+03   1.1018E+05  0.000E+00  0.000E+00  0.000E+00  4.12548E+01  1.525E-01  2.000E+01  2.000E+04 -9.197E-02
   1   12   17     1    17    1.1018E+05 -1.4050E+03   1.1159E+05  0.000E+00  0.000E+00  0.000E+00  4.07789E+01  1.539E-01  2.000E+01  2.000E+04 -7.025E-02
   1   12   18     1    18    1.1159E+05 -1.4089E+03   1.1300E+05  0.000E+00  0.000E+00  0.000E+00  4.03028E+01  1.551E-01  2.000E+01  2.000E+04 -7.045E-02
   1   12   19     1    19    1.1300E+05 -1.9107E+03   1.1491E+05  0.000E+00  0.000E+00  0.000E+00  3.98269E+01  1.564E-01  2.000E+01  2.000E+04 -9.553E-02
   1   13   20     1    20    1.1491E+05 -1.6216E+03   1.1653E+05  0.000E+00  0.000E+00  0.000E+00  3.93511E+01  1.579E-01  2.000E+01  2.000E+04 -8.108E-02
   1   14   21     1    21    1.1653E+05 -1.6005E+03   1.1813E+05  0.000E+00  0.000E+00  0.000E+00  3.88751E+01  1.592E-01  2.000E+01  2.000E+04 -8.002E-02
   1   14   22     1    22    1.1813E+05  4.7741E+03   1.1335E+05  0.000E+00  0.000E+00  0.000E+00  3.83965E+01  1.579E-01  2.000E+01  2.000E+04  2.387E-01
   1    9   30     2     1    5.0000E+04 -5.8711E+02   5.0587E+04  0.000E+00  0.000E+00  0.000E+00  4.02413E+01  1.163E-01  2.000E+01  2.000E+04 -2.936E-02
   1    9   29     2     2    5.0587E+04 -8.8094E+02   5.1468E+04  0.000E+00  0.000E+00  0.000E+00  3.99923E+01  1.173E-01  2.000E+01  2.000E+04 -4.405E-02
   1    9   28     2     3    5.1468E+04 -1.1215E+03   5.2590E+04  0.000E+00  0.000E+00  0.000E+00  3.97437E+01  1.187E-01  2.000E+01  2.000E+04 -5.608E-02
   1    9   27     2     4    5.2590E+04 -2.2847E+03   5.4874E+04  0.000E+00  0.000E+00  0.000E+00  3.94960E+01  1.210E-01  2.000E+01  2.000E+04 -1.142E-01
   1   10   26     2     5    5.4874E+04 -1.4676E+03   5.6342E+04  0.000E+00  0.000E+00  0.000E+00  3.92485E+01  1.235E-01  2.000E+01  2.000E+04 -7.338E-02
   1   11   25     2     6    5.6342E+04 -1.2544E+03   5.7596E+04  0.000E+00  0.000E+00  0.000E+00  3.90003E+01  1.253E-01  2.000E+01  2.000E+04 -6.272E-02
   1   12   24     2     7    5.7596E+04 -1.3172E+03   5.8913E+04  0.000E+00  0.000E+00  0.000E+00  3.87520E+01  1.270E-01  2.000E+01  2.000E+04 -6.586E-02
   1   13   23     2     8    5.8913E+04 -2.0638E+02   5.9120E+04  0.000E+00  0.000E+00  0.000E+00  3.85030E+01  1.280E-01  2.000E+01  2.000E+04 -1.032E-02
   1   14   22     2     9    5.9120E+04  1.8810E+03   5.7239E+04  0.000E+00  0.000E+00  0.000E+00  3.82519E+01  1.269E-01  2.000E+01  2.000E+04  9.405E-02
   1   14   22     3     1    1.7059E+05 -8.6879E+03   1.7928E+05  0.000E+00  0.000E+00  0.000E+00  3.77234E+01  1.679E-01  2.000E+01  2.000E+04 -4.344E-01
   1   15   23     3     2    1.7928E+05 -5.3493E+02   1.7982E+05  0.000E+00  0.000E+00  0.000E+00  3.68372E+01  1.705E-01  2.000E+01  2.000E+04 -2.675E-02
   1   15   24     3     3    1.7982E+05 -2.7108E+02   1.8009E+05  0.000E+00  0.000E+00  0.000E+00  3.59485E+01  1.708E-01  2.000E+01  2.000E+04 -1.355E-02
   1   15   25     3     4    1.8009E+05 -2.6188E+02   1.8035E+05  0.000E+00  0.000E+00  0.000E+00  3.50598E+01  1.709E-01  2.000E+01  2.000E+04 -1.309E-02
   1   15   26     3     5    1.8035E+05 -3.0781E+02   1.8066E+05  0.000E+00  0.000E+00  0.000E+00  3.41711E+01  1.711E-01  2.000E+01  2.000E+04 -1.539E-02
   1   16   27     3     6    1.8066E+05 -3.4496E+02   1.8100E+05  0.000E+00  0.000E+00  0.000E+00  3.32824E+01  1.713E-01  2.000E+01  2.000E+04 -1.725E-02
   1   17   28     3     7    1.8100E+05 -1.5189E+03   1.8252E+05  0.000E+00  0.000E+00  0.000E+00  3.23940E+01  1.718E-01  2.000E+01  2.000E+04 -7.595E-02
   1   18   29     3     8    1.8252E+05 -2.9485E+03   1.8547E+05  0.000E+00  0.000E+00  0.000E+00  3.15064E+01  1.731E-01  2.000E+01  2.000E+04 -1.474E-01
   1   18   30     3     9    1.8547E+05 -3.1844E+03   1.8865E+05  0.000E+00  0.000E+00  0.000E+00  3.06192E+01  1.748E-01  2.000E+01  2.000E+04 -1.592E-01



1
              HEAD IN LAYER   1 AT END OF TIME STEP   1 IN STRESS PERIOD    5
  ---------------------------------------------------------------------------

          1      2      3      4      5      6      7      8      9     10
         11     12     13     14     15     16     17     18     19     20
         21     22     23     24     25     26     27     28     29     30
 .........................................................................
   1  ****** ****** ****** ****** ****** ****** ****** ****** ****** ******
      ****** ****** ****** ****** ****** ****** ****** ****** ****** ******
      ****** ****** ****** ****** ****** ****** ****** ****** ****** ******
   2  ****** ****** ****** ****** ****** ****** ****** ****** ****** ******
      ****** ****** ****** ****** ****** ****** ****** ****** ****** ******
      ****** ****** ****** ****** ****** ****** ****** ****** ****** ******
   3  ****** ****** ****** ****** ****** ****** ****** ****** ****** ******
      ****** ****** ****** ****** ****** ****** ****** ****** ****** ******
      ****** ****** ****** ****** ****** ****** ****** ****** ****** ******
   4  ****** ****** ****** ****** ****** ****** ****** ****** ****** ******
      ****** ****** ****** ****** ****** ****** ****** ****** ****** ******
      ****** ****** ****** ****** ****** ****** ****** ****** ****** ******
   5  ****** ****** ****** ****** ****** ****** ****** ****** ****** ******
      ****** ****** ****** ****** ****** ****** ****** ****** ****** ******
      ****** ****** ****** ****** ****** ****** ****** ****** ****** ******
   6  ****** ****** ****** ****** ****** ****** ****** ****** ****** ******
      ****** ****** ****** ****** ****** ****** ****** ****** ****** ******
      ****** ****** ****** ****** ****** ****** ****** ****** ****** ******
   7  ****** ****** ****** ****** ****** ****** ****** ****** ****** ******
      ****** ****** ****** ****** ****** ****** ****** ****** ****** ******
      ****** ****** ****** ****** ****** ****** ****** ****** ****** ******
   8  ****** ****** ****** ****** ****** ****** ****** ****** ****** ******
      ****** ****** ****** ****** ****** ****** ****** ****** ****** ******
      ****** ****** ****** ****** ****** ****** ****** ****** ****** ******
   9  ****** ****** ****** ****** ****** ****** ****** ****** ****** ******
      ****** ****** ****** ****** ****** ****** ****** ****** ****** ******
      ****** ****** ****** ****** ****** ****** ****** ****** ****** ******
  10  ****** ****** ****** ****** ****** ****** ****** ****** ****** ******
      ****** ****** ****** ****** ****** ****** ****** ****** ****** ******
      ****** ****** ****** ****** ****** ****** ****** ****** ****** ******
  11  ****** ****** ****** ****** ****** ****** ****** ****** ****** ******
      ****** ****** ****** ****** ****** ****** ****** ****** ****** ******
      ****** ****** ****** ****** ****** ****** ****** ****** ****** ******
  12  ****** ****** ****** ****** ****** ****** ****** ****** ****** ******
      ****** ****** ****** ****** ****** ****** ****** ****** ****** ******
      ****** ****** ****** ****** ****** ****** ****** ****** ****** ******
  13  ****** ****** ****** ****** ****** ****** ****** ****** ****** ******
      ****** ****** ****** ****** ****** ****** ****** ****** ****** ******
      ****** ****** ****** ****** ****** ****** ****** ****** ****** ******
  14  ****** ****** ****** ****** ****** ****** ****** ****** ****** ******
      ****** ****** ****** ****** ****** ****** ****** ****** ****** ******
      ****** ****** ****** ****** ****** ****** ****** ****** ****** ******
  15  ****** ****** ****** ****** ****** ****** ****** ****** ****** ******
      ****** ****** ****** ****** ****** ****** ****** ****** ****** ******
      ****** ****** ****** ****** ****** ****** ****** ****** ****** ******
  16  ****** ****** ****** ****** ****** ****** ****** ****** ****** ******
      ****** ****** ****** ****** ****** ****** ****** ****** ****** ******
      ****** ****** ****** ****** ****** ****** ****** ****** ****** ******
  17  ****** ****** ****** ****** ****** ****** ****** ****** ****** ******
      ****** ****** ****** ****** ****** ****** ****** ****** ****** ******
      ****** ****** ****** ****** ****** ****** ****** ****** ****** ******
  18  ****** ****** ****** ****** ****** ****** ****** ****** ****** ******
      ****** ****** ****** ****** ****** ****** ****** ****** ****** ******
      ****** ****** ****** ****** ****** ****** ****** ****** ****** ******
  19  ****** ****** ****** ****** ****** ****** ****** ****** ****** ******
      ****** ****** ****** ****** ****** ****** ****** ****** ****** ******
      ****** ****** ****** ****** ****** ****** ****** ****** ****** ******
  20  ****** ****** ****** ****** ****** ****** ****** ****** ****** ******
      ****** ****** ****** ****** ****** ****** ****** ****** ****** ******
      ****** ****** ****** ****** ****** ****** ****** ****** ****** ******
  21  ****** ****** ****** ****** ****** ****** ****** ****** ****** ******
      ****** ****** ****** ****** ****** ****** ****** ****** ****** ******
      ****** ****** ****** ****** ****** ****** ****** ****** ****** ******
  22  ****** ****** ****** ****** ****** ****** ****** ****** ****** ******
      ****** ****** ****** ****** ****** ****** ****** ****** ****** ******
      ****** ****** ****** ****** ****** ****** ****** ****** ****** ******
  23  ****** ****** ****** ****** ****** ****** ****** ****** ****** ******
      ****** ****** ****** ****** ****** ****** ****** ****** ****** ******
      ****** ****** ****** ****** ****** ****** ****** ****** ****** ******
  24  ****** ****** ****** ****** ****** ****** ****** ****** ****** ******
      ****** ****** ****** ****** ****** ****** ****** ****** ****** ******
      ****** ****** ****** ****** ****** ****** ****** ****** ****** ******
  25  ****** ****** ****** ****** ****** ****** ****** ****** ****** ******
      ****** ****** ****** ****** ****** ****** ****** ****** ****** ******
      ****** ****** ****** ****** ****** ****** ****** ****** ****** ******

 HEAD WILL BE SAVED ON UNIT   51 AT END OF TIME STEP    1, STRESS PERIOD    5
1
  VOLUMETRIC BUDGET FOR ENTIRE MODEL AT END OF TIME STEP    1, STRESS PERIOD   5
  ------------------------------------------------------------------------------

     CUMULATIVE VOLUMES      L**3       RATES FOR THIS TIME STEP      L**3/T
     ------------------                 ------------------------

           IN:                                      IN:
           ---                                      ---
             STORAGE =    31025415.9305               STORAGE =       18658.7366
       CONSTANT HEAD =    10698312.7628         CONSTANT HEAD =       31764.9821
               WELLS =           0.0000                 WELLS =           0.0000
            RECHARGE =    10074000.0000              RECHARGE =       13800.0000
      STREAM LEAKAGE =     2752711.5274        STREAM LEAKAGE =        7893.0152

            TOTAL IN =    54550440.2207              TOTAL IN =       72116.7339

          OUT:                                     OUT:
          ----                                     ----
             STORAGE =        1224.7815               STORAGE =           0.0000
       CONSTANT HEAD =           0.0000         CONSTANT HEAD =           0.0000
               WELLS =    11685503.5312                 WELLS =       25570.0296
            RECHARGE =           0.0000              RECHARGE =           0.0000
      STREAM LEAKAGE =    42863714.3500        STREAM LEAKAGE =       46546.7077

           TOTAL OUT =    54550442.6627             TOTAL OUT =       72116.7373

            IN - OUT =          -2.4420              IN - OUT =      -3.3796E-03

 PERCENT DISCREPANCY =          -0.00     PERCENT DISCREPANCY =          -0.00






         TIME SUMMARY AT END OF TIME STEP    1 IN STRESS PERIOD    5
                    SECONDS     MINUTES      HOURS       DAYS        YEARS
                    -----------------------------------------------------------
   TIME STEP LENGTH 7.94880E+06 1.32480E+05  2208.0      92.000     0.25188    
 STRESS PERIOD TIME 7.94880E+06 1.32480E+05  2208.0      92.000     0.25188    
         TOTAL TIME 3.94848E+07 6.58080E+05  10968.      457.00      1.2512    
1
1
                            STRESS PERIOD NO.    6, LENGTH =   91.00000    
                            -----------------------------------------------

                              NUMBER OF TIME STEPS =     1

                               MULTIPLIER FOR DELT =     1.500

                            INITIAL TIME STEP SIZE =   91.00000    

 WELL NO.  LAYER   ROW   COL   STRESS RATE         
 --------------------------------------------------
      1      1     16      2      -8562.    
      2      1     23     16      -2065.    
      3      1     13     14      -6003.    
      4      1      6     16      -8940.    

      4 WELLS

                 RECHARGE =  2.000000E-03

 REUSING STREAM SEGMENT DATA FROM LAST STRESS PERIOD
 
 SOLVING FOR HEAD 


     7 CALLS TO PCG ROUTINE FOR TIME STEP   1 IN STRESS PERIOD    6
    26 TOTAL ITERATIONS

 OUTPUT CONTROL FOR STRESS PERIOD    6   TIME STEP    1
    SAVE BUDGET
    SAVE HEAD FOR ALL LAYERS
    PRINT HEAD FOR ALL LAYERS
 UBDSV2 SAVING "STREAMFLOW OUT  " ON UNIT  50 AT TIME STEP  1, STRESS PERIOD   6



 STREAM LISTING     PERIOD      6   STEP        1

 LAYER ROW COL. STREAM  RCH.  FLOW INTO     FLOW TO   FLOW OUT OF   OVRLND.     DIRECT     STREAM       STREAM     STREAM     STREAM   STREAMBED  STREAMBED
                SEG.NO.  NO.  STRM. RCH.    AQUIFER    STRM. RCH.    RUNOFF     PRECIP       ET          HEAD       DEPTH      WIDTH   CONDCTNC.   GRADIENT

   1   13    1     1     1    1.0000E+05 -8.2180E+02   1.0082E+05  0.000E+00  0.000E+00  0.000E+00  4.84064E+01  1.450E-01  2.000E+01  2.000E+04 -4.109E-02
   1   13    2     1     2    1.0082E+05 -1.8461E+03   1.0267E+05  0.000E+00  0.000E+00  0.000E+00  4.79303E+01  1.462E-01  2.000E+01  2.000E+04 -9.231E-02
   1   14    3     1     3    1.0267E+05 -1.4793E+02   1.0282E+05  0.000E+00  0.000E+00  0.000E+00  4.74538E+01  1.470E-01  2.000E+01  2.000E+04 -7.397E-03
   1   15    4     1     4    1.0282E+05 -1.1791E+02   1.0293E+05  0.000E+00  0.000E+00  0.000E+00  4.69767E+01  1.471E-01  2.000E+01  2.000E+04 -5.896E-03
   1   16    5     1     5    1.0293E+05  1.1653E+02   1.0282E+05  0.000E+00  0.000E+00  0.000E+00  4.64994E+01  1.471E-01  2.000E+01  2.000E+04  5.826E-03
   1   16    6     1     6    1.0282E+05 -8.6525E+02   1.0368E+05  0.000E+00  0.000E+00  0.000E+00  4.60225E+01  1.475E-01  2.000E+01  2.000E+04 -4.326E-02
   1   16    7     1     7    1.0368E+05 -1.0415E+03   1.0472E+05  0.000E+00  0.000E+00  0.000E+00  4.55460E+01  1.483E-01  2.000E+01  2.000E+04 -5.207E-02
   1   16    8     1     8    1.0472E+05 -1.1251E+03   1.0585E+05  0.000E+00  0.000E+00  0.000E+00  4.50696E+01  1.492E-01  2.000E+01  2.000E+04 -5.626E-02
   1   16    9     1     9    1.0585E+05 -1.1647E+03   1.0701E+05  0.000E+00  0.000E+00  0.000E+00  4.45933E+01  1.502E-01  2.000E+01  2.000E+04 -5.823E-02
   1   16   10     1    10    1.0701E+05 -1.1762E+03   1.0819E+05  0.000E+00  0.000E+00  0.000E+00  4.41171E+01  1.512E-01  2.000E+01  2.000E+04 -5.881E-02
   1   16   11     1    11    1.0819E+05 -1.1862E+03   1.0938E+05  0.000E+00  0.000E+00  0.000E+00  4.36408E+01  1.521E-01  2.000E+01  2.000E+04 -5.931E-02
   1   16   12     1    12    1.0938E+05 -1.9546E+03   1.1133E+05  0.000E+00  0.000E+00  0.000E+00  4.31648E+01  1.535E-01  2.000E+01  2.000E+04 -9.773E-02
   1   15   13     1    13    1.1133E+05 -1.5609E+03   1.1289E+05  0.000E+00  0.000E+00  0.000E+00  4.26890E+01  1.549E-01  2.000E+01  2.000E+04 -7.805E-02
   1   14   14     1    14    1.1289E+05 -5.2456E+01   1.1294E+05  0.000E+00  0.000E+00  0.000E+00  4.22124E+01  1.556E-01  2.000E+01  2.000E+04 -2.623E-03
   1   13   15     1    15    1.1294E+05 -2.2774E+02   1.1317E+05  0.000E+00  0.000E+00  0.000E+00  4.17353E+01  1.557E-01  2.000E+01  2.000E+04 -1.139E-02
   1   12   16     1    16    1.1317E+05 -2.2111E+03   1.1538E+05  0.000E+00  0.000E+00  0.000E+00  4.12590E+01  1.567E-01  2.000E+01  2.000E+04 -1.106E-01
   1   12   17     1    17    1.1538E+05 -1.7124E+03   1.1710E+05  0.000E+00  0.000E+00  0.000E+00  4.07833E+01  1.583E-01  2.000E+01  2.000E+04 -8.562E-02
   1   12   18     1    18    1.1710E+05 -1.7213E+03   1.1882E+05  0.000E+00  0.000E+00  0.000E+00  4.03074E+01  1.597E-01  2.000E+01  2.000E+04 -8.606E-02
   1   12   19     1    19    1.1882E+05 -2.2986E+03   1.2112E+05  0.000E+00  0.000E+00  0.000E+00  3.98318E+01  1.613E-01  2.000E+01  2.000E+04 -1.149E-01
   1   13   20     1    20    1.2112E+05 -2.0423E+03   1.2316E+05  0.000E+00  0.000E+00  0.000E+00  3.93563E+01  1.631E-01  2.000E+01  2.000E+04 -1.021E-01
   1   14   21     1    21    1.2316E+05 -2.0143E+03   1.2517E+05  0.000E+00  0.000E+00  0.000E+00  3.88806E+01  1.647E-01  2.000E+01  2.000E+04 -1.007E-01
   1   14   22     1    22    1.2517E+05  4.6681E+03   1.2050E+05  0.000E+00  0.000E+00  0.000E+00  3.84023E+01  1.637E-01  2.000E+01  2.000E+04  2.334E-01
   1    9   30     2     1    5.0000E+04 -9.4973E+02   5.0950E+04  0.000E+00  0.000E+00  0.000E+00  4.02415E+01  1.165E-01  2.000E+01  2.000E+04 -4.749E-02
   1    9   29     2     2    5.0950E+04 -1.2390E+03   5.2189E+04  0.000E+00  0.000E+00  0.000E+00  3.99930E+01  1.180E-01  2.000E+01  2.000E+04 -6.195E-02
   1    9   28     2     3    5.2189E+04 -1.4725E+03   5.3661E+04  0.000E+00  0.000E+00  0.000E+00  3.97449E+01  1.199E-01  2.000E+01  2.000E+04 -7.362E-02
   1    9   27     2     4    5.3661E+04 -2.7266E+03   5.6388E+04  0.000E+00  0.000E+00  0.000E+00  3.94977E+01  1.227E-01  2.000E+01  2.000E+04 -1.363E-01
   1   10   26     2     5    5.6388E+04 -1.9341E+03   5.8322E+04  0.000E+00  0.000E+00  0.000E+00  3.92508E+01  1.258E-01  2.000E+01  2.000E+04 -9.671E-02
   1   11   25     2     6    5.8322E+04 -1.7063E+03   6.0028E+04  0.000E+00  0.000E+00  0.000E+00  3.90032E+01  1.282E-01  2.000E+01  2.000E+04 -8.532E-02
   1   12   24     2     7    6.0028E+04 -1.7242E+03   6.1753E+04  0.000E+00  0.000E+00  0.000E+00  3.87554E+01  1.304E-01  2.000E+01  2.000E+04 -8.621E-02
   1   13   23     2     8    6.1753E+04 -3.4381E+02   6.2096E+04  0.000E+00  0.000E+00  0.000E+00  3.85067E+01  1.317E-01  2.000E+01  2.000E+04 -1.719E-02
   1   14   22     2     9    6.2096E+04  1.7391E+03   6.0357E+04  0.000E+00  0.000E+00  0.000E+00  3.82558E+01  1.308E-01  2.000E+01  2.000E+04  8.695E-02
   1   14   22     3     1    1.8086E+05 -8.7913E+03   1.8965E+05  0.000E+00  0.000E+00  0.000E+00  3.77293E+01  1.738E-01  2.000E+01  2.000E+04 -4.396E-01
   1   15   23     3     2    1.8965E+05 -6.7309E+02   1.9033E+05  0.000E+00  0.000E+00  0.000E+00  3.68431E+01  1.764E-01  2.000E+01  2.000E+04 -3.365E-02
   1   15   24     3     3    1.9033E+05 -3.9361E+02   1.9072E+05  0.000E+00  0.000E+00  0.000E+00  3.59545E+01  1.767E-01  2.000E+01  2.000E+04 -1.968E-02
   1   15   25     3     4    1.9072E+05 -3.8884E+02   1.9111E+05  0.000E+00  0.000E+00  0.000E+00  3.50658E+01  1.769E-01  2.000E+01  2.000E+04 -1.944E-02
   1   15   26     3     5    1.9111E+05 -4.5958E+02   1.9157E+05  0.000E+00  0.000E+00  0.000E+00  3.41772E+01  1.772E-01  2.000E+01  2.000E+04 -2.298E-02
   1   16   27     3     6    1.9157E+05 -5.1436E+02   1.9208E+05  0.000E+00  0.000E+00  0.000E+00  3.32885E+01  1.774E-01  2.000E+01  2.000E+04 -2.572E-02
   1   17   28     3     7    1.9208E+05 -1.9842E+03   1.9407E+05  0.000E+00  0.000E+00  0.000E+00  3.24004E+01  1.781E-01  2.000E+01  2.000E+04 -9.921E-02
   1   18   29     3     8    1.9407E+05 -3.3934E+03   1.9746E+05  0.000E+00  0.000E+00  0.000E+00  3.15129E+01  1.796E-01  2.000E+01  2.000E+04 -1.697E-01
   1   18   30     3     9    1.9746E+05 -3.5440E+03   2.0100E+05  0.000E+00  0.000E+00  0.000E+00  3.06260E+01  1.815E-01  2.000E+01  2.000E+04 -1.772E-01



1
              HEAD IN LAYER   1 AT END OF TIME STEP   1 IN STRESS PERIOD    6
  ---------------------------------------------------------------------------

          1      2      3      4      5      6      7      8      9     10
         11     12     13     14     15     16     17     18     19     20
         21     22     23     24     25     26     27     28     29     30
 .........................................................................
   1  ****** ****** ****** ****** ****** ****** ****** ****** ****** ******
      ****** ****** ****** ****** ****** ****** ****** ****** ****** ******
      ****** ****** ****** ****** ****** ****** ****** ****** ****** ******
   2  ****** ****** ****** ****** ****** ****** ****** ****** ****** ******
      ****** ****** ****** ****** ****** ****** ****** ****** ****** ******
      ****** ****** ****** ****** ****** ****** ****** ****** ****** ******
   3  ****** ****** ****** ****** ****** ****** ****** ****** ****** ******
      ****** ****** ****** ****** ****** ****** ****** ****** ****** ******
      ****** ****** ****** ****** ****** ****** ****** ****** ****** ******
   4  ****** ****** ****** ****** ****** ****** ****** ****** ****** ******
      ****** ****** ****** ****** ****** ****** ****** ****** ****** ******
      ****** ****** ****** ****** ****** ****** ****** ****** ****** ******
   5  ****** ****** ****** ****** ****** ****** ****** ****** ****** ******
      ****** ****** ****** ****** ****** ****** ****** ****** ****** ******
      ****** ****** ****** ****** ****** ****** ****** ****** ****** ******
   6  ****** ****** ****** ****** ****** ****** ****** ****** ****** ******
      ****** ****** ****** ****** ****** ****** ****** ****** ****** ******
      ****** ****** ****** ****** ****** ****** ****** ****** ****** ******
   7  ****** ****** ****** ****** ****** ****** ****** ****** ****** ******
      ****** ****** ****** ****** ****** ****** ****** ****** ****** ******
      ****** ****** ****** ****** ****** ****** ****** ****** ****** ******
   8  ****** ****** ****** ****** ****** ****** ****** ****** ****** ******
      ****** ****** ****** ****** ****** ****** ****** ****** ****** ******
      ****** ****** ****** ****** ****** ****** ****** ****** ****** ******
   9  ****** ****** ****** ****** ****** ****** ****** ****** ****** ******
      ****** ****** ****** ****** ****** ****** ****** ****** ****** ******
      ****** ****** ****** ****** ****** ****** ****** ****** ****** ******
  10  ****** ****** ****** ****** ****** ****** ****** ****** ****** ******
      ****** ****** ****** ****** ****** ****** ****** ****** ****** ******
      ****** ****** ****** ****** ****** ****** ****** ****** ****** ******
  11  ****** ****** ****** ****** ****** ****** ****** ****** ****** ******
      ****** ****** ****** ****** ****** ****** ****** ****** ****** ******
      ****** ****** ****** ****** ****** ****** ****** ****** ****** ******
  12  ****** ****** ****** ****** ****** ****** ****** ****** ****** ******
      ****** ****** ****** ****** ****** ****** ****** ****** ****** ******
      ****** ****** ****** ****** ****** ****** ****** ****** ****** ******
  13  ****** ****** ****** ****** ****** ****** ****** ****** ****** ******
      ****** ****** ****** ****** ****** ****** ****** ****** ****** ******
      ****** ****** ****** ****** ****** ****** ****** ****** ****** ******
  14  ****** ****** ****** ****** ****** ****** ****** ****** ****** ******
      ****** ****** ****** ****** ****** ****** ****** ****** ****** ******
      ****** ****** ****** ****** ****** ****** ****** ****** ****** ******
  15  ****** ****** ****** ****** ****** ****** ****** ****** ****** ******
      ****** ****** ****** ****** ****** ****** ****** ****** ****** ******
      ****** ****** ****** ****** ****** ****** ****** ****** ****** ******
  16  ****** ****** ****** ****** ****** ****** ****** ****** ****** ******
      ****** ****** ****** ****** ****** ****** ****** ****** ****** ******
      ****** ****** ****** ****** ****** ****** ****** ****** ****** ******
  17  ****** ****** ****** ****** ****** ****** ****** ****** ****** ******
      ****** ****** ****** ****** ****** ****** ****** ****** ****** ******
      ****** ****** ****** ****** ****** ****** ****** ****** ****** ******
  18  ****** ****** ****** ****** ****** ****** ****** ****** ****** ******
      ****** ****** ****** ****** ****** ****** ****** ****** ****** ******
      ****** ****** ****** ****** ****** ****** ****** ****** ****** ******
  19  ****** ****** ****** ****** ****** ****** ****** ****** ****** ******
      ****** ****** ****** ****** ****** ****** ****** ****** ****** ******
      ****** ****** ****** ****** ****** ****** ****** ****** ****** ******
  20  ****** ****** ****** ****** ****** ****** ****** ****** ****** ******
      ****** ****** ****** ****** ****** ****** ****** ****** ****** ******
      ****** ****** ****** ****** ****** ****** ****** ****** ****** ******
  21  ****** ****** ****** ****** ****** ****** ****** ****** ****** ******
      ****** ****** ****** ****** ****** ****** ****** ****** ****** ******
      ****** ****** ****** ****** ****** ****** ****** ****** ****** ******
  22  ****** ****** ****** ****** ****** ****** ****** ****** ****** ******
      ****** ****** ****** ****** ****** ****** ****** ****** ****** ******
      ****** ****** ****** ****** ****** ****** ****** ****** ****** ******
  23  ****** ****** ****** ****** ****** ****** ****** ****** ****** ******
      ****** ****** ****** ****** ****** ****** ****** ****** ****** ******
      ****** ****** ****** ****** ****** ****** ****** ****** ****** ******
  24  ****** ****** ****** ****** ****** ****** ****** ****** ****** ******
      ****** ****** ****** ****** ****** ****** ****** ****** ****** ******
      ****** ****** ****** ****** ****** ****** ****** ****** ****** ******
  25  ****** ****** ****** ****** ****** ****** ****** ****** ****** ******
      ****** ****** ****** ****** ****** ****** ****** ****** ****** ******
      ****** ****** ****** ****** ****** ****** ****** ****** ****** ******

 HEAD WILL BE SAVED ON UNIT   51 AT END OF TIME STEP    1, STRESS PERIOD    6
1
  VOLUMETRIC BUDGET FOR ENTIRE MODEL AT END OF TIME STEP    1, STRESS PERIOD   6
  ------------------------------------------------------------------------------

     CUMULATIVE VOLUMES      L**3       RATES FOR THIS TIME STEP      L**3/T
     ------------------                 ------------------------

           IN:                                      IN:
           ---                                      ---
             STORAGE =    31025459.1769               STORAGE =           0.4752
       CONSTANT HEAD =    13418217.5413         CONSTANT HEAD =       29889.0635
               WELLS =           0.0000                 WELLS =           0.0000
            RECHARGE =    15097200.0000              RECHARGE =       55200.0000
      STREAM LEAKAGE =     3346368.0111        STREAM LEAKAGE =        6523.6976

            TOTAL IN =    62887244.7293              TOTAL IN =       91613.2364

          OUT:                                     OUT:
          ----                                     ----
             STORAGE =      776193.9225               STORAGE =        8516.1444
       CONSTANT HEAD =           0.0000         CONSTANT HEAD =           0.0000
               WELLS =    14012376.2256                 WELLS =       25570.0296
            RECHARGE =           0.0000              RECHARGE =           0.0000
      STREAM LEAKAGE =    48098676.7564        STREAM LEAKAGE =       57527.0594

           TOTAL OUT =    62887246.9045             TOTAL OUT =       91613.2334

            IN - OUT =          -2.1752              IN - OUT =       2.9321E-03

 PERCENT DISCREPANCY =          -0.00     PERCENT DISCREPANCY =           0.00






         TIME SUMMARY AT END OF TIME STEP    1 IN STRESS PERIOD    6
                    SECONDS     MINUTES      HOURS       DAYS        YEARS
                    -----------------------------------------------------------
   TIME STEP LENGTH 7.86240E+06 1.31040E+05  2184.0      91.000     0.24914    
 STRESS PERIOD TIME 7.86240E+06 1.31040E+05  2184.0      91.000     0.24914    
         TOTAL TIME 4.73472E+07 7.89120E+05  13152.      548.00      1.5003    
1
1
                            STRESS PERIOD NO.    7, LENGTH =   91.00000    
                            -----------------------------------------------

                              NUMBER OF TIME STEPS =     1

                               MULTIPLIER FOR DELT =     1.500

                            INITIAL TIME STEP SIZE =   91.00000    

 WELL NO.  LAYER   ROW   COL   STRESS RATE         
 --------------------------------------------------
      1      1     16      2      -8562.    
      2      1     23     16      -2065.    
      3      1     13     14      -6003.    
      4      1      6     16      -8940.    

      4 WELLS

                 RECHARGE =   0.00000    

 REUSING STREAM SEGMENT DATA FROM LAST STRESS PERIOD
 
 SOLVING FOR HEAD 


     7 CALLS TO PCG ROUTINE FOR TIME STEP   1 IN STRESS PERIOD    7
    26 TOTAL ITERATIONS

 OUTPUT CONTROL FOR STRESS PERIOD    7   TIME STEP    1
    SAVE BUDGET
    SAVE HEAD FOR ALL LAYERS
    PRINT HEAD FOR ALL LAYERS
 UBDSV2 SAVING "STREAMFLOW OUT  " ON UNIT  50 AT TIME STEP  1, STRESS PERIOD   7



 STREAM LISTING     PERIOD      7   STEP        1

 LAYER ROW COL. STREAM  RCH.  FLOW INTO     FLOW TO   FLOW OUT OF   OVRLND.     DIRECT     STREAM       STREAM     STREAM     STREAM   STREAMBED  STREAMBED
                SEG.NO.  NO.  STRM. RCH.    AQUIFER    STRM. RCH.    RUNOFF     PRECIP       ET          HEAD       DEPTH      WIDTH   CONDCTNC.   GRADIENT

   1   13    1     1     1    1.0000E+05 -1.4733E+02   1.0015E+05  0.000E+00  0.000E+00  0.000E+00  4.84061E+01  1.447E-01  2.000E+01  2.000E+04 -7.367E-03
   1   13    2     1     2    1.0015E+05 -1.0915E+03   1.0124E+05  0.000E+00  0.000E+00  0.000E+00  4.79293E+01  1.453E-01  2.000E+01  2.000E+04 -5.457E-02
   1   14    3     1     3    1.0124E+05  1.0558E+02   1.0113E+05  0.000E+00  0.000E+00  0.000E+00  4.74525E+01  1.457E-01  2.000E+01  2.000E+04  5.279E-03
   1   15    4     1     4    1.0113E+05  1.4633E+02   1.0099E+05  0.000E+00  0.000E+00  0.000E+00  4.69751E+01  1.456E-01  2.000E+01  2.000E+04  7.316E-03
   1   16    5     1     5    1.0099E+05  8.7513E+02   1.0011E+05  0.000E+00  0.000E+00  0.000E+00  4.64974E+01  1.451E-01  2.000E+01  2.000E+04  4.376E-02
   1   16    6     1     6    1.0011E+05 -4.0809E+02   1.0052E+05  0.000E+00  0.000E+00  0.000E+00  4.60199E+01  1.449E-01  2.000E+01  2.000E+04 -2.040E-02
   1   16    7     1     7    1.0052E+05 -6.0303E+02   1.0112E+05  0.000E+00  0.000E+00  0.000E+00  4.55431E+01  1.454E-01  2.000E+01  2.000E+04 -3.015E-02
   1   16    8     1     8    1.0112E+05 -6.9286E+02   1.0182E+05  0.000E+00  0.000E+00  0.000E+00  4.50664E+01  1.459E-01  2.000E+01  2.000E+04 -3.464E-02
   1   16    9     1     9    1.0182E+05 -7.3590E+02   1.0255E+05  0.000E+00  0.000E+00  0.000E+00  4.45897E+01  1.465E-01  2.000E+01  2.000E+04 -3.680E-02
   1   16   10     1    10    1.0255E+05 -7.5031E+02   1.0330E+05  0.000E+00  0.000E+00  0.000E+00  4.41131E+01  1.472E-01  2.000E+01  2.000E+04 -3.752E-02
   1   16   11     1    11    1.0330E+05 -7.5958E+02   1.0406E+05  0.000E+00  0.000E+00  0.000E+00  4.36365E+01  1.478E-01  2.000E+01  2.000E+04 -3.798E-02
   1   16   12     1    12    1.0406E+05 -1.2378E+03   1.0530E+05  0.000E+00  0.000E+00  0.000E+00  4.31600E+01  1.487E-01  2.000E+01  2.000E+04 -6.189E-02
   1   15   13     1    13    1.0530E+05 -7.9068E+02   1.0609E+05  0.000E+00  0.000E+00  0.000E+00  4.26836E+01  1.495E-01  2.000E+01  2.000E+04 -3.953E-02
   1   14   14     1    14    1.0609E+05  7.4681E+02   1.0534E+05  0.000E+00  0.000E+00  0.000E+00  4.22064E+01  1.496E-01  2.000E+01  2.000E+04  3.734E-02
   1   13   15     1    15    1.0534E+05  5.7475E+02   1.0477E+05  0.000E+00  0.000E+00  0.000E+00  4.17285E+01  1.490E-01  2.000E+01  2.000E+04  2.874E-02
   1   12   16     1    16    1.0477E+05 -1.4124E+03   1.0618E+05  0.000E+00  0.000E+00  0.000E+00  4.12516E+01  1.494E-01  2.000E+01  2.000E+04 -7.062E-02
   1   12   17     1    17    1.0618E+05 -1.1333E+03   1.0731E+05  0.000E+00  0.000E+00  0.000E+00  4.07754E+01  1.504E-01  2.000E+01  2.000E+04 -5.667E-02
   1   12   18     1    18    1.0731E+05 -1.1568E+03   1.0847E+05  0.000E+00  0.000E+00  0.000E+00  4.02991E+01  1.514E-01  2.000E+01  2.000E+04 -5.784E-02
   1   12   19     1    19    1.0847E+05 -1.6089E+03   1.1008E+05  0.000E+00  0.000E+00  0.000E+00  3.98230E+01  1.526E-01  2.000E+01  2.000E+04 -8.044E-02
   1   13   20     1    20    1.1008E+05 -1.3729E+03   1.1145E+05  0.000E+00  0.000E+00  0.000E+00  3.93470E+01  1.538E-01  2.000E+01  2.000E+04 -6.864E-02
   1   14   21     1    21    1.1145E+05 -1.3555E+03   1.1281E+05  0.000E+00  0.000E+00  0.000E+00  3.88708E+01  1.549E-01  2.000E+01  2.000E+04 -6.778E-02
   1   14   22     1    22    1.1281E+05  4.8216E+03   1.0799E+05  0.000E+00  0.000E+00  0.000E+00  3.83921E+01  1.535E-01  2.000E+01  2.000E+04  2.411E-01
   1    9   30     2     1    5.0000E+04 -4.3548E+02   5.0435E+04  0.000E+00  0.000E+00  0.000E+00  4.02412E+01  1.162E-01  2.000E+01  2.000E+04 -2.177E-02
   1    9   29     2     2    5.0435E+04 -7.2649E+02   5.1162E+04  0.000E+00  0.000E+00  0.000E+00  3.99920E+01  1.170E-01  2.000E+01  2.000E+04 -3.632E-02
   1    9   28     2     3    5.1162E+04 -9.5839E+02   5.2120E+04  0.000E+00  0.000E+00  0.000E+00  3.97431E+01  1.181E-01  2.000E+01  2.000E+04 -4.792E-02
   1    9   27     2     4    5.2120E+04 -2.0272E+03   5.4148E+04  0.000E+00  0.000E+00  0.000E+00  3.94952E+01  1.202E-01  2.000E+01  2.000E+04 -1.014E-01
   1   10   26     2     5    5.4148E+04 -1.2331E+03   5.5381E+04  0.000E+00  0.000E+00  0.000E+00  3.92474E+01  1.224E-01  2.000E+01  2.000E+04 -6.166E-02
   1   11   25     2     6    5.5381E+04 -1.0340E+03   5.6415E+04  0.000E+00  0.000E+00  0.000E+00  3.89989E+01  1.239E-01  2.000E+01  2.000E+04 -5.170E-02
   1   12   24     2     7    5.6415E+04 -1.1111E+03   5.7526E+04  0.000E+00  0.000E+00  0.000E+00  3.87503E+01  1.253E-01  2.000E+01  2.000E+04 -5.555E-02
   1   13   23     2     8    5.7526E+04 -1.5164E+02   5.7677E+04  0.000E+00  0.000E+00  0.000E+00  3.85011E+01  1.261E-01  2.000E+01  2.000E+04 -7.582E-03
   1   14   22     2     9    5.7677E+04  1.9776E+03   5.5700E+04  0.000E+00  0.000E+00  0.000E+00  3.82499E+01  1.249E-01  2.000E+01  2.000E+04  9.888E-02
   1   14   22     3     1    1.6369E+05 -8.6326E+03   1.7232E+05  0.000E+00  0.000E+00  0.000E+00  3.77194E+01  1.639E-01  2.000E+01  2.000E+04 -4.316E-01
   1   15   23     3     2    1.7232E+05 -4.6755E+02   1.7279E+05  0.000E+00  0.000E+00  0.000E+00  3.68332E+01  1.665E-01  2.000E+01  2.000E+04 -2.338E-02
   1   15   24     3     3    1.7279E+05 -2.2056E+02   1.7301E+05  0.000E+00  0.000E+00  0.000E+00  3.59445E+01  1.667E-01  2.000E+01  2.000E+04 -1.103E-02
   1   15   25     3     4    1.7301E+05 -2.1268E+02   1.7322E+05  0.000E+00  0.000E+00  0.000E+00  3.50557E+01  1.668E-01  2.000E+01  2.000E+04 -1.063E-02
   1   15   26     3     5    1.7322E+05 -2.5876E+02   1.7348E+05  0.000E+00  0.000E+00  0.000E+00  3.41670E+01  1.670E-01  2.000E+01  2.000E+04 -1.294E-02
   1   16   27     3     6    1.7348E+05 -2.8270E+02   1.7376E+05  0.000E+00  0.000E+00  0.000E+00  3.32782E+01  1.671E-01  2.000E+01  2.000E+04 -1.413E-02
   1   17   28     3     7    1.7376E+05 -1.3450E+03   1.7511E+05  0.000E+00  0.000E+00  0.000E+00  3.23898E+01  1.676E-01  2.000E+01  2.000E+04 -6.725E-02
   1   18   29     3     8    1.7511E+05 -2.7120E+03   1.7782E+05  0.000E+00  0.000E+00  0.000E+00  3.15021E+01  1.688E-01  2.000E+01  2.000E+04 -1.356E-01
   1   18   30     3     9    1.7782E+05 -3.0183E+03   1.8084E+05  0.000E+00  0.000E+00  0.000E+00  3.06149E+01  1.704E-01  2.000E+01  2.000E+04 -1.509E-01



1
              HEAD IN LAYER   1 AT END OF TIME STEP   1 IN STRESS PERIOD    7
  ---------------------------------------------------------------------------

          1      2      3      4      5      6      7      8      9     10
         11     12     13     14     15     16     17     18     19     20
         21     22     23     24     25     26     27     28     29     30
 .........................................................................
   1  ****** ****** ****** ****** ****** ****** ****** ****** ****** ******
      ****** ****** ****** ****** ****** ****** ****** ****** ****** ******
      ****** ****** ****** ****** ****** ****** ****** ****** ****** ******
   2  ****** ****** ****** ****** ****** ****** ****** ****** ****** ******
      ****** ****** ****** ****** ****** ****** ****** ****** ****** ******
      ****** ****** ****** ****** ****** ****** ****** ****** ****** ******
   3  ****** ****** ****** ****** ****** ****** ****** ****** ****** ******
      ****** ****** ****** ****** ****** ****** ****** ****** ****** ******
      ****** ****** ****** ****** ****** ****** ****** ****** ****** ******
   4  ****** ****** ****** ****** ****** ****** ****** ****** ****** ******
      ****** ****** ****** ****** ****** ****** ****** ****** ****** ******
      ****** ****** ****** ****** ****** ****** ****** ****** ****** ******
   5  ****** ****** ****** ****** ****** ****** ****** ****** ****** ******
      ****** ****** ****** ****** ****** ****** ****** ****** ****** ******
      ****** ****** ****** ****** ****** ****** ****** ****** ****** ******
   6  ****** ****** ****** ****** ****** ****** ****** ****** ****** ******
      ****** ****** ****** ****** ****** ****** ****** ****** ****** ******
      ****** ****** ****** ****** ****** ****** ****** ****** ****** ******
   7  ****** ****** ****** ****** ****** ****** ****** ****** ****** ******
      ****** ****** ****** ****** ****** ****** ****** ****** ****** ******
      ****** ****** ****** ****** ****** ****** ****** ****** ****** ******
   8  ****** ****** ****** ****** ****** ****** ****** ****** ****** ******
      ****** ****** ****** ****** ****** ****** ****** ****** ****** ******
      ****** ****** ****** ****** ****** ****** ****** ****** ****** ******
   9  ****** ****** ****** ****** ****** ****** ****** ****** ****** ******
      ****** ****** ****** ****** ****** ****** ****** ****** ****** ******
      ****** ****** ****** ****** ****** ****** ****** ****** ****** ******
  10  ****** ****** ****** ****** ****** ****** ****** ****** ****** ******
      ****** ****** ****** ****** ****** ****** ****** ****** ****** ******
      ****** ****** ****** ****** ****** ****** ****** ****** ****** ******
  11  ****** ****** ****** ****** ****** ****** ****** ****** ****** ******
      ****** ****** ****** ****** ****** ****** ****** ****** ****** ******
      ****** ****** ****** ****** ****** ****** ****** ****** ****** ******
  12  ****** ****** ****** ****** ****** ****** ****** ****** ****** ******
      ****** ****** ****** ****** ****** ****** ****** ****** ****** ******
      ****** ****** ****** ****** ****** ****** ****** ****** ****** ******
  13  ****** ****** ****** ****** ****** ****** ****** ****** ****** ******
      ****** ****** ****** ****** ****** ****** ****** ****** ****** ******
      ****** ****** ****** ****** ****** ****** ****** ****** ****** ******
  14  ****** ****** ****** ****** ****** ****** ****** ****** ****** ******
      ****** ****** ****** ****** ****** ****** ****** ****** ****** ******
      ****** ****** ****** ****** ****** ****** ****** ****** ****** ******
  15  ****** ****** ****** ****** ****** ****** ****** ****** ****** ******
      ****** ****** ****** ****** ****** ****** ****** ****** ****** ******
      ****** ****** ****** ****** ****** ****** ****** ****** ****** ******
  16  ****** ****** ****** ****** ****** ****** ****** ****** ****** ******
      ****** ****** ****** ****** ****** ****** ****** ****** ****** ******
      ****** ****** ****** ****** ****** ****** ****** ****** ****** ******
  17  ****** ****** ****** ****** ****** ****** ****** ****** ****** ******
      ****** ****** ****** ****** ****** ****** ****** ****** ****** ******
      ****** ****** ****** ****** ****** ****** ****** ****** ****** ******
  18  ****** ****** ****** ****** ****** ****** ****** ****** ****** ******
      ****** ****** ****** ****** ****** ****** ****** ****** ****** ******
      ****** ****** ****** ****** ****** ****** ****** ****** ****** ******
  19  ****** ****** ****** ****** ****** ****** ****** ****** ****** ******
      ****** ****** ****** ****** ****** ****** ****** ****** ****** ******
      ****** ****** ****** ****** ****** ****** ****** ****** ****** ******
  20  ****** ****** ****** ****** ****** ****** ****** ****** ****** ******
      ****** ****** ****** ****** ****** ****** ****** ****** ****** ******
      ****** ****** ****** ****** ****** ****** ****** ****** ****** ******
  21  ****** ****** ****** ****** ****** ****** ****** ****** ****** ******
      ****** ****** ****** ****** ****** ****** ****** ****** ****** ******
      ****** ****** ****** ****** ****** ****** ****** ****** ****** ******
  22  ****** ****** ****** ****** ****** ****** ****** ****** ****** ******
      ****** ****** ****** ****** ****** ****** ****** ****** ****** ******
      ****** ****** ****** ****** ****** ****** ****** ****** ****** ******
  23  ****** ****** ****** ****** ****** ****** ****** ****** ****** ******
      ****** ****** ****** ****** ****** ****** ****** ****** ****** ******
      ****** ****** ****** ****** ****** ****** ****** ****** ****** ******
  24  ****** ****** ****** ****** ****** ****** ****** ****** ****** ******
      ****** ****** ****** ****** ****** ****** ****** ****** ****** ******
      ****** ****** ****** ****** ****** ****** ****** ****** ****** ******
  25  ****** ****** ****** ****** ****** ****** ****** ****** ****** ******
      ****** ****** ****** ****** ****** ****** ****** ****** ****** ******
      ****** ****** ****** ****** ****** ****** ****** ****** ****** ******

 HEAD WILL BE SAVED ON UNIT   51 AT END OF TIME STEP    1, STRESS PERIOD    7
1
  VOLUMETRIC BUDGET FOR ENTIRE MODEL AT END OF TIME STEP    1, STRESS PERIOD   7
  ------------------------------------------------------------------------------

     CUMULATIVE VOLUMES      L**3       RATES FOR THIS TIME STEP      L**3/T
     ------------------                 ------------------------

           IN:                                      IN:
           ---                                      ---
             STORAGE =    33079251.3808               STORAGE =       22569.1451
       CONSTANT HEAD =    16497445.7279         CONSTANT HEAD =       33837.6724
               WELLS =           0.0000                 WELLS =           0.0000
            RECHARGE =    15097200.0000              RECHARGE =           0.0000
      STREAM LEAKAGE =     4187912.6185        STREAM LEAKAGE =        9247.7429

            TOTAL IN =    68861809.7273              TOTAL IN =       65654.5604

          OUT:                                     OUT:
          ----                                     ----
             STORAGE =      776193.9225               STORAGE =           0.0000
       CONSTANT HEAD =           0.0000         CONSTANT HEAD =           0.0000
               WELLS =    16339248.9200                 WELLS =       25570.0296
            RECHARGE =           0.0000              RECHARGE =           0.0000
      STREAM LEAKAGE =    51746369.5842        STREAM LEAKAGE =       40084.5366

           TOTAL OUT =    68861812.4267             TOTAL OUT =       65654.5662

            IN - OUT =          -2.6995              IN - OUT =      -5.7610E-03

 PERCENT DISCREPANCY =          -0.00     PERCENT DISCREPANCY =          -0.00






         TIME SUMMARY AT END OF TIME STEP    1 IN STRESS PERIOD    7
                    SECONDS     MINUTES      HOURS       DAYS        YEARS
                    -----------------------------------------------------------
   TIME STEP LENGTH 7.86240E+06 1.31040E+05  2184.0      91.000     0.24914    
 STRESS PERIOD TIME 7.86240E+06 1.31040E+05  2184.0      91.000     0.24914    
         TOTAL TIME 5.52096E+07 9.20160E+05  15336.      639.00      1.7495    
1
1
                            STRESS PERIOD NO.    8, LENGTH =   91.00000    
                            -----------------------------------------------

                              NUMBER OF TIME STEPS =     1

                               MULTIPLIER FOR DELT =     1.500

                            INITIAL TIME STEP SIZE =   91.00000    

 WELL NO.  LAYER   ROW   COL   STRESS RATE         
 --------------------------------------------------
      1      1     16      2      -8562.    
      2      1     23     16      -2065.    
      3      1     13     14      -6003.    
      4      1      6     16      -8940.    

      4 WELLS

                 RECHARGE =  1.000000E-03

 REUSING STREAM SEGMENT DATA FROM LAST STRESS PERIOD
 
 SOLVING FOR HEAD 


     6 CALLS TO PCG ROUTINE FOR TIME STEP   1 IN STRESS PERIOD    8
    22 TOTAL ITERATIONS

 OUTPUT CONTROL FOR STRESS PERIOD    8   TIME STEP    1
    SAVE BUDGET
    SAVE HEAD FOR ALL LAYERS
    PRINT HEAD FOR ALL LAYERS
 UBDSV2 SAVING "STREAMFLOW OUT  " ON UNIT  50 AT TIME STEP  1, STRESS PERIOD   8



 STREAM LISTING     PERIOD      8   STEP        1

 LAYER ROW COL. STREAM  RCH.  FLOW INTO     FLOW TO   FLOW OUT OF   OVRLND.     DIRECT     STREAM       STREAM     STREAM     STREAM   STREAMBED  STREAMBED
                SEG.NO.  NO.  STRM. RCH.    AQUIFER    STRM. RCH.    RUNOFF     PRECIP       ET          HEAD       DEPTH      WIDTH   CONDCTNC.   GRADIENT

   1   13    1     1     1    1.0000E+05 -2.1507E+02   1.0022E+05  0.000E+00  0.000E+00  0.000E+00  4.84061E+01  1.447E-01  2.000E+01  2.000E+04 -1.075E-02
   1   13    2     1     2    1.0022E+05 -1.1579E+03   1.0137E+05  0.000E+00  0.000E+00  0.000E+00  4.79294E+01  1.453E-01  2.000E+01  2.000E+04 -5.790E-02
   1   14    3     1     3    1.0137E+05  4.2617E+01   1.0133E+05  0.000E+00  0.000E+00  0.000E+00  4.74526E+01  1.458E-01  2.000E+01  2.000E+04  2.131E-03
   1   15    4     1     4    1.0133E+05  7.8638E+01   1.0125E+05  0.000E+00  0.000E+00  0.000E+00  4.69753E+01  1.458E-01  2.000E+01  2.000E+04  3.932E-03
   1   16    5     1     5    1.0125E+05  7.0381E+02   1.0055E+05  0.000E+00  0.000E+00  0.000E+00  4.64977E+01  1.454E-01  2.000E+01  2.000E+04  3.519E-02
   1   16    6     1     6    1.0055E+05 -5.1352E+02   1.0106E+05  0.000E+00  0.000E+00  0.000E+00  4.60203E+01  1.453E-01  2.000E+01  2.000E+04 -2.568E-02
   1   16    7     1     7    1.0106E+05 -7.0358E+02   1.0177E+05  0.000E+00  0.000E+00  0.000E+00  4.55436E+01  1.459E-01  2.000E+01  2.000E+04 -3.518E-02
   1   16    8     1     8    1.0177E+05 -7.9271E+02   1.0256E+05  0.000E+00  0.000E+00  0.000E+00  4.50670E+01  1.465E-01  2.000E+01  2.000E+04 -3.964E-02
   1   16    9     1     9    1.0256E+05 -8.3712E+02   1.0339E+05  0.000E+00  0.000E+00  0.000E+00  4.45904E+01  1.472E-01  2.000E+01  2.000E+04 -4.186E-02
   1   16   10     1    10    1.0339E+05 -8.5431E+02   1.0425E+05  0.000E+00  0.000E+00  0.000E+00  4.41139E+01  1.479E-01  2.000E+01  2.000E+04 -4.272E-02
   1   16   11     1    11    1.0425E+05 -8.6700E+02   1.0512E+05  0.000E+00  0.000E+00  0.000E+00  4.36373E+01  1.487E-01  2.000E+01  2.000E+04 -4.335E-02
   1   16   12     1    12    1.0512E+05 -1.3984E+03   1.0651E+05  0.000E+00  0.000E+00  0.000E+00  4.31610E+01  1.496E-01  2.000E+01  2.000E+04 -6.992E-02
   1   15   13     1    13    1.0651E+05 -9.5685E+02   1.0747E+05  0.000E+00  0.000E+00  0.000E+00  4.26847E+01  1.506E-01  2.000E+01  2.000E+04 -4.784E-02
   1   14   14     1    14    1.0747E+05  5.8877E+02   1.0688E+05  0.000E+00  0.000E+00  0.000E+00  4.22076E+01  1.508E-01  2.000E+01  2.000E+04  2.944E-02
   1   13   15     1    15    1.0688E+05  4.3069E+02   1.0645E+05  0.000E+00  0.000E+00  0.000E+00  4.17299E+01  1.504E-01  2.000E+01  2.000E+04  2.153E-02
   1   12   16     1    16    1.0645E+05 -1.5164E+03   1.0797E+05  0.000E+00  0.000E+00  0.000E+00  4.12531E+01  1.508E-01  2.000E+01  2.000E+04 -7.582E-02
   1   12   17     1    17    1.0797E+05 -1.2411E+03   1.0921E+05  0.000E+00  0.000E+00  0.000E+00  4.07770E+01  1.520E-01  2.000E+01  2.000E+04 -6.205E-02
   1   12   18     1    18    1.0921E+05 -1.2718E+03   1.1048E+05  0.000E+00  0.000E+00  0.000E+00  4.03008E+01  1.530E-01  2.000E+01  2.000E+04 -6.359E-02
   1   12   19     1    19    1.1048E+05 -1.7541E+03   1.1224E+05  0.000E+00  0.000E+00  0.000E+00  3.98248E+01  1.543E-01  2.000E+01  2.000E+04 -8.770E-02
   1   13   20     1    20    1.1224E+05 -1.5499E+03   1.1379E+05  0.000E+00  0.000E+00  0.000E+00  3.93488E+01  1.557E-01  2.000E+01  2.000E+04 -7.749E-02
   1   14   21     1    21    1.1379E+05 -1.5146E+03   1.1530E+05  0.000E+00  0.000E+00  0.000E+00  3.88728E+01  1.569E-01  2.000E+01  2.000E+04 -7.573E-02
   1   14   22     1    22    1.1530E+05  4.7743E+03   1.1053E+05  0.000E+00  0.000E+00  0.000E+00  3.83942E+01  1.556E-01  2.000E+01  2.000E+04  2.387E-01
   1    9   30     2     1    5.0000E+04 -5.9779E+02   5.0598E+04  0.000E+00  0.000E+00  0.000E+00  4.02413E+01  1.163E-01  2.000E+01  2.000E+04 -2.989E-02
   1    9   29     2     2    5.0598E+04 -8.8593E+02   5.1484E+04  0.000E+00  0.000E+00  0.000E+00  3.99923E+01  1.173E-01  2.000E+01  2.000E+04 -4.430E-02
   1    9   28     2     3    5.1484E+04 -1.1121E+03   5.2596E+04  0.000E+00  0.000E+00  0.000E+00  3.97437E+01  1.187E-01  2.000E+01  2.000E+04 -5.560E-02
   1    9   27     2     4    5.2596E+04 -2.2027E+03   5.4798E+04  0.000E+00  0.000E+00  0.000E+00  3.94959E+01  1.209E-01  2.000E+01  2.000E+04 -1.101E-01
   1   10   26     2     5    5.4798E+04 -1.4361E+03   5.6235E+04  0.000E+00  0.000E+00  0.000E+00  3.92484E+01  1.234E-01  2.000E+01  2.000E+04 -7.181E-02
   1   11   25     2     6    5.6235E+04 -1.2356E+03   5.7470E+04  0.000E+00  0.000E+00  0.000E+00  3.90001E+01  1.251E-01  2.000E+01  2.000E+04 -6.178E-02
   1   12   24     2     7    5.7470E+04 -1.2939E+03   5.8764E+04  0.000E+00  0.000E+00  0.000E+00  3.87518E+01  1.268E-01  2.000E+01  2.000E+04 -6.469E-02
   1   13   23     2     8    5.8764E+04 -2.2560E+02   5.8990E+04  0.000E+00  0.000E+00  0.000E+00  3.85028E+01  1.278E-01  2.000E+01  2.000E+04 -1.128E-02
   1   14   22     2     9    5.8990E+04  1.9237E+03   5.7066E+04  0.000E+00  0.000E+00  0.000E+00  3.82517E+01  1.267E-01  2.000E+01  2.000E+04  9.619E-02
   1   14   22     3     1    1.6759E+05 -8.6759E+03   1.7627E+05  0.000E+00  0.000E+00  0.000E+00  3.77217E+01  1.662E-01  2.000E+01  2.000E+04 -4.338E-01
   1   15   23     3     2    1.7627E+05 -5.3208E+02   1.7680E+05  0.000E+00  0.000E+00  0.000E+00  3.68355E+01  1.688E-01  2.000E+01  2.000E+04 -2.660E-02
   1   15   24     3     3    1.7680E+05 -2.8129E+02   1.7708E+05  0.000E+00  0.000E+00  0.000E+00  3.59468E+01  1.690E-01  2.000E+01  2.000E+04 -1.406E-02
   1   15   25     3     4    1.7708E+05 -2.7512E+02   1.7736E+05  0.000E+00  0.000E+00  0.000E+00  3.50581E+01  1.692E-01  2.000E+01  2.000E+04 -1.376E-02
   1   15   26     3     5    1.7736E+05 -3.3356E+02   1.7769E+05  0.000E+00  0.000E+00  0.000E+00  3.41694E+01  1.694E-01  2.000E+01  2.000E+04 -1.668E-02
   1   16   27     3     6    1.7769E+05 -3.6478E+02   1.7805E+05  0.000E+00  0.000E+00  0.000E+00  3.32807E+01  1.696E-01  2.000E+01  2.000E+04 -1.824E-02
   1   17   28     3     7    1.7805E+05 -1.5497E+03   1.7960E+05  0.000E+00  0.000E+00  0.000E+00  3.23923E+01  1.701E-01  2.000E+01  2.000E+04 -7.748E-02
   1   18   29     3     8    1.7960E+05 -2.8793E+03   1.8248E+05  0.000E+00  0.000E+00  0.000E+00  3.15047E+01  1.714E-01  2.000E+01  2.000E+04 -1.440E-01
   1   18   30     3     9    1.8248E+05 -3.1661E+03   1.8565E+05  0.000E+00  0.000E+00  0.000E+00  3.06175E+01  1.731E-01  2.000E+01  2.000E+04 -1.583E-01



1
              HEAD IN LAYER   1 AT END OF TIME STEP   1 IN STRESS PERIOD    8
  ---------------------------------------------------------------------------

          1      2      3      4      5      6      7      8      9     10
         11     12     13     14     15     16     17     18     19     20
         21     22     23     24     25     26     27     28     29     30
 .........................................................................
   1  ****** ****** ****** ****** ****** ****** ****** ****** ****** ******
      ****** ****** ****** ****** ****** ****** ****** ****** ****** ******
      ****** ****** ****** ****** ****** ****** ****** ****** ****** ******
   2  ****** ****** ****** ****** ****** ****** ****** ****** ****** ******
      ****** ****** ****** ****** ****** ****** ****** ****** ****** ******
      ****** ****** ****** ****** ****** ****** ****** ****** ****** ******
   3  ****** ****** ****** ****** ****** ****** ****** ****** ****** ******
      ****** ****** ****** ****** ****** ****** ****** ****** ****** ******
      ****** ****** ****** ****** ****** ****** ****** ****** ****** ******
   4  ****** ****** ****** ****** ****** ****** ****** ****** ****** ******
      ****** ****** ****** ****** ****** ****** ****** ****** ****** ******
      ****** ****** ****** ****** ****** ****** ****** ****** ****** ******
   5  ****** ****** ****** ****** ****** ****** ****** ****** ****** ******
      ****** ****** ****** ****** ****** ****** ****** ****** ****** ******
      ****** ****** ****** ****** ****** ****** ****** ****** ****** ******
   6  ****** ****** ****** ****** ****** ****** ****** ****** ****** ******
      ****** ****** ****** ****** ****** ****** ****** ****** ****** ******
      ****** ****** ****** ****** ****** ****** ****** ****** ****** ******
   7  ****** ****** ****** ****** ****** ****** ****** ****** ****** ******
      ****** ****** ****** ****** ****** ****** ****** ****** ****** ******
      ****** ****** ****** ****** ****** ****** ****** ****** ****** ******
   8  ****** ****** ****** ****** ****** ****** ****** ****** ****** ******
      ****** ****** ****** ****** ****** ****** ****** ****** ****** ******
      ****** ****** ****** ****** ****** ****** ****** ****** ****** ******
   9  ****** ****** ****** ****** ****** ****** ****** ****** ****** ******
      ****** ****** ****** ****** ****** ****** ****** ****** ****** ******
      ****** ****** ****** ****** ****** ****** ****** ****** ****** ******
  10  ****** ****** ****** ****** ****** ****** ****** ****** ****** ******
      ****** ****** ****** ****** ****** ****** ****** ****** ****** ******
      ****** ****** ****** ****** ****** ****** ****** ****** ****** ******
  11  ****** ****** ****** ****** ****** ****** ****** ****** ****** ******
      ****** ****** ****** ****** ****** ****** ****** ****** ****** ******
      ****** ****** ****** ****** ****** ****** ****** ****** ****** ******
  12  ****** ****** ****** ****** ****** ****** ****** ****** ****** ******
      ****** ****** ****** ****** ****** ****** ****** ****** ****** ******
      ****** ****** ****** ****** ****** ****** ****** ****** ****** ******
  13  ****** ****** ****** ****** ****** ****** ****** ****** ****** ******
      ****** ****** ****** ****** ****** ****** ****** ****** ****** ******
      ****** ****** ****** ****** ****** ****** ****** ****** ****** ******
  14  ****** ****** ****** ****** ****** ****** ****** ****** ****** ******
      ****** ****** ****** ****** ****** ****** ****** ****** ****** ******
      ****** ****** ****** ****** ****** ****** ****** ****** ****** ******
  15  ****** ****** ****** ****** ****** ****** ****** ****** ****** ******
      ****** ****** ****** ****** ****** ****** ****** ****** ****** ******
      ****** ****** ****** ****** ****** ****** ****** ****** ****** ******
  16  ****** ****** ****** ****** ****** ****** ****** ****** ****** ******
      ****** ****** ****** ****** ****** ****** ****** ****** ****** ******
      ****** ****** ****** ****** ****** ****** ****** ****** ****** ******
  17  ****** ****** ****** ****** ****** ****** ****** ****** ****** ******
      ****** ****** ****** ****** ****** ****** ****** ****** ****** ******
      ****** ****** ****** ****** ****** ****** ****** ****** ****** ******
  18  ****** ****** ****** ****** ****** ****** ****** ****** ****** ******
      ****** ****** ****** ****** ****** ****** ****** ****** ****** ******
      ****** ****** ****** ****** ****** ****** ****** ****** ****** ******
  19  ****** ****** ****** ****** ****** ****** ****** ****** ****** ******
      ****** ****** ****** ****** ****** ****** ****** ****** ****** ******
      ****** ****** ****** ****** ****** ****** ****** ****** ****** ******
  20  ****** ****** ****** ****** ****** ****** ****** ****** ****** ******
      ****** ****** ****** ****** ****** ****** ****** ****** ****** ******
      ****** ****** ****** ****** ****** ****** ****** ****** ****** ******
  21  ****** ****** ****** ****** ****** ****** ****** ****** ****** ******
      ****** ****** ****** ****** ****** ****** ****** ****** ****** ******
      ****** ****** ****** ****** ****** ****** ****** ****** ****** ******
  22  ****** ****** ****** ****** ****** ****** ****** ****** ****** ******
      ****** ****** ****** ****** ****** ****** ****** ****** ****** ******
      ****** ****** ****** ****** ****** ****** ****** ****** ****** ******
  23  ****** ****** ****** ****** ****** ****** ****** ****** ****** ******
      ****** ****** ****** ****** ****** ****** ****** ****** ****** ******
      ****** ****** ****** ****** ****** ****** ****** ****** ****** ******
  24  ****** ****** ****** ****** ****** ****** ****** ****** ****** ******
      ****** ****** ****** ****** ****** ****** ****** ****** ****** ******
      ****** ****** ****** ****** ****** ****** ****** ****** ****** ******
  25  ****** ****** ****** ****** ****** ****** ****** ****** ****** ******
      ****** ****** ****** ****** ****** ****** ****** ****** ****** ******
      ****** ****** ****** ****** ****** ****** ****** ****** ****** ******

 HEAD WILL BE SAVED ON UNIT   51 AT END OF TIME STEP    1, STRESS PERIOD    8
1
  VOLUMETRIC BUDGET FOR ENTIRE MODEL AT END OF TIME STEP    1, STRESS PERIOD   8
  ------------------------------------------------------------------------------

     CUMULATIVE VOLUMES      L**3       RATES FOR THIS TIME STEP      L**3/T
     ------------------                 ------------------------

           IN:                                      IN:
           ---                                      ---
             STORAGE =    33226663.0603               STORAGE =        1619.9086
       CONSTANT HEAD =    19551296.4842         CONSTANT HEAD =       33558.7995
               WELLS =           0.0000                 WELLS =           0.0000
            RECHARGE =    17608800.0000              RECHARGE =       27600.0000
      STREAM LEAKAGE =     4965289.0180        STREAM LEAKAGE =        8542.5978

            TOTAL IN =    75352048.5625              TOTAL IN =       71321.3059

          OUT:                                     OUT:
          ----                                     ----
             STORAGE =      918091.6357               STORAGE =        1559.3155
       CONSTANT HEAD =           0.0000         CONSTANT HEAD =           0.0000
               WELLS =    18666121.6144                 WELLS =       25570.0296
            RECHARGE =           0.0000              RECHARGE =           0.0000
      STREAM LEAKAGE =    55767837.2653        STREAM LEAKAGE =       44191.9525

           TOTAL OUT =    75352050.5154             TOTAL OUT =       71321.2977

            IN - OUT =          -1.9529              IN - OUT =       8.2037E-03

 PERCENT DISCREPANCY =          -0.00     PERCENT DISCREPANCY =           0.00






         TIME SUMMARY AT END OF TIME STEP    1 IN STRESS PERIOD    8
                    SECONDS     MINUTES      HOURS       DAYS        YEARS
                    -----------------------------------------------------------
   TIME STEP LENGTH 7.86240E+06 1.31040E+05  2184.0      91.000     0.24914    
 STRESS PERIOD TIME 7.86240E+06 1.31040E+05  2184.0      91.000     0.24914    
         TOTAL TIME 6.30720E+07 1.05120E+06  17520.      730.00      1.9986    
1
1
                            STRESS PERIOD NO.    9, LENGTH =   92.00000    
                            -----------------------------------------------

                              NUMBER OF TIME STEPS =     1

                               MULTIPLIER FOR DELT =     1.500

                            INITIAL TIME STEP SIZE =   92.00000    

 WELL NO.  LAYER   ROW   COL   STRESS RATE         
 --------------------------------------------------
      1      1     16      2      -8562.    
      2      1     23     16      -2065.    
      3      1     13     14      -6003.    
      4      1      6     16      -8940.    

      4 WELLS

                 RECHARGE =  5.000000E-04

 REUSING STREAM SEGMENT DATA FROM LAST STRESS PERIOD
 
 SOLVING FOR HEAD 


     6 CALLS TO PCG ROUTINE FOR TIME STEP   1 IN STRESS PERIOD    9
    23 TOTAL ITERATIONS

 OUTPUT CONTROL FOR STRESS PERIOD    9   TIME STEP    1
    SAVE BUDGET
    SAVE HEAD FOR ALL LAYERS
    PRINT HEAD FOR ALL LAYERS
 UBDSV2 SAVING "STREAMFLOW OUT  " ON UNIT  50 AT TIME STEP  1, STRESS PERIOD   9



 STREAM LISTING     PERIOD      9   STEP        1

 LAYER ROW COL. STREAM  RCH.  FLOW INTO     FLOW TO   FLOW OUT OF   OVRLND.     DIRECT     STREAM       STREAM     STREAM     STREAM   STREAMBED  STREAMBED
                SEG.NO.  NO.  STRM. RCH.    AQUIFER    STRM. RCH.    RUNOFF     PRECIP       ET          HEAD       DEPTH      WIDTH   CONDCTNC.   GRADIENT

   1   13    1     1     1    1.0000E+05  3.3967E+00   9.9997E+04  0.000E+00  0.000E+00  0.000E+00  4.84060E+01  1.447E-01  2.000E+01  2.000E+04  1.698E-04
   1   13    2     1     2    9.9997E+04 -9.1042E+02   1.0091E+05  0.000E+00  0.000E+00  0.000E+00  4.79291E+01  1.450E-01  2.000E+01  2.000E+04 -4.552E-02
   1   14    3     1     3    1.0091E+05  1.1419E+02   1.0079E+05  0.000E+00  0.000E+00  0.000E+00  4.74522E+01  1.454E-01  2.000E+01  2.000E+04  5.710E-03
   1   15    4     1     4    1.0079E+05  1.5113E+02   1.0064E+05  0.000E+00  0.000E+00  0.000E+00  4.69748E+01  1.453E-01  2.000E+01  2.000E+04  7.557E-03
   1   16    5     1     5    1.0064E+05  8.9743E+02   9.9744E+04  0.000E+00  0.000E+00  0.000E+00  4.64971E+01  1.448E-01  2.000E+01  2.000E+04  4.487E-02
   1   16    6     1     6    9.9744E+04 -3.9274E+02   1.0014E+05  0.000E+00  0.000E+00  0.000E+00  4.60196E+01  1.446E-01  2.000E+01  2.000E+04 -1.964E-02
   1   16    7     1     7    1.0014E+05 -5.8654E+02   1.0072E+05  0.000E+00  0.000E+00  0.000E+00  4.55428E+01  1.450E-01  2.000E+01  2.000E+04 -2.933E-02
   1   16    8     1     8    1.0072E+05 -6.7728E+02   1.0140E+05  0.000E+00  0.000E+00  0.000E+00  4.50660E+01  1.456E-01  2.000E+01  2.000E+04 -3.386E-02
   1   16    9     1     9    1.0140E+05 -7.2343E+02   1.0212E+05  0.000E+00  0.000E+00  0.000E+00  4.45894E+01  1.462E-01  2.000E+01  2.000E+04 -3.617E-02
   1   16   10     1    10    1.0212E+05 -7.4283E+02   1.0287E+05  0.000E+00  0.000E+00  0.000E+00  4.41127E+01  1.468E-01  2.000E+01  2.000E+04 -3.714E-02
   1   16   11     1    11    1.0287E+05 -7.5675E+02   1.0362E+05  0.000E+00  0.000E+00  0.000E+00  4.36361E+01  1.475E-01  2.000E+01  2.000E+04 -3.784E-02
   1   16   12     1    12    1.0362E+05 -1.2098E+03   1.0483E+05  0.000E+00  0.000E+00  0.000E+00  4.31597E+01  1.483E-01  2.000E+01  2.000E+04 -6.049E-02
   1   15   13     1    13    1.0483E+05 -7.4603E+02   1.0558E+05  0.000E+00  0.000E+00  0.000E+00  4.26832E+01  1.491E-01  2.000E+01  2.000E+04 -3.730E-02
   1   14   14     1    14    1.0558E+05  8.1368E+02   1.0477E+05  0.000E+00  0.000E+00  0.000E+00  4.22059E+01  1.491E-01  2.000E+01  2.000E+04  4.068E-02
   1   13   15     1    15    1.0477E+05  6.6202E+02   1.0410E+05  0.000E+00  0.000E+00  0.000E+00  4.17280E+01  1.485E-01  2.000E+01  2.000E+04  3.310E-02
   1   12   16     1    16    1.0410E+05 -1.2757E+03   1.0538E+05  0.000E+00  0.000E+00  0.000E+00  4.12510E+01  1.487E-01  2.000E+01  2.000E+04 -6.379E-02
   1   12   17     1    17    1.0538E+05 -1.0766E+03   1.0646E+05  0.000E+00  0.000E+00  0.000E+00  4.07747E+01  1.497E-01  2.000E+01  2.000E+04 -5.383E-02
   1   12   18     1    18    1.0646E+05 -1.1152E+03   1.0757E+05  0.000E+00  0.000E+00  0.000E+00  4.02984E+01  1.507E-01  2.000E+01  2.000E+04 -5.576E-02
   1   12   19     1    19    1.0757E+05 -1.5655E+03   1.0914E+05  0.000E+00  0.000E+00  0.000E+00  3.98222E+01  1.518E-01  2.000E+01  2.000E+04 -7.828E-02
   1   13   20     1    20    1.0914E+05 -1.3760E+03   1.1051E+05  0.000E+00  0.000E+00  0.000E+00  3.93462E+01  1.530E-01  2.000E+01  2.000E+04 -6.880E-02
   1   14   21     1    21    1.1051E+05 -1.3437E+03   1.1186E+05  0.000E+00  0.000E+00  0.000E+00  3.88701E+01  1.542E-01  2.000E+01  2.000E+04 -6.718E-02
   1   14   22     1    22    1.1186E+05  4.8113E+03   1.0705E+05  0.000E+00  0.000E+00  0.000E+00  3.83913E+01  1.527E-01  2.000E+01  2.000E+04  2.406E-01
   1    9   30     2     1    5.0000E+04 -4.7407E+02   5.0474E+04  0.000E+00  0.000E+00  0.000E+00  4.02412E+01  1.162E-01  2.000E+01  2.000E+04 -2.370E-02
   1    9   29     2     2    5.0474E+04 -7.6195E+02   5.1236E+04  0.000E+00  0.000E+00  0.000E+00  3.99921E+01  1.171E-01  2.000E+01  2.000E+04 -3.810E-02
   1    9   28     2     3    5.1236E+04 -9.8607E+02   5.2222E+04  0.000E+00  0.000E+00  0.000E+00  3.97433E+01  1.183E-01  2.000E+01  2.000E+04 -4.930E-02
   1    9   27     2     4    5.2222E+04 -2.0250E+03   5.4247E+04  0.000E+00  0.000E+00  0.000E+00  3.94953E+01  1.203E-01  2.000E+01  2.000E+04 -1.012E-01
   1   10   26     2     5    5.4247E+04 -1.2615E+03   5.5509E+04  0.000E+00  0.000E+00  0.000E+00  3.92475E+01  1.225E-01  2.000E+01  2.000E+04 -6.307E-02
   1   11   25     2     6    5.5509E+04 -1.0685E+03   5.6577E+04  0.000E+00  0.000E+00  0.000E+00  3.89991E+01  1.241E-01  2.000E+01  2.000E+04 -5.342E-02
   1   12   24     2     7    5.6577E+04 -1.1401E+03   5.7717E+04  0.000E+00  0.000E+00  0.000E+00  3.87505E+01  1.255E-01  2.000E+01  2.000E+04 -5.701E-02
   1   13   23     2     8    5.7717E+04 -1.7833E+02   5.7895E+04  0.000E+00  0.000E+00  0.000E+00  3.85014E+01  1.264E-01  2.000E+01  2.000E+04 -8.916E-03
   1   14   22     2     9    5.7895E+04  1.9887E+03   5.5907E+04  0.000E+00  0.000E+00  0.000E+00  3.82502E+01  1.252E-01  2.000E+01  2.000E+04  9.943E-02
   1   14   22     3     1    1.6295E+05 -8.6357E+03   1.7159E+05  0.000E+00  0.000E+00  0.000E+00  3.77190E+01  1.634E-01  2.000E+01  2.000E+04 -4.318E-01
   1   15   23     3     2    1.7159E+05 -4.7976E+02   1.7207E+05  0.000E+00  0.000E+00  0.000E+00  3.68328E+01  1.661E-01  2.000E+01  2.000E+04 -2.399E-02
   1   15   24     3     3    1.7207E+05 -2.3844E+02   1.7231E+05  0.000E+00  0.000E+00  0.000E+00  3.59441E+01  1.663E-01  2.000E+01  2.000E+04 -1.192E-02
   1   15   25     3     4    1.7231E+05 -2.3201E+02   1.7254E+05  0.000E+00  0.000E+00  0.000E+00  3.50553E+01  1.664E-01  2.000E+01  2.000E+04 -1.160E-02
   1   15   26     3     5    1.7254E+05 -2.8607E+02   1.7282E+05  0.000E+00  0.000E+00  0.000E+00  3.41666E+01  1.666E-01  2.000E+01  2.000E+04 -1.430E-02
   1   16   27     3     6    1.7282E+05 -3.0897E+02   1.7313E+05  0.000E+00  0.000E+00  0.000E+00  3.32779E+01  1.668E-01  2.000E+01  2.000E+04 -1.545E-02
   1   17   28     3     7    1.7313E+05 -1.3968E+03   1.7453E+05  0.000E+00  0.000E+00  0.000E+00  3.23895E+01  1.673E-01  2.000E+01  2.000E+04 -6.984E-02
   1   18   29     3     8    1.7453E+05 -2.7047E+03   1.7723E+05  0.000E+00  0.000E+00  0.000E+00  3.15018E+01  1.684E-01  2.000E+01  2.000E+04 -1.352E-01
   1   18   30     3     9    1.7723E+05 -3.0348E+03   1.8027E+05  0.000E+00  0.000E+00  0.000E+00  3.06145E+01  1.701E-01  2.000E+01  2.000E+04 -1.517E-01



1
              HEAD IN LAYER   1 AT END OF TIME STEP   1 IN STRESS PERIOD    9
  ---------------------------------------------------------------------------

          1      2      3      4      5      6      7      8      9     10
         11     12     13     14     15     16     17     18     19     20
         21     22     23     24     25     26     27     28     29     30
 .........................................................................
   1  ****** ****** ****** ****** ****** ****** ****** ****** ****** ******
      ****** ****** ****** ****** ****** ****** ****** ****** ****** ******
      ****** ****** ****** ****** ****** ****** ****** ****** ****** ******
   2  ****** ****** ****** ****** ****** ****** ****** ****** ****** ******
      ****** ****** ****** ****** ****** ****** ****** ****** ****** ******
      ****** ****** ****** ****** ****** ****** ****** ****** ****** ******
   3  ****** ****** ****** ****** ****** ****** ****** ****** ****** ******
      ****** ****** ****** ****** ****** ****** ****** ****** ****** ******
      ****** ****** ****** ****** ****** ****** ****** ****** ****** ******
   4  ****** ****** ****** ****** ****** ****** ****** ****** ****** ******
      ****** ****** ****** ****** ****** ****** ****** ****** ****** ******
      ****** ****** ****** ****** ****** ****** ****** ****** ****** ******
   5  ****** ****** ****** ****** ****** ****** ****** ****** ****** ******
      ****** ****** ****** ****** ****** ****** ****** ****** ****** ******
      ****** ****** ****** ****** ****** ****** ****** ****** ****** ******
   6  ****** ****** ****** ****** ****** ****** ****** ****** ****** ******
      ****** ****** ****** ****** ****** ****** ****** ****** ****** ******
      ****** ****** ****** ****** ****** ****** ****** ****** ****** ******
   7  ****** ****** ****** ****** ****** ****** ****** ****** ****** ******
      ****** ****** ****** ****** ****** ****** ****** ****** ****** ******
      ****** ****** ****** ****** ****** ****** ****** ****** ****** ******
   8  ****** ****** ****** ****** ****** ****** ****** ****** ****** ******
      ****** ****** ****** ****** ****** ****** ****** ****** ****** ******
      ****** ****** ****** ****** ****** ****** ****** ****** ****** ******
   9  ****** ****** ****** ****** ****** ****** ****** ****** ****** ******
      ****** ****** ****** ****** ****** ****** ****** ****** ****** ******
      ****** ****** ****** ****** ****** ****** ****** ****** ****** ******
  10  ****** ****** ****** ****** ****** ****** ****** ****** ****** ******
      ****** ****** ****** ****** ****** ****** ****** ****** ****** ******
      ****** ****** ****** ****** ****** ****** ****** ****** ****** ******
  11  ****** ****** ****** ****** ****** ****** ****** ****** ****** ******
      ****** ****** ****** ****** ****** ****** ****** ****** ****** ******
      ****** ****** ****** ****** ****** ****** ****** ****** ****** ******
  12  ****** ****** ****** ****** ****** ****** ****** ****** ****** ******
      ****** ****** ****** ****** ****** ****** ****** ****** ****** ******
      ****** ****** ****** ****** ****** ****** ****** ****** ****** ******
  13  ****** ****** ****** ****** ****** ****** ****** ****** ****** ******
      ****** ****** ****** ****** ****** ****** ****** ****** ****** ******
      ****** ****** ****** ****** ****** ****** ****** ****** ****** ******
  14  ****** ****** ****** ****** ****** ****** ****** ****** ****** ******
      ****** ****** ****** ****** ****** ****** ****** ****** ****** ******
      ****** ****** ****** ****** ****** ****** ****** ****** ****** ******
  15  ****** ****** ****** ****** ****** ****** ****** ****** ****** ******
      ****** ****** ****** ****** ****** ****** ****** ****** ****** ******
      ****** ****** ****** ****** ****** ****** ****** ****** ****** ******
  16  ****** ****** ****** ****** ****** ****** ****** ****** ****** ******
      ****** ****** ****** ****** ****** ****** ****** ****** ****** ******
      ****** ****** ****** ****** ****** ****** ****** ****** ****** ******
  17  ****** ****** ****** ****** ****** ****** ****** ****** ****** ******
      ****** ****** ****** ****** ****** ****** ****** ****** ****** ******
      ****** ****** ****** ****** ****** ****** ****** ****** ****** ******
  18  ****** ****** ****** ****** ****** ****** ****** ****** ****** ******
      ****** ****** ****** ****** ****** ****** ****** ****** ****** ******
      ****** ****** ****** ****** ****** ****** ****** ****** ****** ******
  19  ****** ****** ****** ****** ****** ****** ****** ****** ****** ******
      ****** ****** ****** ****** ****** ****** ****** ****** ****** ******
      ****** ****** ****** ****** ****** ****** ****** ****** ****** ******
  20  ****** ****** ****** ****** ****** ****** ****** ****** ****** ******
      ****** ****** ****** ****** ****** ****** ****** ****** ****** ******
      ****** ****** ****** ****** ****** ****** ****** ****** ****** ******
  21  ****** ****** ****** ****** ****** ****** ****** ****** ****** ******
      ****** ****** ****** ****** ****** ****** ****** ****** ****** ******
      ****** ****** ****** ****** ****** ****** ****** ****** ****** ******
  22  ****** ****** ****** ****** ****** ****** ****** ****** ****** ******
      ****** ****** ****** ****** ****** ****** ****** ****** ****** ******
      ****** ****** ****** ****** ****** ****** ****** ****** ****** ******
  23  ****** ****** ****** ****** ****** ****** ****** ****** ****** ******
      ****** ****** ****** ****** ****** ****** ****** ****** ****** ******
      ****** ****** ****** ****** ****** ****** ****** ****** ****** ******
  24  ****** ****** ****** ****** ****** ****** ****** ****** ****** ******
      ****** ****** ****** ****** ****** ****** ****** ****** ****** ******
      ****** ****** ****** ****** ****** ****** ****** ****** ****** ******
  25  ****** ****** ****** ****** ****** ****** ****** ****** ****** ******
      ****** ****** ****** ****** ****** ****** ****** ****** ****** ******
      ****** ****** ****** ****** ****** ****** ****** ****** ****** ******

 HEAD WILL BE SAVED ON UNIT   51 AT END OF TIME STEP    1, STRESS PERIOD    9
1
  VOLUMETRIC BUDGET FOR ENTIRE MODEL AT END OF TIME STEP    1, STRESS PERIOD   9
  ------------------------------------------------------------------------------

     CUMULATIVE VOLUMES      L**3       RATES FOR THIS TIME STEP      L**3/T
     ------------------                 ------------------------

           IN:                                      IN:
           ---                                      ---
             STORAGE =    33898568.5422               STORAGE =        7303.3205
       CONSTANT HEAD =    22747022.7223         CONSTANT HEAD =       34736.1548
               WELLS =           0.0000                 WELLS =           0.0000
            RECHARGE =    18878400.0000              RECHARGE =       13800.0000
      STREAM LEAKAGE =     5833936.7388        STREAM LEAKAGE =        9441.8231

            TOTAL IN =    81357928.0033              TOTAL IN =       65281.2983

          OUT:                                     OUT:
          ----                                     ----
             STORAGE =      918091.6357               STORAGE =           0.0000
       CONSTANT HEAD =           0.0000         CONSTANT HEAD =           0.0000
               WELLS =    21018564.3384                 WELLS =       25570.0296
            RECHARGE =           0.0000              RECHARGE =           0.0000
      STREAM LEAKAGE =    59421274.0573        STREAM LEAKAGE =       39711.2695

           TOTAL OUT =    81357930.0314             TOTAL OUT =       65281.2991

            IN - OUT =          -2.0281              IN - OUT =      -8.1682E-04

 PERCENT DISCREPANCY =          -0.00     PERCENT DISCREPANCY =          -0.00






         TIME SUMMARY AT END OF TIME STEP    1 IN STRESS PERIOD    9
                    SECONDS     MINUTES      HOURS       DAYS        YEARS
                    -----------------------------------------------------------
   TIME STEP LENGTH 7.94880E+06 1.32480E+05  2208.0      92.000     0.25188    
 STRESS PERIOD TIME 7.94880E+06 1.32480E+05  2208.0      92.000     0.25188    
         TOTAL TIME 7.10208E+07 1.18368E+06  19728.      822.00      2.2505    
1
1
                            STRESS PERIOD NO.   10, LENGTH =   91.00000    
                            -----------------------------------------------

                              NUMBER OF TIME STEPS =     1

                               MULTIPLIER FOR DELT =     1.500

                            INITIAL TIME STEP SIZE =   91.00000    

 WELL NO.  LAYER   ROW   COL   STRESS RATE         
 --------------------------------------------------
      1      1     16      2      -8562.    
      2      1     23     16      -2065.    
      3      1     13     14      -6003.    
      4      1      6     16      -8940.    

      4 WELLS

                 RECHARGE =  2.000000E-03

 REUSING STREAM SEGMENT DATA FROM LAST STRESS PERIOD
 
 SOLVING FOR HEAD 


     7 CALLS TO PCG ROUTINE FOR TIME STEP   1 IN STRESS PERIOD   10
    26 TOTAL ITERATIONS

 OUTPUT CONTROL FOR STRESS PERIOD   10   TIME STEP    1
    SAVE BUDGET
    SAVE HEAD FOR ALL LAYERS
    PRINT HEAD FOR ALL LAYERS
 UBDSV2 SAVING "STREAMFLOW OUT  " ON UNIT  50 AT TIME STEP  1, STRESS PERIOD  10



 STREAM LISTING     PERIOD     10   STEP        1

 LAYER ROW COL. STREAM  RCH.  FLOW INTO     FLOW TO   FLOW OUT OF   OVRLND.     DIRECT     STREAM       STREAM     STREAM     STREAM   STREAMBED  STREAMBED
                SEG.NO.  NO.  STRM. RCH.    AQUIFER    STRM. RCH.    RUNOFF     PRECIP       ET          HEAD       DEPTH      WIDTH   CONDCTNC.   GRADIENT

   1   13    1     1     1    1.0000E+05 -4.4623E+02   1.0045E+05  0.000E+00  0.000E+00  0.000E+00  4.84062E+01  1.448E-01  2.000E+01  2.000E+04 -2.231E-02
   1   13    2     1     2    1.0045E+05 -1.4085E+03   1.0185E+05  0.000E+00  0.000E+00  0.000E+00  4.79297E+01  1.456E-01  2.000E+01  2.000E+04 -7.043E-02
   1   14    3     1     3    1.0185E+05 -7.1796E+01   1.0193E+05  0.000E+00  0.000E+00  0.000E+00  4.74531E+01  1.463E-01  2.000E+01  2.000E+04 -3.590E-03
   1   15    4     1     4    1.0193E+05 -4.7843E+01   1.0197E+05  0.000E+00  0.000E+00  0.000E+00  4.69759E+01  1.463E-01  2.000E+01  2.000E+04 -2.392E-03
   1   16    5     1     5    1.0197E+05  2.7904E+02   1.0170E+05  0.000E+00  0.000E+00  0.000E+00  4.64985E+01  1.462E-01  2.000E+01  2.000E+04  1.395E-02
   1   16    6     1     6    1.0170E+05 -7.5447E+02   1.0245E+05  0.000E+00  0.000E+00  0.000E+00  4.60214E+01  1.464E-01  2.000E+01  2.000E+04 -3.772E-02
   1   16    7     1     7    1.0245E+05 -9.3048E+02   1.0338E+05  0.000E+00  0.000E+00  0.000E+00  4.55449E+01  1.472E-01  2.000E+01  2.000E+04 -4.652E-02
   1   16    8     1     8    1.0338E+05 -1.0158E+03   1.0440E+05  0.000E+00  0.000E+00  0.000E+00  4.50685E+01  1.480E-01  2.000E+01  2.000E+04 -5.079E-02
   1   16    9     1     9    1.0440E+05 -1.0605E+03   1.0546E+05  0.000E+00  0.000E+00  0.000E+00  4.45921E+01  1.489E-01  2.000E+01  2.000E+04 -5.303E-02
   1   16   10     1    10    1.0546E+05 -1.0802E+03   1.0654E+05  0.000E+00  0.000E+00  0.000E+00  4.41157E+01  1.498E-01  2.000E+01  2.000E+04 -5.401E-02
   1   16   11     1    11    1.0654E+05 -1.0977E+03   1.0763E+05  0.000E+00  0.000E+00  0.000E+00  4.36394E+01  1.507E-01  2.000E+01  2.000E+04 -5.489E-02
   1   16   12     1    12    1.0763E+05 -1.7790E+03   1.0941E+05  0.000E+00  0.000E+00  0.000E+00  4.31633E+01  1.519E-01  2.000E+01  2.000E+04 -8.895E-02
   1   15   13     1    13    1.0941E+05 -1.3316E+03   1.1075E+05  0.000E+00  0.000E+00  0.000E+00  4.26873E+01  1.532E-01  2.000E+01  2.000E+04 -6.658E-02
   1   14   14     1    14    1.1075E+05  2.2132E+02   1.1052E+05  0.000E+00  0.000E+00  0.000E+00  4.22105E+01  1.537E-01  2.000E+01  2.000E+04  1.107E-02
   1   13   15     1    15    1.1052E+05  8.0072E+01   1.1044E+05  0.000E+00  0.000E+00  0.000E+00  4.17331E+01  1.536E-01  2.000E+01  2.000E+04  4.004E-03
   1   12   16     1    16    1.1044E+05 -1.8356E+03   1.1228E+05  0.000E+00  0.000E+00  0.000E+00  4.12566E+01  1.543E-01  2.000E+01  2.000E+04 -9.178E-02
   1   12   17     1    17    1.1228E+05 -1.5011E+03   1.1378E+05  0.000E+00  0.000E+00  0.000E+00  4.07807E+01  1.557E-01  2.000E+01  2.000E+04 -7.506E-02
   1   12   18     1    18    1.1378E+05 -1.5358E+03   1.1532E+05  0.000E+00  0.000E+00  0.000E+00  4.03047E+01  1.569E-01  2.000E+01  2.000E+04 -7.679E-02
   1   12   19     1    19    1.1532E+05 -2.0831E+03   1.1740E+05  0.000E+00  0.000E+00  0.000E+00  3.98289E+01  1.584E-01  2.000E+01  2.000E+04 -1.042E-01
   1   13   20     1    20    1.1740E+05 -1.8970E+03   1.1930E+05  0.000E+00  0.000E+00  0.000E+00  3.93532E+01  1.600E-01  2.000E+01  2.000E+04 -9.485E-02
   1   14   21     1    21    1.1930E+05 -1.8689E+03   1.2117E+05  0.000E+00  0.000E+00  0.000E+00  3.88775E+01  1.616E-01  2.000E+01  2.000E+04 -9.345E-02
   1   14   22     1    22    1.2117E+05  4.6870E+03   1.1648E+05  0.000E+00  0.000E+00  0.000E+00  3.83991E+01  1.604E-01  2.000E+01  2.000E+04  2.344E-01
   1    9   30     2     1    5.0000E+04 -8.8806E+02   5.0888E+04  0.000E+00  0.000E+00  0.000E+00  4.02415E+01  1.165E-01  2.000E+01  2.000E+04 -4.440E-02
   1    9   29     2     2    5.0888E+04 -1.1736E+03   5.2062E+04  0.000E+00  0.000E+00  0.000E+00  3.99929E+01  1.179E-01  2.000E+01  2.000E+04 -5.868E-02
   1    9   28     2     3    5.2062E+04 -1.3969E+03   5.3459E+04  0.000E+00  0.000E+00  0.000E+00  3.97447E+01  1.197E-01  2.000E+01  2.000E+04 -6.984E-02
   1    9   27     2     4    5.3459E+04 -2.5773E+03   5.6036E+04  0.000E+00  0.000E+00  0.000E+00  3.94973E+01  1.223E-01  2.000E+01  2.000E+04 -1.289E-01
   1   10   26     2     5    5.6036E+04 -1.8139E+03   5.7850E+04  0.000E+00  0.000E+00  0.000E+00  3.92503E+01  1.253E-01  2.000E+01  2.000E+04 -9.069E-02
   1   11   25     2     6    5.7850E+04 -1.5964E+03   5.9446E+04  0.000E+00  0.000E+00  0.000E+00  3.90025E+01  1.275E-01  2.000E+01  2.000E+04 -7.982E-02
   1   12   24     2     7    5.9446E+04 -1.6179E+03   6.1064E+04  0.000E+00  0.000E+00  0.000E+00  3.87546E+01  1.296E-01  2.000E+01  2.000E+04 -8.090E-02
   1   13   23     2     8    6.1064E+04 -3.2698E+02   6.1391E+04  0.000E+00  0.000E+00  0.000E+00  3.85058E+01  1.308E-01  2.000E+01  2.000E+04 -1.635E-02
   1   14   22     2     9    6.1391E+04  1.8037E+03   5.9587E+04  0.000E+00  0.000E+00  0.000E+00  3.82549E+01  1.299E-01  2.000E+01  2.000E+04  9.019E-02
   1   14   22     3     1    1.7607E+05 -8.7621E+03   1.8483E+05  0.000E+00  0.000E+00  0.000E+00  3.77266E+01  1.710E-01  2.000E+01  2.000E+04 -4.381E-01
   1   15   23     3     2    1.8483E+05 -6.4243E+02   1.8547E+05  0.000E+00  0.000E+00  0.000E+00  3.68404E+01  1.737E-01  2.000E+01  2.000E+04 -3.212E-02
   1   15   24     3     3    1.8547E+05 -3.7571E+02   1.8585E+05  0.000E+00  0.000E+00  0.000E+00  3.59518E+01  1.740E-01  2.000E+01  2.000E+04 -1.879E-02
   1   15   25     3     4    1.8585E+05 -3.7267E+02   1.8622E+05  0.000E+00  0.000E+00  0.000E+00  3.50631E+01  1.742E-01  2.000E+01  2.000E+04 -1.863E-02
   1   15   26     3     5    1.8622E+05 -4.4837E+02   1.8667E+05  0.000E+00  0.000E+00  0.000E+00  3.41744E+01  1.744E-01  2.000E+01  2.000E+04 -2.242E-02
   1   16   27     3     6    1.8667E+05 -4.9493E+02   1.8716E+05  0.000E+00  0.000E+00  0.000E+00  3.32858E+01  1.747E-01  2.000E+01  2.000E+04 -2.475E-02
   1   17   28     3     7    1.8716E+05 -1.9178E+03   1.8908E+05  0.000E+00  0.000E+00  0.000E+00  3.23976E+01  1.754E-01  2.000E+01  2.000E+04 -9.589E-02
   1   18   29     3     8    1.8908E+05 -3.2569E+03   1.9234E+05  0.000E+00  0.000E+00  0.000E+00  3.15101E+01  1.768E-01  2.000E+01  2.000E+04 -1.628E-01
   1   18   30     3     9    1.9234E+05 -3.4606E+03   1.9580E+05  0.000E+00  0.000E+00  0.000E+00  3.06231E+01  1.787E-01  2.000E+01  2.000E+04 -1.730E-01



1
              HEAD IN LAYER   1 AT END OF TIME STEP   1 IN STRESS PERIOD   10
  ---------------------------------------------------------------------------

          1      2      3      4      5      6      7      8      9     10
         11     12     13     14     15     16     17     18     19     20
         21     22     23     24     25     26     27     28     29     30
 .........................................................................
   1  ****** ****** ****** ****** ****** ****** ****** ****** ****** ******
      ****** ****** ****** ****** ****** ****** ****** ****** ****** ******
      ****** ****** ****** ****** ****** ****** ****** ****** ****** ******
   2  ****** ****** ****** ****** ****** ****** ****** ****** ****** ******
      ****** ****** ****** ****** ****** ****** ****** ****** ****** ******
      ****** ****** ****** ****** ****** ****** ****** ****** ****** ******
   3  ****** ****** ****** ****** ****** ****** ****** ****** ****** ******
      ****** ****** ****** ****** ****** ****** ****** ****** ****** ******
      ****** ****** ****** ****** ****** ****** ****** ****** ****** ******
   4  ****** ****** ****** ****** ****** ****** ****** ****** ****** ******
      ****** ****** ****** ****** ****** ****** ****** ****** ****** ******
      ****** ****** ****** ****** ****** ****** ****** ****** ****** ******
   5  ****** ****** ****** ****** ****** ****** ****** ****** ****** ******
      ****** ****** ****** ****** ****** ****** ****** ****** ****** ******
      ****** ****** ****** ****** ****** ****** ****** ****** ****** ******
   6  ****** ****** ****** ****** ****** ****** ****** ****** ****** ******
      ****** ****** ****** ****** ****** ****** ****** ****** ****** ******
      ****** ****** ****** ****** ****** ****** ****** ****** ****** ******
   7  ****** ****** ****** ****** ****** ****** ****** ****** ****** ******
      ****** ****** ****** ****** ****** ****** ****** ****** ****** ******
      ****** ****** ****** ****** ****** ****** ****** ****** ****** ******
   8  ****** ****** ****** ****** ****** ****** ****** ****** ****** ******
      ****** ****** ****** ****** ****** ****** ****** ****** ****** ******
      ****** ****** ****** ****** ****** ****** ****** ****** ****** ******
   9  ****** ****** ****** ****** ****** ****** ****** ****** ****** ******
      ****** ****** ****** ****** ****** ****** ****** ****** ****** ******
      ****** ****** ****** ****** ****** ****** ****** ****** ****** ******
  10  ****** ****** ****** ****** ****** ****** ****** ****** ****** ******
      ****** ****** ****** ****** ****** ****** ****** ****** ****** ******
      ****** ****** ****** ****** ****** ****** ****** ****** ****** ******
  11  ****** ****** ****** ****** ****** ****** ****** ****** ****** ******
      ****** ****** ****** ****** ****** ****** ****** ****** ****** ******
      ****** ****** ****** ****** ****** ****** ****** ****** ****** ******
  12  ****** ****** ****** ****** ****** ****** ****** ****** ****** ******
      ****** ****** ****** ****** ****** ****** ****** ****** ****** ******
      ****** ****** ****** ****** ****** ****** ****** ****** ****** ******
  13  ****** ****** ****** ****** ****** ****** ****** ****** ****** ******
      ****** ****** ****** ****** ****** ****** ****** ****** ****** ******
      ****** ****** ****** ****** ****** ****** ****** ****** ****** ******
  14  ****** ****** ****** ****** ****** ****** ****** ****** ****** ******
      ****** ****** ****** ****** ****** ****** ****** ****** ****** ******
      ****** ****** ****** ****** ****** ****** ****** ****** ****** ******
  15  ****** ****** ****** ****** ****** ****** ****** ****** ****** ******
      ****** ****** ****** ****** ****** ****** ****** ****** ****** ******
      ****** ****** ****** ****** ****** ****** ****** ****** ****** ******
  16  ****** ****** ****** ****** ****** ****** ****** ****** ****** ******
      ****** ****** ****** ****** ****** ****** ****** ****** ****** ******
      ****** ****** ****** ****** ****** ****** ****** ****** ****** ******
  17  ****** ****** ****** ****** ****** ****** ****** ****** ****** ******
      ****** ****** ****** ****** ****** ****** ****** ****** ****** ******
      ****** ****** ****** ****** ****** ****** ****** ****** ****** ******
  18  ****** ****** ****** ****** ****** ****** ****** ****** ****** ******
      ****** ****** ****** ****** ****** ****** ****** ****** ****** ******
      ****** ****** ****** ****** ****** ****** ****** ****** ****** ******
  19  ****** ****** ****** ****** ****** ****** ****** ****** ****** ******
      ****** ****** ****** ****** ****** ****** ****** ****** ****** ******
      ****** ****** ****** ****** ****** ****** ****** ****** ****** ******
  20  ****** ****** ****** ****** ****** ****** ****** ****** ****** ******
      ****** ****** ****** ****** ****** ****** ****** ****** ****** ******
      ****** ****** ****** ****** ****** ****** ****** ****** ****** ******
  21  ****** ****** ****** ****** ****** ****** ****** ****** ****** ******
      ****** ****** ****** ****** ****** ****** ****** ****** ****** ******
      ****** ****** ****** ****** ****** ****** ****** ****** ****** ******
  22  ****** ****** ****** ****** ****** ****** ****** ****** ****** ******
      ****** ****** ****** ****** ****** ****** ****** ****** ****** ******
      ****** ****** ****** ****** ****** ****** ****** ****** ****** ******
  23  ****** ****** ****** ****** ****** ****** ****** ****** ****** ******
      ****** ****** ****** ****** ****** ****** ****** ****** ****** ******
      ****** ****** ****** ****** ****** ****** ****** ****** ****** ******
  24  ****** ****** ****** ****** ****** ****** ****** ****** ****** ******
      ****** ****** ****** ****** ****** ****** ****** ****** ****** ******
      ****** ****** ****** ****** ****** ****** ****** ****** ****** ******
  25  ****** ****** ****** ****** ****** ****** ****** ****** ****** ******
      ****** ****** ****** ****** ****** ****** ****** ****** ****** ******
      ****** ****** ****** ****** ****** ****** ****** ****** ****** ******

 HEAD WILL BE SAVED ON UNIT   51 AT END OF TIME STEP    1, STRESS PERIOD   10
1
  VOLUMETRIC BUDGET FOR ENTIRE MODEL AT END OF TIME STEP    1, STRESS PERIOD  10
  ------------------------------------------------------------------------------

     CUMULATIVE VOLUMES      L**3       RATES FOR THIS TIME STEP      L**3/T
     ------------------                 ------------------------

           IN:                                      IN:
           ---                                      ---
             STORAGE =    33898568.5422               STORAGE =           0.0000
       CONSTANT HEAD =    25639936.7321         CONSTANT HEAD =       31790.2638
               WELLS =           0.0000                 WELLS =           0.0000
            RECHARGE =    23901600.0000              RECHARGE =       55200.0000
      STREAM LEAKAGE =     6477413.5568        STREAM LEAKAGE =        7071.1738

            TOTAL IN =    89917518.8311              TOTAL IN =       94061.4377

          OUT:                                     OUT:
          ----                                     ----
             STORAGE =     2339811.2797               STORAGE =       15623.2928
       CONSTANT HEAD =           0.0000         CONSTANT HEAD =           0.0000
               WELLS =    23345437.0328                 WELLS =       25570.0296
            RECHARGE =           0.0000              RECHARGE =           0.0000
      STREAM LEAKAGE =    64232272.1896        STREAM LEAKAGE =       52868.1113

           TOTAL OUT =    89917520.5021             TOTAL OUT =       94061.4337

            IN - OUT =          -1.6710              IN - OUT =       3.9237E-03

 PERCENT DISCREPANCY =          -0.00     PERCENT DISCREPANCY =           0.00






         TIME SUMMARY AT END OF TIME STEP    1 IN STRESS PERIOD   10
                    SECONDS     MINUTES      HOURS       DAYS        YEARS
                    -----------------------------------------------------------
   TIME STEP LENGTH 7.86240E+06 1.31040E+05  2184.0      91.000     0.24914    
 STRESS PERIOD TIME 7.86240E+06 1.31040E+05  2184.0      91.000     0.24914    
         TOTAL TIME 7.88832E+07 1.31472E+06  21912.      913.00      2.4997    
1
1
                            STRESS PERIOD NO.   11, LENGTH =   91.00000    
                            -----------------------------------------------

                              NUMBER OF TIME STEPS =     1

                               MULTIPLIER FOR DELT =     1.500

                            INITIAL TIME STEP SIZE =   91.00000    

 WELL NO.  LAYER   ROW   COL   STRESS RATE         
 --------------------------------------------------
      1      1     16      2      -8562.    
      2      1     23     16      -2065.    
      3      1     13     14      -6003.    
      4      1      6     16      -8940.    

      4 WELLS

                 RECHARGE =   0.00000    

 REUSING STREAM SEGMENT DATA FROM LAST STRESS PERIOD
 
 SOLVING FOR HEAD 


     7 CALLS TO PCG ROUTINE FOR TIME STEP   1 IN STRESS PERIOD   11
    26 TOTAL ITERATIONS

 OUTPUT CONTROL FOR STRESS PERIOD   11   TIME STEP    1
    SAVE BUDGET
    SAVE HEAD FOR ALL LAYERS
    PRINT HEAD FOR ALL LAYERS
 UBDSV2 SAVING "STREAMFLOW OUT  " ON UNIT  50 AT TIME STEP  1, STRESS PERIOD  11



 STREAM LISTING     PERIOD     11   STEP        1

 LAYER ROW COL. STREAM  RCH.  FLOW INTO     FLOW TO   FLOW OUT OF   OVRLND.     DIRECT     STREAM       STREAM     STREAM     STREAM   STREAMBED  STREAMBED
                SEG.NO.  NO.  STRM. RCH.    AQUIFER    STRM. RCH.    RUNOFF     PRECIP       ET          HEAD       DEPTH      WIDTH   CONDCTNC.   GRADIENT

   1   13    1     1     1    1.0000E+05  1.2353E+02   9.9876E+04  0.000E+00  0.000E+00  0.000E+00  4.84060E+01  1.446E-01  2.000E+01  2.000E+04  6.177E-03
   1   13    2     1     2    9.9876E+04 -7.7397E+02   1.0065E+05  0.000E+00  0.000E+00  0.000E+00  4.79290E+01  1.449E-01  2.000E+01  2.000E+04 -3.870E-02
   1   14    3     1     3    1.0065E+05  1.5948E+02   1.0049E+05  0.000E+00  0.000E+00  0.000E+00  4.74520E+01  1.451E-01  2.000E+01  2.000E+04  7.974E-03
   1   15    4     1     4    1.0049E+05  1.9437E+02   1.0030E+05  0.000E+00  0.000E+00  0.000E+00  4.69745E+01  1.450E-01  2.000E+01  2.000E+04  9.719E-03
   1   16    5     1     5    1.0030E+05  9.6716E+02   9.9329E+04  0.000E+00  0.000E+00  0.000E+00  4.64968E+01  1.445E-01  2.000E+01  2.000E+04  4.836E-02
   1   16    6     1     6    9.9329E+04 -3.3990E+02   9.9669E+04  0.000E+00  0.000E+00  0.000E+00  4.60192E+01  1.442E-01  2.000E+01  2.000E+04 -1.699E-02
   1   16    7     1     7    9.9669E+04 -5.3350E+02   1.0020E+05  0.000E+00  0.000E+00  0.000E+00  4.55423E+01  1.446E-01  2.000E+01  2.000E+04 -2.667E-02
   1   16    8     1     8    1.0020E+05 -6.2435E+02   1.0083E+05  0.000E+00  0.000E+00  0.000E+00  4.50656E+01  1.451E-01  2.000E+01  2.000E+04 -3.122E-02
   1   16    9     1     9    1.0083E+05 -6.7133E+02   1.0150E+05  0.000E+00  0.000E+00  0.000E+00  4.45888E+01  1.457E-01  2.000E+01  2.000E+04 -3.357E-02
   1   16   10     1    10    1.0150E+05 -6.9218E+02   1.0219E+05  0.000E+00  0.000E+00  0.000E+00  4.41122E+01  1.462E-01  2.000E+01  2.000E+04 -3.461E-02
   1   16   11     1    11    1.0219E+05 -7.0801E+02   1.0290E+05  0.000E+00  0.000E+00  0.000E+00  4.36355E+01  1.468E-01  2.000E+01  2.000E+04 -3.540E-02
   1   16   12     1    12    1.0290E+05 -1.1332E+03   1.0403E+05  0.000E+00  0.000E+00  0.000E+00  4.31590E+01  1.476E-01  2.000E+01  2.000E+04 -5.666E-02
   1   15   13     1    13    1.0403E+05 -6.4252E+02   1.0467E+05  0.000E+00  0.000E+00  0.000E+00  4.26825E+01  1.484E-01  2.000E+01  2.000E+04 -3.213E-02
   1   14   14     1    14    1.0467E+05  9.2844E+02   1.0375E+05  0.000E+00  0.000E+00  0.000E+00  4.22051E+01  1.483E-01  2.000E+01  2.000E+04  4.642E-02
   1   13   15     1    15    1.0375E+05  7.8182E+02   1.0296E+05  0.000E+00  0.000E+00  0.000E+00  4.17271E+01  1.475E-01  2.000E+01  2.000E+04  3.909E-02
   1   12   16     1    16    1.0296E+05 -1.1569E+03   1.0412E+05  0.000E+00  0.000E+00  0.000E+00  4.12500E+01  1.477E-01  2.000E+01  2.000E+04 -5.784E-02
   1   12   17     1    17    1.0412E+05 -9.9377E+02   1.0511E+05  0.000E+00  0.000E+00  0.000E+00  4.07736E+01  1.486E-01  2.000E+01  2.000E+04 -4.969E-02
   1   12   18     1    18    1.0511E+05 -1.0363E+03   1.0615E+05  0.000E+00  0.000E+00  0.000E+00  4.02972E+01  1.495E-01  2.000E+01  2.000E+04 -5.181E-02
   1   12   19     1    19    1.0615E+05 -1.4699E+03   1.0762E+05  0.000E+00  0.000E+00  0.000E+00  3.98210E+01  1.505E-01  2.000E+01  2.000E+04 -7.349E-02
   1   13   20     1    20    1.0762E+05 -1.2847E+03   1.0891E+05  0.000E+00  0.000E+00  0.000E+00  3.93449E+01  1.517E-01  2.000E+01  2.000E+04 -6.424E-02
   1   14   21     1    21    1.0891E+05 -1.2724E+03   1.1018E+05  0.000E+00  0.000E+00  0.000E+00  3.88687E+01  1.528E-01  2.000E+01  2.000E+04 -6.362E-02
   1   14   22     1    22    1.1018E+05  4.8301E+03   1.0535E+05  0.000E+00  0.000E+00  0.000E+00  3.83899E+01  1.513E-01  2.000E+01  2.000E+04  2.415E-01
   1    9   30     2     1    5.0000E+04 -3.9991E+02   5.0400E+04  0.000E+00  0.000E+00  0.000E+00  4.02411E+01  1.161E-01  2.000E+01  2.000E+04 -2.000E-02
   1    9   29     2     2    5.0400E+04 -6.8852E+02   5.1088E+04  0.000E+00  0.000E+00  0.000E+00  3.99919E+01  1.169E-01  2.000E+01  2.000E+04 -3.443E-02
   1    9   28     2     3    5.1088E+04 -9.1393E+02   5.2002E+04  0.000E+00  0.000E+00  0.000E+00  3.97430E+01  1.180E-01  2.000E+01  2.000E+04 -4.570E-02
   1    9   27     2     4    5.2002E+04 -1.9371E+03   5.3940E+04  0.000E+00  0.000E+00  0.000E+00  3.94949E+01  1.199E-01  2.000E+01  2.000E+04 -9.686E-02
   1   10   26     2     5    5.3940E+04 -1.1594E+03   5.5099E+04  0.000E+00  0.000E+00  0.000E+00  3.92470E+01  1.220E-01  2.000E+01  2.000E+04 -5.797E-02
   1   11   25     2     6    5.5099E+04 -9.6573E+02   5.6065E+04  0.000E+00  0.000E+00  0.000E+00  3.89985E+01  1.235E-01  2.000E+01  2.000E+04 -4.829E-02
   1   12   24     2     7    5.6065E+04 -1.0442E+03   5.7109E+04  0.000E+00  0.000E+00  0.000E+00  3.87498E+01  1.248E-01  2.000E+01  2.000E+04 -5.221E-02
   1   13   23     2     8    5.7109E+04 -1.4103E+02   5.7250E+04  0.000E+00  0.000E+00  0.000E+00  3.85006E+01  1.256E-01  2.000E+01  2.000E+04 -7.051E-03
   1   14   22     2     9    5.7250E+04  2.0184E+03   5.5231E+04  0.000E+00  0.000E+00  0.000E+00  3.82493E+01  1.243E-01  2.000E+01  2.000E+04  1.009E-01
   1   14   22     3     1    1.6058E+05 -8.6165E+03   1.6920E+05  0.000E+00  0.000E+00  0.000E+00  3.77176E+01  1.620E-01  2.000E+01  2.000E+04 -4.308E-01
   1   15   23     3     2    1.6920E+05 -4.5048E+02   1.6965E+05  0.000E+00  0.000E+00  0.000E+00  3.68314E+01  1.647E-01  2.000E+01  2.000E+04 -2.252E-02
   1   15   24     3     3    1.6965E+05 -2.1064E+02   1.6986E+05  0.000E+00  0.000E+00  0.000E+00  3.59427E+01  1.649E-01  2.000E+01  2.000E+04 -1.053E-02
   1   15   25     3     4    1.6986E+05 -2.0377E+02   1.7006E+05  0.000E+00  0.000E+00  0.000E+00  3.50539E+01  1.650E-01  2.000E+01  2.000E+04 -1.019E-02
   1   15   26     3     5    1.7006E+05 -2.5272E+02   1.7031E+05  0.000E+00  0.000E+00  0.000E+00  3.41651E+01  1.651E-01  2.000E+01  2.000E+04 -1.264E-02
   1   16   27     3     6    1.7031E+05 -2.7199E+02   1.7059E+05  0.000E+00  0.000E+00  0.000E+00  3.32764E+01  1.653E-01  2.000E+01  2.000E+04 -1.360E-02
   1   17   28     3     7    1.7059E+05 -1.3083E+03   1.7189E+05  0.000E+00  0.000E+00  0.000E+00  3.23880E+01  1.658E-01  2.000E+01  2.000E+04 -6.541E-02
   1   18   29     3     8    1.7189E+05 -2.6354E+03   1.7453E+05  0.000E+00  0.000E+00  0.000E+00  3.15002E+01  1.669E-01  2.000E+01  2.000E+04 -1.318E-01
   1   18   30     3     9    1.7453E+05 -2.9717E+03   1.7750E+05  0.000E+00  0.000E+00  0.000E+00  3.06130E+01  1.685E-01  2.000E+01  2.000E+04 -1.486E-01



1
              HEAD IN LAYER   1 AT END OF TIME STEP   1 IN STRESS PERIOD   11
  ---------------------------------------------------------------------------

          1      2      3      4      5      6      7      8      9     10
         11     12     13     14     15     16     17     18     19     20
         21     22     23     24     25     26     27     28     29     30
 .........................................................................
   1  ****** ****** ****** ****** ****** ****** ****** ****** ****** ******
      ****** ****** ****** ****** ****** ****** ****** ****** ****** ******
      ****** ****** ****** ****** ****** ****** ****** ****** ****** ******
   2  ****** ****** ****** ****** ****** ****** ****** ****** ****** ******
      ****** ****** ****** ****** ****** ****** ****** ****** ****** ******
      ****** ****** ****** ****** ****** ****** ****** ****** ****** ******
   3  ****** ****** ****** ****** ****** ****** ****** ****** ****** ******
      ****** ****** ****** ****** ****** ****** ****** ****** ****** ******
      ****** ****** ****** ****** ****** ****** ****** ****** ****** ******
   4  ****** ****** ****** ****** ****** ****** ****** ****** ****** ******
      ****** ****** ****** ****** ****** ****** ****** ****** ****** ******
      ****** ****** ****** ****** ****** ****** ****** ****** ****** ******
   5  ****** ****** ****** ****** ****** ****** ****** ****** ****** ******
      ****** ****** ****** ****** ****** ****** ****** ****** ****** ******
      ****** ****** ****** ****** ****** ****** ****** ****** ****** ******
   6  ****** ****** ****** ****** ****** ****** ****** ****** ****** ******
      ****** ****** ****** ****** ****** ****** ****** ****** ****** ******
      ****** ****** ****** ****** ****** ****** ****** ****** ****** ******
   7  ****** ****** ****** ****** ****** ****** ****** ****** ****** ******
      ****** ****** ****** ****** ****** ****** ****** ****** ****** ******
      ****** ****** ****** ****** ****** ****** ****** ****** ****** ******
   8  ****** ****** ****** ****** ****** ****** ****** ****** ****** ******
      ****** ****** ****** ****** ****** ****** ****** ****** ****** ******
      ****** ****** ****** ****** ****** ****** ****** ****** ****** ******
   9  ****** ****** ****** ****** ****** ****** ****** ****** ****** ******
      ****** ****** ****** ****** ****** ****** ****** ****** ****** ******
      ****** ****** ****** ****** ****** ****** ****** ****** ****** ******
  10  ****** ****** ****** ****** ****** ****** ****** ****** ****** ******
      ****** ****** ****** ****** ****** ****** ****** ****** ****** ******
      ****** ****** ****** ****** ****** ****** ****** ****** ****** ******
  11  ****** ****** ****** ****** ****** ****** ****** ****** ****** ******
      ****** ****** ****** ****** ****** ****** ****** ****** ****** ******
      ****** ****** ****** ****** ****** ****** ****** ****** ****** ******
  12  ****** ****** ****** ****** ****** ****** ****** ****** ****** ******
      ****** ****** ****** ****** ****** ****** ****** ****** ****** ******
      ****** ****** ****** ****** ****** ****** ****** ****** ****** ******
  13  ****** ****** ****** ****** ****** ****** ****** ****** ****** ******
      ****** ****** ****** ****** ****** ****** ****** ****** ****** ******
      ****** ****** ****** ****** ****** ****** ****** ****** ****** ******
  14  ****** ****** ****** ****** ****** ****** ****** ****** ****** ******
      ****** ****** ****** ****** ****** ****** ****** ****** ****** ******
      ****** ****** ****** ****** ****** ****** ****** ****** ****** ******
  15  ****** ****** ****** ****** ****** ****** ****** ****** ****** ******
      ****** ****** ****** ****** ****** ****** ****** ****** ****** ******
      ****** ****** ****** ****** ****** ****** ****** ****** ****** ******
  16  ****** ****** ****** ****** ****** ****** ****** ****** ****** ******
      ****** ****** ****** ****** ****** ****** ****** ****** ****** ******
      ****** ****** ****** ****** ****** ****** ****** ****** ****** ******
  17  ****** ****** ****** ****** ****** ****** ****** ****** ****** ******
      ****** ****** ****** ****** ****** ****** ****** ****** ****** ******
      ****** ****** ****** ****** ****** ****** ****** ****** ****** ******
  18  ****** ****** ****** ****** ****** ****** ****** ****** ****** ******
      ****** ****** ****** ****** ****** ****** ****** ****** ****** ******
      ****** ****** ****** ****** ****** ****** ****** ****** ****** ******
  19  ****** ****** ****** ****** ****** ****** ****** ****** ****** ******
      ****** ****** ****** ****** ****** ****** ****** ****** ****** ******
      ****** ****** ****** ****** ****** ****** ****** ****** ****** ******
  20  ****** ****** ****** ****** ****** ****** ****** ****** ****** ******
      ****** ****** ****** ****** ****** ****** ****** ****** ****** ******
      ****** ****** ****** ****** ****** ****** ****** ****** ****** ******
  21  ****** ****** ****** ****** ****** ****** ****** ****** ****** ******
      ****** ****** ****** ****** ****** ****** ****** ****** ****** ******
      ****** ****** ****** ****** ****** ****** ****** ****** ****** ******
  22  ****** ****** ****** ****** ****** ****** ****** ****** ****** ******
      ****** ****** ****** ****** ****** ****** ****** ****** ****** ******
      ****** ****** ****** ****** ****** ****** ****** ****** ****** ******
  23  ****** ****** ****** ****** ****** ****** ****** ****** ****** ******
      ****** ****** ****** ****** ****** ****** ****** ****** ****** ******
      ****** ****** ****** ****** ****** ****** ****** ****** ****** ******
  24  ****** ****** ****** ****** ****** ****** ****** ****** ****** ******
      ****** ****** ****** ****** ****** ****** ****** ****** ****** ******
      ****** ****** ****** ****** ****** ****** ****** ****** ****** ******
  25  ****** ****** ****** ****** ****** ****** ****** ****** ****** ******
      ****** ****** ****** ****** ****** ****** ****** ****** ****** ******
      ****** ****** ****** ****** ****** ****** ****** ****** ****** ******

 HEAD WILL BE SAVED ON UNIT   51 AT END OF TIME STEP    1, STRESS PERIOD   11
1
  VOLUMETRIC BUDGET FOR ENTIRE MODEL AT END OF TIME STEP    1, STRESS PERIOD  11
  ------------------------------------------------------------------------------

     CUMULATIVE VOLUMES      L**3       RATES FOR THIS TIME STEP      L**3/T
     ------------------                 ------------------------

           IN:                                      IN:
           ---                                      ---
             STORAGE =    35535624.5838               STORAGE =       17989.6268
       CONSTANT HEAD =    28832326.6972         CONSTANT HEAD =       35081.2084
               WELLS =           0.0000                 WELLS =           0.0000
            RECHARGE =    23901600.0000              RECHARGE =           0.0000
      STREAM LEAKAGE =     7387719.6082        STREAM LEAKAGE =       10003.3632

            TOTAL IN =    95657270.8892              TOTAL IN =       63074.1984

          OUT:                                     OUT:
          ----                                     ----
             STORAGE =     2339811.2797               STORAGE =           0.0000
       CONSTANT HEAD =           0.0000         CONSTANT HEAD =           0.0000
               WELLS =    25672309.7272                 WELLS =       25570.0296
            RECHARGE =           0.0000              RECHARGE =           0.0000
      STREAM LEAKAGE =    67645152.0207        STREAM LEAKAGE =       37504.1740

           TOTAL OUT =    95657273.0277             TOTAL OUT =       63074.2036

            IN - OUT =          -2.1385              IN - OUT =      -5.1371E-03

 PERCENT DISCREPANCY =          -0.00     PERCENT DISCREPANCY =          -0.00






         TIME SUMMARY AT END OF TIME STEP    1 IN STRESS PERIOD   11
                    SECONDS     MINUTES      HOURS       DAYS        YEARS
                    -----------------------------------------------------------
   TIME STEP LENGTH 7.86240E+06 1.31040E+05  2184.0      91.000     0.24914    
 STRESS PERIOD TIME 7.86240E+06 1.31040E+05  2184.0      91.000     0.24914    
         TOTAL TIME 8.67456E+07 1.44576E+06  24096.      1004.0      2.7488    
1
1
                            STRESS PERIOD NO.   12, LENGTH =   91.00000    
                            -----------------------------------------------

                              NUMBER OF TIME STEPS =     1

                               MULTIPLIER FOR DELT =     1.500

                            INITIAL TIME STEP SIZE =   91.00000    

 WELL NO.  LAYER   ROW   COL   STRESS RATE         
 --------------------------------------------------
      1      1     16      2      -8562.    
      2      1     23     16      -2065.    
      3      1     13     14      -6003.    
      4      1      6     16      -8940.    

      4 WELLS

                 RECHARGE =  1.000000E-03

 REUSING STREAM SEGMENT DATA FROM LAST STRESS PERIOD
 
 SOLVING FOR HEAD 


     7 CALLS TO PCG ROUTINE FOR TIME STEP   1 IN STRESS PERIOD   12
    24 TOTAL ITERATIONS

 OUTPUT CONTROL FOR STRESS PERIOD   12   TIME STEP    1
    SAVE BUDGET
    SAVE HEAD FOR ALL LAYERS
    PRINT HEAD FOR ALL LAYERS
 UBDSV2 SAVING "STREAMFLOW OUT  " ON UNIT  50 AT TIME STEP  1, STRESS PERIOD  12



 STREAM LISTING     PERIOD     12   STEP        1

 LAYER ROW COL. STREAM  RCH.  FLOW INTO     FLOW TO   FLOW OUT OF   OVRLND.     DIRECT     STREAM       STREAM     STREAM     STREAM   STREAMBED  STREAMBED
                SEG.NO.  NO.  STRM. RCH.    AQUIFER    STRM. RCH.    RUNOFF     PRECIP       ET          HEAD       DEPTH      WIDTH   CONDCTNC.   GRADIENT

   1   13    1     1     1    1.0000E+05 -1.9239E+01   1.0002E+05  0.000E+00  0.000E+00  0.000E+00  4.84060E+01  1.447E-01  2.000E+01  2.000E+04 -9.619E-04
   1   13    2     1     2    1.0002E+05 -9.2732E+02   1.0095E+05  0.000E+00  0.000E+00  0.000E+00  4.79292E+01  1.451E-01  2.000E+01  2.000E+04 -4.637E-02
   1   14    3     1     3    1.0095E+05  8.1205E+01   1.0087E+05  0.000E+00  0.000E+00  0.000E+00  4.74523E+01  1.454E-01  2.000E+01  2.000E+04  4.060E-03
   1   15    4     1     4    1.0087E+05  1.1224E+02   1.0075E+05  0.000E+00  0.000E+00  0.000E+00  4.69749E+01  1.454E-01  2.000E+01  2.000E+04  5.612E-03
   1   16    5     1     5    1.0075E+05  7.5757E+02   9.9996E+04  0.000E+00  0.000E+00  0.000E+00  4.64972E+01  1.450E-01  2.000E+01  2.000E+04  3.788E-02
   1   16    6     1     6    9.9996E+04 -4.7014E+02   1.0047E+05  0.000E+00  0.000E+00  0.000E+00  4.60199E+01  1.449E-01  2.000E+01  2.000E+04 -2.351E-02
   1   16    7     1     7    1.0047E+05 -6.5864E+02   1.0112E+05  0.000E+00  0.000E+00  0.000E+00  4.55431E+01  1.453E-01  2.000E+01  2.000E+04 -3.293E-02
   1   16    8     1     8    1.0112E+05 -7.4847E+02   1.0187E+05  0.000E+00  0.000E+00  0.000E+00  4.50664E+01  1.459E-01  2.000E+01  2.000E+04 -3.742E-02
   1   16    9     1     9    1.0187E+05 -7.9591E+02   1.0267E+05  0.000E+00  0.000E+00  0.000E+00  4.45898E+01  1.466E-01  2.000E+01  2.000E+04 -3.980E-02
   1   16   10     1    10    1.0267E+05 -8.1813E+02   1.0349E+05  0.000E+00  0.000E+00  0.000E+00  4.41132E+01  1.473E-01  2.000E+01  2.000E+04 -4.091E-02
   1   16   11     1    11    1.0349E+05 -8.3624E+02   1.0432E+05  0.000E+00  0.000E+00  0.000E+00  4.36367E+01  1.480E-01  2.000E+01  2.000E+04 -4.181E-02
   1   16   12     1    12    1.0432E+05 -1.3347E+03   1.0566E+05  0.000E+00  0.000E+00  0.000E+00  4.31603E+01  1.489E-01  2.000E+01  2.000E+04 -6.674E-02
   1   15   13     1    13    1.0566E+05 -8.5902E+02   1.0652E+05  0.000E+00  0.000E+00  0.000E+00  4.26840E+01  1.499E-01  2.000E+01  2.000E+04 -4.295E-02
   1   14   14     1    14    1.0652E+05  7.1156E+02   1.0581E+05  0.000E+00  0.000E+00  0.000E+00  4.22068E+01  1.499E-01  2.000E+01  2.000E+04  3.558E-02
   1   13   15     1    15    1.0581E+05  5.7242E+02   1.0523E+05  0.000E+00  0.000E+00  0.000E+00  4.17289E+01  1.494E-01  2.000E+01  2.000E+04  2.862E-02
   1   12   16     1    16    1.0523E+05 -1.3395E+03   1.0657E+05  0.000E+00  0.000E+00  0.000E+00  4.12520E+01  1.497E-01  2.000E+01  2.000E+04 -6.698E-02
   1   12   17     1    17    1.0657E+05 -1.1469E+03   1.0772E+05  0.000E+00  0.000E+00  0.000E+00  4.07758E+01  1.508E-01  2.000E+01  2.000E+04 -5.734E-02
   1   12   18     1    18    1.0772E+05 -1.1916E+03   1.0891E+05  0.000E+00  0.000E+00  0.000E+00  4.02995E+01  1.518E-01  2.000E+01  2.000E+04 -5.958E-02
   1   12   19     1    19    1.0891E+05 -1.6620E+03   1.1057E+05  0.000E+00  0.000E+00  0.000E+00  3.98234E+01  1.529E-01  2.000E+01  2.000E+04 -8.310E-02
   1   13   20     1    20    1.1057E+05 -1.4950E+03   1.1207E+05  0.000E+00  0.000E+00  0.000E+00  3.93474E+01  1.543E-01  2.000E+01  2.000E+04 -7.475E-02
   1   14   21     1    21    1.1207E+05 -1.4665E+03   1.1353E+05  0.000E+00  0.000E+00  0.000E+00  3.88714E+01  1.555E-01  2.000E+01  2.000E+04 -7.333E-02
   1   14   22     1    22    1.1353E+05  4.7782E+03   1.0876E+05  0.000E+00  0.000E+00  0.000E+00  3.83928E+01  1.541E-01  2.000E+01  2.000E+04  2.389E-01
   1    9   30     2     1    5.0000E+04 -5.7625E+02   5.0576E+04  0.000E+00  0.000E+00  0.000E+00  4.02413E+01  1.163E-01  2.000E+01  2.000E+04 -2.881E-02
   1    9   29     2     2    5.0576E+04 -8.6280E+02   5.1439E+04  0.000E+00  0.000E+00  0.000E+00  3.99923E+01  1.173E-01  2.000E+01  2.000E+04 -4.314E-02
   1    9   28     2     3    5.1439E+04 -1.0847E+03   5.2524E+04  0.000E+00  0.000E+00  0.000E+00  3.97436E+01  1.186E-01  2.000E+01  2.000E+04 -5.423E-02
   1    9   27     2     4    5.2524E+04 -2.1461E+03   5.4670E+04  0.000E+00  0.000E+00  0.000E+00  3.94958E+01  1.208E-01  2.000E+01  2.000E+04 -1.073E-01
   1   10   26     2     5    5.4670E+04 -1.3890E+03   5.6059E+04  0.000E+00  0.000E+00  0.000E+00  3.92482E+01  1.232E-01  2.000E+01  2.000E+04 -6.945E-02
   1   11   25     2     6    5.6059E+04 -1.1915E+03   5.7250E+04  0.000E+00  0.000E+00  0.000E+00  3.89999E+01  1.249E-01  2.000E+01  2.000E+04 -5.957E-02
   1   12   24     2     7    5.7250E+04 -1.2502E+03   5.8501E+04  0.000E+00  0.000E+00  0.000E+00  3.87515E+01  1.265E-01  2.000E+01  2.000E+04 -6.251E-02
   1   13   23     2     8    5.8501E+04 -2.1865E+02   5.8719E+04  0.000E+00  0.000E+00  0.000E+00  3.85025E+01  1.275E-01  2.000E+01  2.000E+04 -1.093E-02
   1   14   22     2     9    5.8719E+04  1.9495E+03   5.6770E+04  0.000E+00  0.000E+00  0.000E+00  3.82513E+01  1.263E-01  2.000E+01  2.000E+04  9.747E-02
   1   14   22     3     1    1.6553E+05 -8.6668E+03   1.7419E+05  0.000E+00  0.000E+00  0.000E+00  3.77205E+01  1.650E-01  2.000E+01  2.000E+04 -4.333E-01
   1   15   23     3     2    1.7419E+05 -5.2256E+02   1.7472E+05  0.000E+00  0.000E+00  0.000E+00  3.68343E+01  1.676E-01  2.000E+01  2.000E+04 -2.613E-02
   1   15   24     3     3    1.7472E+05 -2.7576E+02   1.7499E+05  0.000E+00  0.000E+00  0.000E+00  3.59456E+01  1.678E-01  2.000E+01  2.000E+04 -1.379E-02
   1   15   25     3     4    1.7499E+05 -2.7016E+02   1.7526E+05  0.000E+00  0.000E+00  0.000E+00  3.50569E+01  1.680E-01  2.000E+01  2.000E+04 -1.351E-02
   1   15   26     3     5    1.7526E+05 -3.3022E+02   1.7559E+05  0.000E+00  0.000E+00  0.000E+00  3.41682E+01  1.682E-01  2.000E+01  2.000E+04 -1.651E-02
   1   16   27     3     6    1.7559E+05 -3.5881E+02   1.7595E+05  0.000E+00  0.000E+00  0.000E+00  3.32795E+01  1.684E-01  2.000E+01  2.000E+04 -1.794E-02
   1   17   28     3     7    1.7595E+05 -1.5291E+03   1.7748E+05  0.000E+00  0.000E+00  0.000E+00  3.23911E+01  1.689E-01  2.000E+01  2.000E+04 -7.646E-02
   1   18   29     3     8    1.7748E+05 -2.8363E+03   1.8032E+05  0.000E+00  0.000E+00  0.000E+00  3.15035E+01  1.702E-01  2.000E+01  2.000E+04 -1.418E-01
   1   18   30     3     9    1.8032E+05 -3.1400E+03   1.8346E+05  0.000E+00  0.000E+00  0.000E+00  3.06163E+01  1.719E-01  2.000E+01  2.000E+04 -1.570E-01



1
              HEAD IN LAYER   1 AT END OF TIME STEP   1 IN STRESS PERIOD   12
  ---------------------------------------------------------------------------

          1      2      3      4      5      6      7      8      9     10
         11     12     13     14     15     16     17     18     19     20
         21     22     23     24     25     26     27     28     29     30
 .........................................................................
   1  ****** ****** ****** ****** ****** ****** ****** ****** ****** ******
      ****** ****** ****** ****** ****** ****** ****** ****** ****** ******
      ****** ****** ****** ****** ****** ****** ****** ****** ****** ******
   2  ****** ****** ****** ****** ****** ****** ****** ****** ****** ******
      ****** ****** ****** ****** ****** ****** ****** ****** ****** ******
      ****** ****** ****** ****** ****** ****** ****** ****** ****** ******
   3  ****** ****** ****** ****** ****** ****** ****** ****** ****** ******
      ****** ****** ****** ****** ****** ****** ****** ****** ****** ******
      ****** ****** ****** ****** ****** ****** ****** ****** ****** ******
   4  ****** ****** ****** ****** ****** ****** ****** ****** ****** ******
      ****** ****** ****** ****** ****** ****** ****** ****** ****** ******
      ****** ****** ****** ****** ****** ****** ****** ****** ****** ******
   5  ****** ****** ****** ****** ****** ****** ****** ****** ****** ******
      ****** ****** ****** ****** ****** ****** ****** ****** ****** ******
      ****** ****** ****** ****** ****** ****** ****** ****** ****** ******
   6  ****** ****** ****** ****** ****** ****** ****** ****** ****** ******
      ****** ****** ****** ****** ****** ****** ****** ****** ****** ******
      ****** ****** ****** ****** ****** ****** ****** ****** ****** ******
   7  ****** ****** ****** ****** ****** ****** ****** ****** ****** ******
      ****** ****** ****** ****** ****** ****** ****** ****** ****** ******
      ****** ****** ****** ****** ****** ****** ****** ****** ****** ******
   8  ****** ****** ****** ****** ****** ****** ****** ****** ****** ******
      ****** ****** ****** ****** ****** ****** ****** ****** ****** ******
      ****** ****** ****** ****** ****** ****** ****** ****** ****** ******
   9  ****** ****** ****** ****** ****** ****** ****** ****** ****** ******
      ****** ****** ****** ****** ****** ****** ****** ****** ****** ******
      ****** ****** ****** ****** ****** ****** ****** ****** ****** ******
  10  ****** ****** ****** ****** ****** ****** ****** ****** ****** ******
      ****** ****** ****** ****** ****** ****** ****** ****** ****** ******
      ****** ****** ****** ****** ****** ****** ****** ****** ****** ******
  11  ****** ****** ****** ****** ****** ****** ****** ****** ****** ******
      ****** ****** ****** ****** ****** ****** ****** ****** ****** ******
      ****** ****** ****** ****** ****** ****** ****** ****** ****** ******
  12  ****** ****** ****** ****** ****** ****** ****** ****** ****** ******
      ****** ****** ****** ****** ****** ****** ****** ****** ****** ******
      ****** ****** ****** ****** ****** ****** ****** ****** ****** ******
  13  ****** ****** ****** ****** ****** ****** ****** ****** ****** ******
      ****** ****** ****** ****** ****** ****** ****** ****** ****** ******
      ****** ****** ****** ****** ****** ****** ****** ****** ****** ******
  14  ****** ****** ****** ****** ****** ****** ****** ****** ****** ******
      ****** ****** ****** ****** ****** ****** ****** ****** ****** ******
      ****** ****** ****** ****** ****** ****** ****** ****** ****** ******
  15  ****** ****** ****** ****** ****** ****** ****** ****** ****** ******
      ****** ****** ****** ****** ****** ****** ****** ****** ****** ******
      ****** ****** ****** ****** ****** ****** ****** ****** ****** ******
  16  ****** ****** ****** ****** ****** ****** ****** ****** ****** ******
      ****** ****** ****** ****** ****** ****** ****** ****** ****** ******
      ****** ****** ****** ****** ****** ****** ****** ****** ****** ******
  17  ****** ****** ****** ****** ****** ****** ****** ****** ****** ******
      ****** ****** ****** ****** ****** ****** ****** ****** ****** ******
      ****** ****** ****** ****** ****** ****** ****** ****** ****** ******
  18  ****** ****** ****** ****** ****** ****** ****** ****** ****** ******
      ****** ****** ****** ****** ****** ****** ****** ****** ****** ******
      ****** ****** ****** ****** ****** ****** ****** ****** ****** ******
  19  ****** ****** ****** ****** ****** ****** ****** ****** ****** ******
      ****** ****** ****** ****** ****** ****** ****** ****** ****** ******
      ****** ****** ****** ****** ****** ****** ****** ****** ****** ******
  20  ****** ****** ****** ****** ****** ****** ****** ****** ****** ******
      ****** ****** ****** ****** ****** ****** ****** ****** ****** ******
      ****** ****** ****** ****** ****** ****** ****** ****** ****** ******
  21  ****** ****** ****** ****** ****** ****** ****** ****** ****** ******
      ****** ****** ****** ****** ****** ****** ****** ****** ****** ******
      ****** ****** ****** ****** ****** ****** ****** ****** ****** ******
  22  ****** ****** ****** ****** ****** ****** ****** ****** ****** ******
      ****** ****** ****** ****** ****** ****** ****** ****** ****** ******
      ****** ****** ****** ****** ****** ****** ****** ****** ****** ******
  23  ****** ****** ****** ****** ****** ****** ****** ****** ****** ******
      ****** ****** ****** ****** ****** ****** ****** ****** ****** ******
      ****** ****** ****** ****** ****** ****** ****** ****** ****** ******
  24  ****** ****** ****** ****** ****** ****** ****** ****** ****** ******
      ****** ****** ****** ****** ****** ****** ****** ****** ****** ******
      ****** ****** ****** ****** ****** ****** ****** ****** ****** ******
  25  ****** ****** ****** ****** ****** ****** ****** ****** ****** ******
      ****** ****** ****** ****** ****** ****** ****** ****** ****** ******
      ****** ****** ****** ****** ****** ****** ****** ****** ****** ******

 HEAD WILL BE SAVED ON UNIT   51 AT END OF TIME STEP    1, STRESS PERIOD   12
1
  VOLUMETRIC BUDGET FOR ENTIRE MODEL AT END OF TIME STEP    1, STRESS PERIOD  12
  ------------------------------------------------------------------------------

     CUMULATIVE VOLUMES      L**3       RATES FOR THIS TIME STEP      L**3/T
     ------------------                 ------------------------

           IN:                                      IN:
           ---                                      ---
             STORAGE =    35537125.8824               STORAGE =          16.4978
       CONSTANT HEAD =    31961719.3137         CONSTANT HEAD =       34388.9299
               WELLS =           0.0000                 WELLS =           0.0000
            RECHARGE =    26413200.0000              RECHARGE =       27600.0000
      STREAM LEAKAGE =     8203322.8063        STREAM LEAKAGE =        8962.6725

            TOTAL IN =   102115368.0025              TOTAL IN =       70968.1001

          OUT:                                     OUT:
          ----                                     ----
             STORAGE =     2610974.7752               STORAGE =        2979.8186
       CONSTANT HEAD =           0.0000         CONSTANT HEAD =           0.0000
               WELLS =    27999182.4216                 WELLS =       25570.0296
            RECHARGE =           0.0000              RECHARGE =           0.0000
      STREAM LEAKAGE =    71505212.8548        STREAM LEAKAGE =       42418.2509

           TOTAL OUT =   102115370.0516             TOTAL OUT =       70968.0992

            IN - OUT =          -2.0491              IN - OUT =       9.8213E-04

 PERCENT DISCREPANCY =          -0.00     PERCENT DISCREPANCY =           0.00






         TIME SUMMARY AT END OF TIME STEP    1 IN STRESS PERIOD   12
                    SECONDS     MINUTES      HOURS       DAYS        YEARS
                    -----------------------------------------------------------
   TIME STEP LENGTH 7.86240E+06 1.31040E+05  2184.0      91.000     0.24914    
 STRESS PERIOD TIME 7.86240E+06 1.31040E+05  2184.0      91.000     0.24914    
         TOTAL TIME 9.46080E+07 1.57680E+06  26280.      1095.0      2.9979    
1

 Run end date and time (yyyy/mm/dd hh:mm:ss): 2019/03/28 21:46:12
 Elapsed run time:  0.084 Seconds

