                                  MODFLOW-2005     
      U.S. GEOLOGICAL SURVEY MODULAR FINITE-DIFFERENCE GROUND-WATER FLOW MODEL
                            VERSION 1.11.00 8/8/2013

 LIST FILE: supply2.lst
                         UNIT   10

 OPENING ..\data\supply.dis
 FILE TYPE:DIS   UNIT   11   STATUS:OLD    
 FORMAT:FORMATTED              ACCESS:SEQUENTIAL          

 OPENING ..\data\supply.ba6
 FILE TYPE:BAS6   UNIT   12   STATUS:OLD    
 FORMAT:FORMATTED              ACCESS:SEQUENTIAL          

 OPENING ..\data\supply_het.bc6
 FILE TYPE:BCF6   UNIT   13   STATUS:OLD    
 FORMAT:FORMATTED              ACCESS:SEQUENTIAL          

 OPENING ..\data\supply.rch
 FILE TYPE:RCH   UNIT   15   STATUS:OLD    
 FORMAT:FORMATTED              ACCESS:SEQUENTIAL          

 OPENING ..\data\supply2.sfr
 FILE TYPE:SFR   UNIT   16   STATUS:OLD    
 FORMAT:FORMATTED              ACCESS:SEQUENTIAL          

 OPENING ..\data\supply.oc
 FILE TYPE:OC   UNIT   17   STATUS:OLD    
 FORMAT:FORMATTED              ACCESS:SEQUENTIAL          

 OPENING ..\data\supply.pcg
 FILE TYPE:PCG   UNIT   18   STATUS:OLD    
 FORMAT:FORMATTED              ACCESS:SEQUENTIAL          

 OPENING supply2.wel
 FILE TYPE:WEL   UNIT   19   STATUS:OLD    
 FORMAT:FORMATTED              ACCESS:SEQUENTIAL          

 OPENING supply2sf.cbc
 FILE TYPE:DATA(BINARY)   UNIT   50   STATUS:UNKNOWN
 FORMAT:BINARY                 ACCESS:SEQUENTIAL          

 OPENING supply2hd.bhd
 FILE TYPE:DATA(BINARY)   UNIT   51   STATUS:UNKNOWN
 FORMAT:BINARY                 ACCESS:SEQUENTIAL          

 BAS -- BASIC PACKAGE, VERSION 7, 5/2/2005 INPUT READ FROM UNIT   12
 
 MODFLOW was compiled using uniform precision
 Precision of REAL and DOUBLE PRECISION variables:          15

 DISCRETIZATION INPUT DATA READ FROM UNIT   11
    1 LAYERS        25 ROWS        30 COLUMNS
   12 STRESS PERIOD(S) IN SIMULATION
 MODEL TIME UNIT IS DAYS
 MODEL LENGTH UNIT IS UNDEFINED
  Confining bed flag for each layer:
   0

                     DELR =   200.000    

                     DELC =   200.000    

 TOP ELEVATION OF LAYER 1 =  100.0000    

   MODEL LAYER BOTTOM EL. =   0.00000     FOR LAYER   1


 STRESS PERIOD     LENGTH       TIME STEPS     MULTIPLIER FOR DELT    SS FLAG
 ----------------------------------------------------------------------------
        1         92.00000          1                    1.500         TR
        2         91.00000          1                    1.500         TR
        3         91.00000          1                    1.500         TR
        4         91.00000          1                    1.500         TR
        5         92.00000          1                    1.500         TR
        6         91.00000          1                    1.500         TR
        7         91.00000          1                    1.500         TR
        8         91.00000          1                    1.500         TR
        9         92.00000          1                    1.500         TR
       10         91.00000          1                    1.500         TR
       11         91.00000          1                    1.500         TR
       12         91.00000          1                    1.500         TR

 TRANSIENT SIMULATION



 
 #MODOFC transient water supply sample problem                                   
 #                                                                               
 THE FREE FORMAT OPTION HAS BEEN SELECTED



                     BOUNDARY ARRAY FOR LAYER   1
 READING ON UNIT   12 WITH FORMAT: (20I4)              

 AQUIFER HEAD WILL BE SET TO   0.0000     AT ALL NO-FLOW NODES (IBOUND=0).



                       INITIAL HEAD FOR LAYER   1
 READING ON UNIT   12 WITH FORMAT: (10F13.0)           

 OUTPUT CONTROL IS SPECIFIED ONLY AT TIME STEPS FOR WHICH OUTPUT IS DESIRED
 COMPACT CELL-BY-CELL BUDGET FILES WILL BE WRITTEN
 HEAD PRINT FORMAT CODE IS  18    DRAWDOWN PRINT FORMAT CODE IS   0
 HEADS WILL BE SAVED ON UNIT   51    DRAWDOWNS WILL BE SAVED ON UNIT    0

 BCF -- BLOCK-CENTERED FLOW PACKAGE, VERSION 7, 5/2/2005
         INPUT READ FROM UNIT 13
 TRANSIENT SIMULATION
 HEAD AT CELLS THAT CONVERT TO DRY=   0.0000    
 WETTING CAPABILITY IS NOT ACTIVE
      LAYER  LAYER-TYPE CODE     INTERBLOCK T
      --------------------------------------------
         1            0          0 -- HARMONIC    

 COLUMN TO ROW ANISOTROPY =  1.000000    

     PRIMARY STORAGE COEF =  5.000000E-02 FOR LAYER   1



               TRANSMIS. ALONG ROWS FOR LAYER   1
 READING ON UNIT   13 WITH FORMAT: (FREE)              

 WEL -- WELL PACKAGE, VERSION 7, 5/2/2005 INPUT READ FROM UNIT   19
 # Well package input file written by MMProc
 No named parameters
 MAXIMUM OF      8 ACTIVE WELLS AT ONE TIME


     0 Well parameters

 RCH -- RECHARGE PACKAGE, VERSION 7, 5/2/2005 INPUT READ FROM UNIT   15
 No named parameters
 OPTION 1 -- RECHARGE TO TOP LAYER


     0 Recharge parameters

 SFR7 -- STREAMFLOW ROUTING PACKAGE, VERSION 1.0.7, 2013-01-15
         INPUT READ FROM UNIT  16
 #  Supply2 test problem for GWM-VI
 #  The eighth entry in the first data line is ISTCB2 -
 #    Setting this to a negative number indicates that
 #    streamflows out of the reach will be saved to a
 #    binary file.  The absolute value of ISTCB2 is the
 #    unit to which unformatted flows will be written.
 #
 No named parameters
 Segment information will not be 
 read by reach
 No named parameters
 No specifed inflow files


 NUMBER OF STREAM REACHES IS   40

 NUMBER OF STREAM SEGMENTS IS    3

 NUMBER OF STREAM PARAMETERS IS    0

 NUMBER OF STREAM SEGMENTS DEFINED USING PARAMETERS IS              0

 MAXIMUM ERROR FOR STREAM LEAKAGE RATES IS  1.00E-04

 CONSTANT FOR MANNINGS EQUATION IS  1.2839E+05





   STREAM NETWORK DESCRIPTION: 

   LAYER    ROW    COL   SEGMENT   REACH     LENGTH
                          NUMBER   NUMBER    IN CELL        
   --------------------------------------------------
      1     13      1       1        1    2.0000E+02
      1     13      2       1        2    2.0000E+02
      1     14      3       1        3    2.0000E+02
      1     15      4       1        4    2.0000E+02
      1     16      5       1        5    2.0000E+02
      1     16      6       1        6    2.0000E+02
      1     16      7       1        7    2.0000E+02
      1     16      8       1        8    2.0000E+02
      1     16      9       1        9    2.0000E+02
      1     16     10       1       10    2.0000E+02
      1     16     11       1       11    2.0000E+02
      1     16     12       1       12    2.0000E+02
      1     15     13       1       13    2.0000E+02
      1     14     14       1       14    2.0000E+02
      1     13     15       1       15    2.0000E+02
      1     12     16       1       16    2.0000E+02
      1     12     17       1       17    2.0000E+02
      1     12     18       1       18    2.0000E+02
      1     12     19       1       19    2.0000E+02
      1     13     20       1       20    2.0000E+02
      1     14     21       1       21    2.0000E+02
      1     14     22       1       22    2.0000E+02
      1      9     30       2        1    2.0000E+02
      1      9     29       2        2    2.0000E+02
      1      9     28       2        3    2.0000E+02
      1      9     27       2        4    2.0000E+02
      1     10     26       2        5    2.0000E+02
      1     11     25       2        6    2.0000E+02
      1     12     24       2        7    2.0000E+02
      1     13     23       2        8    2.0000E+02
      1     14     22       2        9    2.0000E+02
      1     14     22       3        1    2.0000E+02
      1     15     23       3        2    2.0000E+02
      1     15     24       3        3    2.0000E+02
      1     15     25       3        4    2.0000E+02
      1     15     26       3        5    2.0000E+02
      1     16     27       3        6    2.0000E+02
      1     17     28       3        7    2.0000E+02
      1     18     29       3        8    2.0000E+02
      1     18     30       3        9    2.0000E+02




 PCG -- CONJUGATE-GRADIENT SOLUTION PACKAGE, VERSION 7, 5/2/2005
 MAXIMUM OF    500 CALLS OF SOLUTION ROUTINE
 MAXIMUM OF      5 INTERNAL ITERATIONS PER CALL TO SOLUTION ROUTINE
 MATRIX PRECONDITIONING TYPE :    1



                                    SOLUTION BY THE CONJUGATE-GRADIENT METHOD
                                   -------------------------------------------
                    MAXIMUM NUMBER OF CALLS TO PCG ROUTINE =      500
                        MAXIMUM ITERATIONS PER CALL TO PCG =        5
                               MATRIX PRECONDITIONING TYPE =        1
        RELAXATION FACTOR (ONLY USED WITH PRECOND. TYPE 1) =    0.10000E+01
 PARAMETER OF POLYNOMIAL PRECOND. = 2 (2) OR IS CALCULATED :        0
                         HEAD CHANGE CRITERION FOR CLOSURE =    0.10000E-05
                     RESIDUAL CHANGE CRITERION FOR CLOSURE =    0.10000E+01
            PCG HEAD AND RESIDUAL CHANGE PRINTOUT INTERVAL =        1
     PRINTING FROM SOLVER IS LIMITED(1) OR SUPPRESSED (>1) =        1
                            STEADY-STATE DAMPING PARAMETER =    0.10000E+01
                               TRANSIENT DAMPING PARAMETER =    0.10000E+01
1
                            STRESS PERIOD NO.    1, LENGTH =   92.00000    
                            -----------------------------------------------

                              NUMBER OF TIME STEPS =     1

                               MULTIPLIER FOR DELT =     1.500

                            INITIAL TIME STEP SIZE =   92.00000    

 WELL NO.  LAYER   ROW   COL   STRESS RATE         
 --------------------------------------------------
      1      1     14      6       0.000    
      2      1      3      9       0.000    
      3      1     20     10       0.000    
      4      1     14     20       0.000    
      5      1     18     24      -1560.    
      6      1     13      7      -1528.    
      7      1     19     17      -9348.    
      8      1     11     14     -0.1066E+05

      8 WELLS

                 RECHARGE =  5.000000E-04



 CLASSIFICATION & COUNT OF STREAM SEGMENTS BASED ON SOURCE OF INFLOW:

                HEADWATER     DIVERSION     RECEIVES TRIBUTARY FLOW
                ---------     ---------     -----------------------
                     2              0               1



                    INPUT DATA FOR EACH STREAM SEGMENT
 ---------------------------------------------------------------------------------------------

 SEGMENT    SEG.     INFLOW   OVERLAND   STREAM    STREAM   ICALC  OUTFLOW  DIVERSION PRIORITY
    NO.    LENGTH     RATE     RUNOFF      ET       PPT.    METH.  TO SEG.  FROM SEG.    NO.

      1  4.400E+03 1.000E+05 0.000E+00 0.000E+00 0.000E+00    1        3        0        0
      2  1.800E+03 5.000E+04 0.000E+00 0.000E+00 0.000E+00    1        3        0        0
      3  1.800E+03 0.000E+00 0.000E+00 0.000E+00 0.000E+00    1        0        0        0


         STREAMBED PROPERTIES AND STREAM DIMENSIONS

 SEGMENT     BED HYD. COND.      BED THICKNESS     ELEV.-TOP OF BED     WIDTH OF STREAM     DEPTH OF STREAM    STREAM ROUGHNESS
    No.     UPPER     LOWER     UPPER     LOWER     UPPER     LOWER     UPPER     LOWER     UPPER     LOWER   CHANNEL      BANK

     1  5.000E+00 5.000E+00 1.000E+00 1.000E+00 4.850E+01 3.800E+01 2.000E+01 2.000E+01                     5.000E-02
     2  5.000E+00 5.000E+00 1.000E+00 1.000E+00 4.025E+01 3.800E+01 2.000E+01 2.000E+01                     5.000E-02
     3  5.000E+00 5.000E+00 1.000E+00 1.000E+00 3.800E+01 3.000E+01 2.000E+01 2.000E+01                     5.000E-02



 
 SOLVING FOR HEAD 


     9 CALLS TO PCG ROUTINE FOR TIME STEP   1 IN STRESS PERIOD    1
    36 TOTAL ITERATIONS

 OUTPUT CONTROL FOR STRESS PERIOD    1   TIME STEP    1
    SAVE BUDGET
    SAVE HEAD FOR ALL LAYERS
    PRINT HEAD FOR ALL LAYERS
 UBDSV2 SAVING "STREAMFLOW OUT  " ON UNIT  50 AT TIME STEP  1, STRESS PERIOD   1



 STREAM LISTING     PERIOD      1   STEP        1

 LAYER ROW COL. STREAM  RCH.  FLOW INTO     FLOW TO   FLOW OUT OF   OVRLND.     DIRECT     STREAM       STREAM     STREAM     STREAM   STREAMBED  STREAMBED
                SEG.NO.  NO.  STRM. RCH.    AQUIFER    STRM. RCH.    RUNOFF     PRECIP       ET          HEAD       DEPTH      WIDTH   CONDCTNC.   GRADIENT

   1   13    1     1     1    1.0000E+05 -6.1057E+03   1.0611E+05  0.000E+00  0.000E+00  0.000E+00  4.84086E+01  1.473E-01  2.000E+01  2.000E+04 -3.053E-01
   1   13    2     1     2    1.0611E+05 -7.5628E+03   1.1367E+05  0.000E+00  0.000E+00  0.000E+00  4.79372E+01  1.531E-01  2.000E+01  2.000E+04 -3.781E-01
   1   14    3     1     3    1.1367E+05 -2.1773E+03   1.1585E+05  0.000E+00  0.000E+00  0.000E+00  4.74639E+01  1.571E-01  2.000E+01  2.000E+04 -1.089E-01
   1   15    4     1     4    1.1585E+05 -2.2404E+03   1.1809E+05  0.000E+00  0.000E+00  0.000E+00  4.69885E+01  1.589E-01  2.000E+01  2.000E+04 -1.120E-01
   1   16    5     1     5    1.1809E+05 -7.1346E+03   1.2522E+05  0.000E+00  0.000E+00  0.000E+00  4.65150E+01  1.627E-01  2.000E+01  2.000E+04 -3.567E-01
   1   16    6     1     6    1.2522E+05 -4.2305E+03   1.2945E+05  0.000E+00  0.000E+00  0.000E+00  4.60422E+01  1.672E-01  2.000E+01  2.000E+04 -2.115E-01
   1   16    7     1     7    1.2945E+05 -4.0327E+03   1.3348E+05  0.000E+00  0.000E+00  0.000E+00  4.55682E+01  1.705E-01  2.000E+01  2.000E+04 -2.016E-01
   1   16    8     1     8    1.3348E+05 -3.9999E+03   1.3748E+05  0.000E+00  0.000E+00  0.000E+00  4.50940E+01  1.736E-01  2.000E+01  2.000E+04 -2.000E-01
   1   16    9     1     9    1.3748E+05 -3.9895E+03   1.4147E+05  0.000E+00  0.000E+00  0.000E+00  4.46198E+01  1.766E-01  2.000E+01  2.000E+04 -1.995E-01
   1   16   10     1    10    1.4147E+05 -3.9637E+03   1.4544E+05  0.000E+00  0.000E+00  0.000E+00  4.41455E+01  1.796E-01  2.000E+01  2.000E+04 -1.982E-01
   1   16   11     1    11    1.4544E+05 -3.9379E+03   1.4937E+05  0.000E+00  0.000E+00  0.000E+00  4.36712E+01  1.826E-01  2.000E+01  2.000E+04 -1.969E-01
   1   16   12     1    12    1.4937E+05 -6.4085E+03   1.5578E+05  0.000E+00  0.000E+00  0.000E+00  4.31978E+01  1.864E-01  2.000E+01  2.000E+04 -3.204E-01
   1   15   13     1    13    1.5578E+05 -6.4268E+03   1.6221E+05  0.000E+00  0.000E+00  0.000E+00  4.27251E+01  1.911E-01  2.000E+01  2.000E+04 -3.213E-01
   1   14   14     1    14    1.6221E+05 -6.4056E+03   1.6862E+05  0.000E+00  0.000E+00  0.000E+00  4.22525E+01  1.956E-01  2.000E+01  2.000E+04 -3.203E-01
   1   13   15     1    15    1.6862E+05 -6.1972E+03   1.7481E+05  0.000E+00  0.000E+00  0.000E+00  4.17796E+01  2.001E-01  2.000E+01  2.000E+04 -3.099E-01
   1   12   16     1    16    1.7481E+05 -6.9414E+03   1.8175E+05  0.000E+00  0.000E+00  0.000E+00  4.13069E+01  2.046E-01  2.000E+01  2.000E+04 -3.471E-01
   1   12   17     1    17    1.8175E+05 -5.7356E+03   1.8749E+05  0.000E+00  0.000E+00  0.000E+00  4.08340E+01  2.090E-01  2.000E+01  2.000E+04 -2.868E-01
   1   12   18     1    18    1.8749E+05 -5.8051E+03   1.9330E+05  0.000E+00  0.000E+00  0.000E+00  4.03606E+01  2.129E-01  2.000E+01  2.000E+04 -2.903E-01
   1   12   19     1    19    1.9330E+05 -7.5083E+03   2.0080E+05  0.000E+00  0.000E+00  0.000E+00  3.98878E+01  2.173E-01  2.000E+01  2.000E+04 -3.754E-01
   1   13   20     1    20    2.0080E+05 -6.5612E+03   2.0736E+05  0.000E+00  0.000E+00  0.000E+00  3.94151E+01  2.219E-01  2.000E+01  2.000E+04 -3.281E-01
   1   14   21     1    21    2.0736E+05 -5.9879E+03   2.1335E+05  0.000E+00  0.000E+00  0.000E+00  3.89419E+01  2.260E-01  2.000E+01  2.000E+04 -2.994E-01
   1   14   22     1    22    2.1335E+05  3.6784E+03   2.0967E+05  0.000E+00  0.000E+00  0.000E+00  3.84654E+01  2.267E-01  2.000E+01  2.000E+04  1.839E-01
   1    9   30     2     1    5.0000E+04 -4.8551E+03   5.4855E+04  0.000E+00  0.000E+00  0.000E+00  4.02442E+01  1.192E-01  2.000E+01  2.000E+04 -2.428E-01
   1    9   29     2     2    5.4855E+04 -5.1504E+03   6.0006E+04  0.000E+00  0.000E+00  0.000E+00  4.00009E+01  1.259E-01  2.000E+01  2.000E+04 -2.575E-01
   1    9   28     2     3    6.0006E+04 -5.4351E+03   6.5441E+04  0.000E+00  0.000E+00  0.000E+00  3.97577E+01  1.327E-01  2.000E+01  2.000E+04 -2.718E-01
   1    9   27     2     4    6.5441E+04 -8.2880E+03   7.3729E+04  0.000E+00  0.000E+00  0.000E+00  3.95163E+01  1.413E-01  2.000E+01  2.000E+04 -4.144E-01
   1   10   26     2     5    7.3729E+04 -7.3258E+03   8.1054E+04  0.000E+00  0.000E+00  0.000E+00  3.92756E+01  1.506E-01  2.000E+01  2.000E+04 -3.663E-01
   1   11   25     2     6    8.1054E+04 -6.7793E+03   8.7834E+04  0.000E+00  0.000E+00  0.000E+00  3.90337E+01  1.587E-01  2.000E+01  2.000E+04 -3.390E-01
   1   12   24     2     7    8.7834E+04 -6.2886E+03   9.4122E+04  0.000E+00  0.000E+00  0.000E+00  3.87909E+01  1.659E-01  2.000E+01  2.000E+04 -3.144E-01
   1   13   23     2     8    9.4122E+04 -1.6498E+03   9.5772E+04  0.000E+00  0.000E+00  0.000E+00  3.85452E+01  1.702E-01  2.000E+01  2.000E+04 -8.249E-02
   1   14   22     2     9    9.5772E+04  2.9029E+02   9.5482E+04  0.000E+00  0.000E+00  0.000E+00  3.82960E+01  1.710E-01  2.000E+01  2.000E+04  1.451E-02
   1   14   22     3     1    3.0516E+05 -9.7845E+03   3.1494E+05  0.000E+00  0.000E+00  0.000E+00  3.77922E+01  2.367E-01  2.000E+01  2.000E+04 -4.892E-01
   1   15   23     3     2    3.1494E+05 -1.8951E+03   3.1684E+05  0.000E+00  0.000E+00  0.000E+00  3.69060E+01  2.393E-01  2.000E+01  2.000E+04 -9.476E-02
   1   15   24     3     3    3.1684E+05 -1.4728E+03   3.1831E+05  0.000E+00  0.000E+00  0.000E+00  3.60179E+01  2.401E-01  2.000E+01  2.000E+04 -7.364E-02
   1   15   25     3     4    3.1831E+05 -1.5416E+03   3.1985E+05  0.000E+00  0.000E+00  0.000E+00  3.51297E+01  2.408E-01  2.000E+01  2.000E+04 -7.708E-02
   1   15   26     3     5    3.1985E+05 -1.8650E+03   3.2172E+05  0.000E+00  0.000E+00  0.000E+00  3.42416E+01  2.416E-01  2.000E+01  2.000E+04 -9.325E-02
   1   16   27     3     6    3.2172E+05 -2.1351E+03   3.2385E+05  0.000E+00  0.000E+00  0.000E+00  3.33536E+01  2.425E-01  2.000E+01  2.000E+04 -1.068E-01
   1   17   28     3     7    3.2385E+05 -6.5202E+03   3.3037E+05  0.000E+00  0.000E+00  0.000E+00  3.24666E+01  2.444E-01  2.000E+01  2.000E+04 -3.260E-01
   1   18   29     3     8    3.3037E+05 -7.8962E+03   3.3827E+05  0.000E+00  0.000E+00  0.000E+00  3.15810E+01  2.476E-01  2.000E+01  2.000E+04 -3.948E-01
   1   18   30     3     9    3.3827E+05 -7.1236E+03   3.4539E+05  0.000E+00  0.000E+00  0.000E+00  3.06954E+01  2.509E-01  2.000E+01  2.000E+04 -3.562E-01



1
              HEAD IN LAYER   1 AT END OF TIME STEP   1 IN STRESS PERIOD    1
  ---------------------------------------------------------------------------

          1      2      3      4      5      6      7      8      9     10
         11     12     13     14     15     16     17     18     19     20
         21     22     23     24     25     26     27     28     29     30
 .........................................................................
   1  ****** ****** ****** ****** ****** ****** ****** ****** ****** ******
      ****** ****** ****** ****** ****** ****** ****** ****** ****** ******
      ****** ****** ****** ****** ****** ****** ****** ****** ****** ******
   2  ****** ****** ****** ****** ****** ****** ****** ****** ****** ******
      ****** ****** ****** ****** ****** ****** ****** ****** ****** ******
      ****** ****** ****** ****** ****** ****** ****** ****** ****** ******
   3  ****** ****** ****** ****** ****** ****** ****** ****** ****** ******
      ****** ****** ****** ****** ****** ****** ****** ****** ****** ******
      ****** ****** ****** ****** ****** ****** ****** ****** ****** ******
   4  ****** ****** ****** ****** ****** ****** ****** ****** ****** ******
      ****** ****** ****** ****** ****** ****** ****** ****** ****** ******
      ****** ****** ****** ****** ****** ****** ****** ****** ****** ******
   5  ****** ****** ****** ****** ****** ****** ****** ****** ****** ******
      ****** ****** ****** ****** ****** ****** ****** ****** ****** ******
      ****** ****** ****** ****** ****** ****** ****** ****** ****** ******
   6  ****** ****** ****** ****** ****** ****** ****** ****** ****** ******
      ****** ****** ****** ****** ****** ****** ****** ****** ****** ******
      ****** ****** ****** ****** ****** ****** ****** ****** ****** ******
   7  ****** ****** ****** ****** ****** ****** ****** ****** ****** ******
      ****** ****** ****** ****** ****** ****** ****** ****** ****** ******
      ****** ****** ****** ****** ****** ****** ****** ****** ****** ******
   8  ****** ****** ****** ****** ****** ****** ****** ****** ****** ******
      ****** ****** ****** ****** ****** ****** ****** ****** ****** ******
      ****** ****** ****** ****** ****** ****** ****** ****** ****** ******
   9  ****** ****** ****** ****** ****** ****** ****** ****** ****** ******
      ****** ****** ****** ****** ****** ****** ****** ****** ****** ******
      ****** ****** ****** ****** ****** ****** ****** ****** ****** ******
  10  ****** ****** ****** ****** ****** ****** ****** ****** ****** ******
      ****** ****** ****** ****** ****** ****** ****** ****** ****** ******
      ****** ****** ****** ****** ****** ****** ****** ****** ****** ******
  11  ****** ****** ****** ****** ****** ****** ****** ****** ****** ******
      ****** ****** ****** ****** ****** ****** ****** ****** ****** ******
      ****** ****** ****** ****** ****** ****** ****** ****** ****** ******
  12  ****** ****** ****** ****** ****** ****** ****** ****** ****** ******
      ****** ****** ****** ****** ****** ****** ****** ****** ****** ******
      ****** ****** ****** ****** ****** ****** ****** ****** ****** ******
  13  ****** ****** ****** ****** ****** ****** ****** ****** ****** ******
      ****** ****** ****** ****** ****** ****** ****** ****** ****** ******
      ****** ****** ****** ****** ****** ****** ****** ****** ****** ******
  14  ****** ****** ****** ****** ****** ****** ****** ****** ****** ******
      ****** ****** ****** ****** ****** ****** ****** ****** ****** ******
      ****** ****** ****** ****** ****** ****** ****** ****** ****** ******
  15  ****** ****** ****** ****** ****** ****** ****** ****** ****** ******
      ****** ****** ****** ****** ****** ****** ****** ****** ****** ******
      ****** ****** ****** ****** ****** ****** ****** ****** ****** ******
  16  ****** ****** ****** ****** ****** ****** ****** ****** ****** ******
      ****** ****** ****** ****** ****** ****** ****** ****** ****** ******
      ****** ****** ****** ****** ****** ****** ****** ****** ****** ******
  17  ****** ****** ****** ****** ****** ****** ****** ****** ****** ******
      ****** ****** ****** ****** ****** ****** ****** ****** ****** ******
      ****** ****** ****** ****** ****** ****** ****** ****** ****** ******
  18  ****** ****** ****** ****** ****** ****** ****** ****** ****** ******
      ****** ****** ****** ****** ****** ****** ****** ****** ****** ******
      ****** ****** ****** ****** ****** ****** ****** ****** ****** ******
  19  ****** ****** ****** ****** ****** ****** ****** ****** ****** ******
      ****** ****** ****** ****** ****** ****** ****** ****** ****** ******
      ****** ****** ****** ****** ****** ****** ****** ****** ****** ******
  20  ****** ****** ****** ****** ****** ****** ****** ****** ****** ******
      ****** ****** ****** ****** ****** ****** ****** ****** ****** ******
      ****** ****** ****** ****** ****** ****** ****** ****** ****** ******
  21  ****** ****** ****** ****** ****** ****** ****** ****** ****** ******
      ****** ****** ****** ****** ****** ****** ****** ****** ****** ******
      ****** ****** ****** ****** ****** ****** ****** ****** ****** ******
  22  ****** ****** ****** ****** ****** ****** ****** ****** ****** ******
      ****** ****** ****** ****** ****** ****** ****** ****** ****** ******
      ****** ****** ****** ****** ****** ****** ****** ****** ****** ******
  23  ****** ****** ****** ****** ****** ****** ****** ****** ****** ******
      ****** ****** ****** ****** ****** ****** ****** ****** ****** ******
      ****** ****** ****** ****** ****** ****** ****** ****** ****** ******
  24  ****** ****** ****** ****** ****** ****** ****** ****** ****** ******
      ****** ****** ****** ****** ****** ****** ****** ****** ****** ******
      ****** ****** ****** ****** ****** ****** ****** ****** ****** ******
  25  ****** ****** ****** ****** ****** ****** ****** ****** ****** ******
      ****** ****** ****** ****** ****** ****** ****** ****** ****** ******
      ****** ****** ****** ****** ****** ****** ****** ****** ****** ******

 HEAD WILL BE SAVED ON UNIT   51 AT END OF TIME STEP    1, STRESS PERIOD    1
1
  VOLUMETRIC BUDGET FOR ENTIRE MODEL AT END OF TIME STEP    1, STRESS PERIOD   1
  ------------------------------------------------------------------------------

     CUMULATIVE VOLUMES      L**3       RATES FOR THIS TIME STEP      L**3/T
     ------------------                 ------------------------

           IN:                                      IN:
           ---                                      ---
             STORAGE =    17692902.4916               STORAGE =      192314.1575
       CONSTANT HEAD =     1138220.9453         CONSTANT HEAD =       12371.9668
               WELLS =           0.0000                 WELLS =           0.0000
            RECHARGE =     1269600.0000              RECHARGE =       13800.0000
      STREAM LEAKAGE =      365118.9428        STREAM LEAKAGE =        3968.6842

            TOTAL IN =    20465842.3797              TOTAL IN =      222454.8085

          OUT:                                     OUT:
          ----                                     ----
             STORAGE =           0.0000               STORAGE =           0.0000
       CONSTANT HEAD =           0.0000         CONSTANT HEAD =           0.0000
               WELLS =     2124825.6024                 WELLS =       23095.9305
            RECHARGE =           0.0000              RECHARGE =           0.0000
      STREAM LEAKAGE =    18341017.0643        STREAM LEAKAGE =      199358.8811

           TOTAL OUT =    20465842.6667             TOTAL OUT =      222454.8116

            IN - OUT =          -0.2870              IN - OUT =      -3.1193E-03

 PERCENT DISCREPANCY =          -0.00     PERCENT DISCREPANCY =          -0.00






         TIME SUMMARY AT END OF TIME STEP    1 IN STRESS PERIOD    1
                    SECONDS     MINUTES      HOURS       DAYS        YEARS
                    -----------------------------------------------------------
   TIME STEP LENGTH 7.94880E+06 1.32480E+05  2208.0      92.000     0.25188    
 STRESS PERIOD TIME 7.94880E+06 1.32480E+05  2208.0      92.000     0.25188    
         TOTAL TIME 7.94880E+06 1.32480E+05  2208.0      92.000     0.25188    
1
1
                            STRESS PERIOD NO.    2, LENGTH =   91.00000    
                            -----------------------------------------------

                              NUMBER OF TIME STEPS =     1

                               MULTIPLIER FOR DELT =     1.500

                            INITIAL TIME STEP SIZE =   91.00000    

 WELL NO.  LAYER   ROW   COL   STRESS RATE         
 --------------------------------------------------
      1      1     14      6       0.000    
      2      1      3      9       0.000    
      3      1     20     10       0.000    
      4      1     14     20       0.000    
      5      1     18     24      -1560.    
      6      1     13      7      -1528.    
      7      1     19     17      -9348.    
      8      1     11     14     -0.1066E+05

      8 WELLS

                 RECHARGE =  2.000000E-03

 REUSING STREAM SEGMENT DATA FROM LAST STRESS PERIOD
 
 SOLVING FOR HEAD 


     7 CALLS TO PCG ROUTINE FOR TIME STEP   1 IN STRESS PERIOD    2
    27 TOTAL ITERATIONS

 OUTPUT CONTROL FOR STRESS PERIOD    2   TIME STEP    1
    SAVE BUDGET
    SAVE HEAD FOR ALL LAYERS
    PRINT HEAD FOR ALL LAYERS
 UBDSV2 SAVING "STREAMFLOW OUT  " ON UNIT  50 AT TIME STEP  1, STRESS PERIOD   2



 STREAM LISTING     PERIOD      2   STEP        1

 LAYER ROW COL. STREAM  RCH.  FLOW INTO     FLOW TO   FLOW OUT OF   OVRLND.     DIRECT     STREAM       STREAM     STREAM     STREAM   STREAMBED  STREAMBED
                SEG.NO.  NO.  STRM. RCH.    AQUIFER    STRM. RCH.    RUNOFF     PRECIP       ET          HEAD       DEPTH      WIDTH   CONDCTNC.   GRADIENT

   1   13    1     1     1    1.0000E+05 -3.9651E+03   1.0397E+05  0.000E+00  0.000E+00  0.000E+00  4.84077E+01  1.464E-01  2.000E+01  2.000E+04 -1.983E-01
   1   13    2     1     2    1.0397E+05 -5.2002E+03   1.0917E+05  0.000E+00  0.000E+00  0.000E+00  4.79344E+01  1.503E-01  2.000E+01  2.000E+04 -2.600E-01
   1   14    3     1     3    1.0917E+05 -1.0720E+03   1.1024E+05  0.000E+00  0.000E+00  0.000E+00  4.74597E+01  1.529E-01  2.000E+01  2.000E+04 -5.360E-02
   1   15    4     1     4    1.1024E+05 -1.0855E+03   1.1132E+05  0.000E+00  0.000E+00  0.000E+00  4.69834E+01  1.538E-01  2.000E+01  2.000E+04 -5.427E-02
   1   16    5     1     5    1.1132E+05 -4.1518E+03   1.1547E+05  0.000E+00  0.000E+00  0.000E+00  4.65083E+01  1.560E-01  2.000E+01  2.000E+04 -2.076E-01
   1   16    6     1     6    1.1547E+05 -2.3745E+03   1.1785E+05  0.000E+00  0.000E+00  0.000E+00  4.60337E+01  1.587E-01  2.000E+01  2.000E+04 -1.187E-01
   1   16    7     1     7    1.1785E+05 -2.2316E+03   1.2008E+05  0.000E+00  0.000E+00  0.000E+00  4.55583E+01  1.605E-01  2.000E+01  2.000E+04 -1.116E-01
   1   16    8     1     8    1.2008E+05 -2.2088E+03   1.2229E+05  0.000E+00  0.000E+00  0.000E+00  4.50828E+01  1.623E-01  2.000E+01  2.000E+04 -1.104E-01
   1   16    9     1     9    1.2229E+05 -2.1871E+03   1.2448E+05  0.000E+00  0.000E+00  0.000E+00  4.46073E+01  1.641E-01  2.000E+01  2.000E+04 -1.094E-01
   1   16   10     1    10    1.2448E+05 -2.1309E+03   1.2661E+05  0.000E+00  0.000E+00  0.000E+00  4.41317E+01  1.658E-01  2.000E+01  2.000E+04 -1.065E-01
   1   16   11     1    11    1.2661E+05 -2.0537E+03   1.2866E+05  0.000E+00  0.000E+00  0.000E+00  4.36561E+01  1.675E-01  2.000E+01  2.000E+04 -1.027E-01
   1   16   12     1    12    1.2866E+05 -3.2571E+03   1.3192E+05  0.000E+00  0.000E+00  0.000E+00  4.31809E+01  1.695E-01  2.000E+01  2.000E+04 -1.629E-01
   1   15   13     1    13    1.3192E+05 -2.8864E+03   1.3480E+05  0.000E+00  0.000E+00  0.000E+00  4.27060E+01  1.719E-01  2.000E+01  2.000E+04 -1.443E-01
   1   14   14     1    14    1.3480E+05 -2.7099E+03   1.3751E+05  0.000E+00  0.000E+00  0.000E+00  4.22309E+01  1.741E-01  2.000E+01  2.000E+04 -1.355E-01
   1   13   15     1    15    1.3751E+05 -2.5042E+03   1.4002E+05  0.000E+00  0.000E+00  0.000E+00  4.17556E+01  1.761E-01  2.000E+01  2.000E+04 -1.252E-01
   1   12   16     1    16    1.4002E+05 -3.5009E+03   1.4352E+05  0.000E+00  0.000E+00  0.000E+00  4.12806E+01  1.784E-01  2.000E+01  2.000E+04 -1.750E-01
   1   12   17     1    17    1.4352E+05 -3.1050E+03   1.4662E+05  0.000E+00  0.000E+00  0.000E+00  4.08058E+01  1.808E-01  2.000E+01  2.000E+04 -1.553E-01
   1   12   18     1    18    1.4662E+05 -3.2076E+03   1.4983E+05  0.000E+00  0.000E+00  0.000E+00  4.03309E+01  1.832E-01  2.000E+01  2.000E+04 -1.604E-01
   1   12   19     1    19    1.4983E+05 -4.3355E+03   1.5417E+05  0.000E+00  0.000E+00  0.000E+00  3.98564E+01  1.860E-01  2.000E+01  2.000E+04 -2.168E-01
   1   13   20     1    20    1.5417E+05 -3.3403E+03   1.5751E+05  0.000E+00  0.000E+00  0.000E+00  3.93819E+01  1.888E-01  2.000E+01  2.000E+04 -1.670E-01
   1   14   21     1    21    1.5751E+05 -3.0445E+03   1.6055E+05  0.000E+00  0.000E+00  0.000E+00  3.89070E+01  1.911E-01  2.000E+01  2.000E+04 -1.522E-01
   1   14   22     1    22    1.6055E+05  4.4550E+03   1.5610E+05  0.000E+00  0.000E+00  0.000E+00  3.84292E+01  1.906E-01  2.000E+01  2.000E+04  2.228E-01
   1    9   30     2     1    5.0000E+04 -2.1483E+03   5.2148E+04  0.000E+00  0.000E+00  0.000E+00  4.02424E+01  1.174E-01  2.000E+01  2.000E+04 -1.074E-01
   1    9   29     2     2    5.2148E+04 -2.4580E+03   5.4606E+04  0.000E+00  0.000E+00  0.000E+00  3.99955E+01  1.205E-01  2.000E+01  2.000E+04 -1.229E-01
   1    9   28     2     3    5.4606E+04 -2.7620E+03   5.7368E+04  0.000E+00  0.000E+00  0.000E+00  3.97490E+01  1.240E-01  2.000E+01  2.000E+04 -1.381E-01
   1    9   27     2     4    5.7368E+04 -4.8564E+03   6.2225E+04  0.000E+00  0.000E+00  0.000E+00  3.95040E+01  1.290E-01  2.000E+01  2.000E+04 -2.428E-01
   1   10   26     2     5    6.2225E+04 -3.7537E+03   6.5978E+04  0.000E+00  0.000E+00  0.000E+00  3.92595E+01  1.345E-01  2.000E+01  2.000E+04 -1.877E-01
   1   11   25     2     6    6.5978E+04 -3.3620E+03   6.9340E+04  0.000E+00  0.000E+00  0.000E+00  3.90139E+01  1.389E-01  2.000E+01  2.000E+04 -1.681E-01
   1   12   24     2     7    6.9340E+04 -3.2240E+03   7.2565E+04  0.000E+00  0.000E+00  0.000E+00  3.87679E+01  1.429E-01  2.000E+01  2.000E+04 -1.612E-01
   1   13   23     2     8    7.2565E+04 -6.1061E+02   7.3175E+04  0.000E+00  0.000E+00  0.000E+00  3.85202E+01  1.452E-01  2.000E+01  2.000E+04 -3.053E-02
   1   14   22     2     9    7.3175E+04  1.2679E+03   7.1907E+04  0.000E+00  0.000E+00  0.000E+00  3.82699E+01  1.449E-01  2.000E+01  2.000E+04  6.340E-02
   1   14   22     3     1    2.2800E+05 -9.0350E+03   2.3704E+05  0.000E+00  0.000E+00  0.000E+00  3.77547E+01  1.991E-01  2.000E+01  2.000E+04 -4.518E-01
   1   15   23     3     2    2.3704E+05 -8.9730E+02   2.3794E+05  0.000E+00  0.000E+00  0.000E+00  3.68684E+01  2.017E-01  2.000E+01  2.000E+04 -4.486E-02
   1   15   24     3     3    2.3794E+05 -5.7053E+02   2.3851E+05  0.000E+00  0.000E+00  0.000E+00  3.59798E+01  2.021E-01  2.000E+01  2.000E+04 -2.853E-02
   1   15   25     3     4    2.3851E+05 -6.0452E+02   2.3911E+05  0.000E+00  0.000E+00  0.000E+00  3.50913E+01  2.024E-01  2.000E+01  2.000E+04 -3.023E-02
   1   15   26     3     5    2.3911E+05 -7.3946E+02   2.3985E+05  0.000E+00  0.000E+00  0.000E+00  3.42027E+01  2.027E-01  2.000E+01  2.000E+04 -3.697E-02
   1   16   27     3     6    2.3985E+05 -8.4265E+02   2.4069E+05  0.000E+00  0.000E+00  0.000E+00  3.33142E+01  2.031E-01  2.000E+01  2.000E+04 -4.213E-02
   1   17   28     3     7    2.4069E+05 -3.1377E+03   2.4383E+05  0.000E+00  0.000E+00  0.000E+00  3.24263E+01  2.041E-01  2.000E+01  2.000E+04 -1.569E-01
   1   18   29     3     8    2.4383E+05 -4.8479E+03   2.4868E+05  0.000E+00  0.000E+00  0.000E+00  3.15395E+01  2.061E-01  2.000E+01  2.000E+04 -2.424E-01
   1   18   30     3     9    2.4868E+05 -4.5729E+03   2.5325E+05  0.000E+00  0.000E+00  0.000E+00  3.06529E+01  2.085E-01  2.000E+01  2.000E+04 -2.286E-01



1
              HEAD IN LAYER   1 AT END OF TIME STEP   1 IN STRESS PERIOD    2
  ---------------------------------------------------------------------------

          1      2      3      4      5      6      7      8      9     10
         11     12     13     14     15     16     17     18     19     20
         21     22     23     24     25     26     27     28     29     30
 .........................................................................
   1  ****** ****** ****** ****** ****** ****** ****** ****** ****** ******
      ****** ****** ****** ****** ****** ****** ****** ****** ****** ******
      ****** ****** ****** ****** ****** ****** ****** ****** ****** ******
   2  ****** ****** ****** ****** ****** ****** ****** ****** ****** ******
      ****** ****** ****** ****** ****** ****** ****** ****** ****** ******
      ****** ****** ****** ****** ****** ****** ****** ****** ****** ******
   3  ****** ****** ****** ****** ****** ****** ****** ****** ****** ******
      ****** ****** ****** ****** ****** ****** ****** ****** ****** ******
      ****** ****** ****** ****** ****** ****** ****** ****** ****** ******
   4  ****** ****** ****** ****** ****** ****** ****** ****** ****** ******
      ****** ****** ****** ****** ****** ****** ****** ****** ****** ******
      ****** ****** ****** ****** ****** ****** ****** ****** ****** ******
   5  ****** ****** ****** ****** ****** ****** ****** ****** ****** ******
      ****** ****** ****** ****** ****** ****** ****** ****** ****** ******
      ****** ****** ****** ****** ****** ****** ****** ****** ****** ******
   6  ****** ****** ****** ****** ****** ****** ****** ****** ****** ******
      ****** ****** ****** ****** ****** ****** ****** ****** ****** ******
      ****** ****** ****** ****** ****** ****** ****** ****** ****** ******
   7  ****** ****** ****** ****** ****** ****** ****** ****** ****** ******
      ****** ****** ****** ****** ****** ****** ****** ****** ****** ******
      ****** ****** ****** ****** ****** ****** ****** ****** ****** ******
   8  ****** ****** ****** ****** ****** ****** ****** ****** ****** ******
      ****** ****** ****** ****** ****** ****** ****** ****** ****** ******
      ****** ****** ****** ****** ****** ****** ****** ****** ****** ******
   9  ****** ****** ****** ****** ****** ****** ****** ****** ****** ******
      ****** ****** ****** ****** ****** ****** ****** ****** ****** ******
      ****** ****** ****** ****** ****** ****** ****** ****** ****** ******
  10  ****** ****** ****** ****** ****** ****** ****** ****** ****** ******
      ****** ****** ****** ****** ****** ****** ****** ****** ****** ******
      ****** ****** ****** ****** ****** ****** ****** ****** ****** ******
  11  ****** ****** ****** ****** ****** ****** ****** ****** ****** ******
      ****** ****** ****** ****** ****** ****** ****** ****** ****** ******
      ****** ****** ****** ****** ****** ****** ****** ****** ****** ******
  12  ****** ****** ****** ****** ****** ****** ****** ****** ****** ******
      ****** ****** ****** ****** ****** ****** ****** ****** ****** ******
      ****** ****** ****** ****** ****** ****** ****** ****** ****** ******
  13  ****** ****** ****** ****** ****** ****** ****** ****** ****** ******
      ****** ****** ****** ****** ****** ****** ****** ****** ****** ******
      ****** ****** ****** ****** ****** ****** ****** ****** ****** ******
  14  ****** ****** ****** ****** ****** ****** ****** ****** ****** ******
      ****** ****** ****** ****** ****** ****** ****** ****** ****** ******
      ****** ****** ****** ****** ****** ****** ****** ****** ****** ******
  15  ****** ****** ****** ****** ****** ****** ****** ****** ****** ******
      ****** ****** ****** ****** ****** ****** ****** ****** ****** ******
      ****** ****** ****** ****** ****** ****** ****** ****** ****** ******
  16  ****** ****** ****** ****** ****** ****** ****** ****** ****** ******
      ****** ****** ****** ****** ****** ****** ****** ****** ****** ******
      ****** ****** ****** ****** ****** ****** ****** ****** ****** ******
  17  ****** ****** ****** ****** ****** ****** ****** ****** ****** ******
      ****** ****** ****** ****** ****** ****** ****** ****** ****** ******
      ****** ****** ****** ****** ****** ****** ****** ****** ****** ******
  18  ****** ****** ****** ****** ****** ****** ****** ****** ****** ******
      ****** ****** ****** ****** ****** ****** ****** ****** ****** ******
      ****** ****** ****** ****** ****** ****** ****** ****** ****** ******
  19  ****** ****** ****** ****** ****** ****** ****** ****** ****** ******
      ****** ****** ****** ****** ****** ****** ****** ****** ****** ******
      ****** ****** ****** ****** ****** ****** ****** ****** ****** ******
  20  ****** ****** ****** ****** ****** ****** ****** ****** ****** ******
      ****** ****** ****** ****** ****** ****** ****** ****** ****** ******
      ****** ****** ****** ****** ****** ****** ****** ****** ****** ******
  21  ****** ****** ****** ****** ****** ****** ****** ****** ****** ******
      ****** ****** ****** ****** ****** ****** ****** ****** ****** ******
      ****** ****** ****** ****** ****** ****** ****** ****** ****** ******
  22  ****** ****** ****** ****** ****** ****** ****** ****** ****** ******
      ****** ****** ****** ****** ****** ****** ****** ****** ****** ******
      ****** ****** ****** ****** ****** ****** ****** ****** ****** ******
  23  ****** ****** ****** ****** ****** ****** ****** ****** ****** ******
      ****** ****** ****** ****** ****** ****** ****** ****** ****** ******
      ****** ****** ****** ****** ****** ****** ****** ****** ****** ******
  24  ****** ****** ****** ****** ****** ****** ****** ****** ****** ******
      ****** ****** ****** ****** ****** ****** ****** ****** ****** ******
      ****** ****** ****** ****** ****** ****** ****** ****** ****** ******
  25  ****** ****** ****** ****** ****** ****** ****** ****** ****** ******
      ****** ****** ****** ****** ****** ****** ****** ****** ****** ******
      ****** ****** ****** ****** ****** ****** ****** ****** ****** ******

 HEAD WILL BE SAVED ON UNIT   51 AT END OF TIME STEP    1, STRESS PERIOD    2
1
  VOLUMETRIC BUDGET FOR ENTIRE MODEL AT END OF TIME STEP    1, STRESS PERIOD   2
  ------------------------------------------------------------------------------

     CUMULATIVE VOLUMES      L**3       RATES FOR THIS TIME STEP      L**3/T
     ------------------                 ------------------------

           IN:                                      IN:
           ---                                      ---
             STORAGE =    22639263.4402               STORAGE =       54355.6148
       CONSTANT HEAD =     2666380.2587         CONSTANT HEAD =       16792.9595
               WELLS =           0.0000                 WELLS =           0.0000
            RECHARGE =     6292800.0000              RECHARGE =       55200.0000
      STREAM LEAKAGE =      885906.2224        STREAM LEAKAGE =        5722.9371

            TOTAL IN =    32484349.9212              TOTAL IN =      132071.5114

          OUT:                                     OUT:
          ----                                     ----
             STORAGE =           0.0000               STORAGE =           0.0000
       CONSTANT HEAD =           0.0000         CONSTANT HEAD =           0.0000
               WELLS =     4226555.2743                 WELLS =       23095.9305
            RECHARGE =           0.0000              RECHARGE =           0.0000
      STREAM LEAKAGE =    28257795.8716        STREAM LEAKAGE =      108975.5913

           TOTAL OUT =    32484351.1460             TOTAL OUT =      132071.5218

            IN - OUT =          -1.2248              IN - OUT =      -1.0305E-02

 PERCENT DISCREPANCY =          -0.00     PERCENT DISCREPANCY =          -0.00






         TIME SUMMARY AT END OF TIME STEP    1 IN STRESS PERIOD    2
                    SECONDS     MINUTES      HOURS       DAYS        YEARS
                    -----------------------------------------------------------
   TIME STEP LENGTH 7.86240E+06 1.31040E+05  2184.0      91.000     0.24914    
 STRESS PERIOD TIME 7.86240E+06 1.31040E+05  2184.0      91.000     0.24914    
         TOTAL TIME 1.58112E+07 2.63520E+05  4392.0      183.00     0.50103    
1
1
                            STRESS PERIOD NO.    3, LENGTH =   91.00000    
                            -----------------------------------------------

                              NUMBER OF TIME STEPS =     1

                               MULTIPLIER FOR DELT =     1.500

                            INITIAL TIME STEP SIZE =   91.00000    

 WELL NO.  LAYER   ROW   COL   STRESS RATE         
 --------------------------------------------------
      1      1     14      6       0.000    
      2      1      3      9       0.000    
      3      1     20     10       0.000    
      4      1     14     20       0.000    
      5      1     18     24      -1560.    
      6      1     13      7      -1528.    
      7      1     19     17      -9348.    
      8      1     11     14     -0.1066E+05

      8 WELLS

                 RECHARGE =   0.00000    

 REUSING STREAM SEGMENT DATA FROM LAST STRESS PERIOD
 
 SOLVING FOR HEAD 


     7 CALLS TO PCG ROUTINE FOR TIME STEP   1 IN STRESS PERIOD    3
    27 TOTAL ITERATIONS

 OUTPUT CONTROL FOR STRESS PERIOD    3   TIME STEP    1
    SAVE BUDGET
    SAVE HEAD FOR ALL LAYERS
    PRINT HEAD FOR ALL LAYERS
 UBDSV2 SAVING "STREAMFLOW OUT  " ON UNIT  50 AT TIME STEP  1, STRESS PERIOD   3



 STREAM LISTING     PERIOD      3   STEP        1

 LAYER ROW COL. STREAM  RCH.  FLOW INTO     FLOW TO   FLOW OUT OF   OVRLND.     DIRECT     STREAM       STREAM     STREAM     STREAM   STREAMBED  STREAMBED
                SEG.NO.  NO.  STRM. RCH.    AQUIFER    STRM. RCH.    RUNOFF     PRECIP       ET          HEAD       DEPTH      WIDTH   CONDCTNC.   GRADIENT

   1   13    1     1     1    1.0000E+05 -2.6925E+03   1.0269E+05  0.000E+00  0.000E+00  0.000E+00  4.84072E+01  1.458E-01  2.000E+01  2.000E+04 -1.346E-01
   1   13    2     1     2    1.0269E+05 -3.7626E+03   1.0646E+05  0.000E+00  0.000E+00  0.000E+00  4.79327E+01  1.486E-01  2.000E+01  2.000E+04 -1.881E-01
   1   14    3     1     3    1.0646E+05 -5.9469E+02   1.0705E+05  0.000E+00  0.000E+00  0.000E+00  4.74573E+01  1.504E-01  2.000E+01  2.000E+04 -2.973E-02
   1   15    4     1     4    1.0705E+05 -5.6097E+02   1.0761E+05  0.000E+00  0.000E+00  0.000E+00  4.69805E+01  1.509E-01  2.000E+01  2.000E+04 -2.805E-02
   1   16    5     1     5    1.0761E+05 -2.3215E+03   1.0993E+05  0.000E+00  0.000E+00  0.000E+00  4.65044E+01  1.521E-01  2.000E+01  2.000E+04 -1.161E-01
   1   16    6     1     6    1.0993E+05 -1.3349E+03   1.1127E+05  0.000E+00  0.000E+00  0.000E+00  4.60287E+01  1.537E-01  2.000E+01  2.000E+04 -6.674E-02
   1   16    7     1     7    1.1127E+05 -1.2433E+03   1.1251E+05  0.000E+00  0.000E+00  0.000E+00  4.55525E+01  1.547E-01  2.000E+01  2.000E+04 -6.216E-02
   1   16    8     1     8    1.1251E+05 -1.2361E+03   1.1375E+05  0.000E+00  0.000E+00  0.000E+00  4.50762E+01  1.558E-01  2.000E+01  2.000E+04 -6.180E-02
   1   16    9     1     9    1.1375E+05 -1.2181E+03   1.1496E+05  0.000E+00  0.000E+00  0.000E+00  4.46000E+01  1.568E-01  2.000E+01  2.000E+04 -6.090E-02
   1   16   10     1    10    1.1496E+05 -1.1605E+03   1.1613E+05  0.000E+00  0.000E+00  0.000E+00  4.41237E+01  1.578E-01  2.000E+01  2.000E+04 -5.802E-02
   1   16   11     1    11    1.1613E+05 -1.0721E+03   1.1720E+05  0.000E+00  0.000E+00  0.000E+00  4.36473E+01  1.587E-01  2.000E+01  2.000E+04 -5.361E-02
   1   16   12     1    12    1.1720E+05 -1.5291E+03   1.1873E+05  0.000E+00  0.000E+00  0.000E+00  4.31711E+01  1.597E-01  2.000E+01  2.000E+04 -7.645E-02
   1   15   13     1    13    1.1873E+05 -1.1171E+03   1.1984E+05  0.000E+00  0.000E+00  0.000E+00  4.26949E+01  1.608E-01  2.000E+01  2.000E+04 -5.586E-02
   1   14   14     1    14    1.1984E+05 -8.9613E+02   1.2074E+05  0.000E+00  0.000E+00  0.000E+00  4.22184E+01  1.616E-01  2.000E+01  2.000E+04 -4.481E-02
   1   13   15     1    15    1.2074E+05 -6.9960E+02   1.2144E+05  0.000E+00  0.000E+00  0.000E+00  4.17418E+01  1.623E-01  2.000E+01  2.000E+04 -3.498E-02
   1   12   16     1    16    1.2144E+05 -1.6618E+03   1.2310E+05  0.000E+00  0.000E+00  0.000E+00  4.12655E+01  1.632E-01  2.000E+01  2.000E+04 -8.309E-02
   1   12   17     1    17    1.2310E+05 -1.7842E+03   1.2489E+05  0.000E+00  0.000E+00  0.000E+00  4.07896E+01  1.646E-01  2.000E+01  2.000E+04 -8.921E-02
   1   12   18     1    18    1.2489E+05 -1.9136E+03   1.2680E+05  0.000E+00  0.000E+00  0.000E+00  4.03138E+01  1.660E-01  2.000E+01  2.000E+04 -9.568E-02
   1   12   19     1    19    1.2680E+05 -2.7325E+03   1.2953E+05  0.000E+00  0.000E+00  0.000E+00  3.98383E+01  1.679E-01  2.000E+01  2.000E+04 -1.366E-01
   1   13   20     1    20    1.2953E+05 -1.8384E+03   1.3137E+05  0.000E+00  0.000E+00  0.000E+00  3.93628E+01  1.697E-01  2.000E+01  2.000E+04 -9.192E-02
   1   14   21     1    21    1.3137E+05 -1.4694E+03   1.3284E+05  0.000E+00  0.000E+00  0.000E+00  3.88869E+01  1.710E-01  2.000E+01  2.000E+04 -7.347E-02
   1   14   22     1    22    1.3284E+05  4.8177E+03   1.2802E+05  0.000E+00  0.000E+00  0.000E+00  3.84083E+01  1.696E-01  2.000E+01  2.000E+04  2.409E-01
   1    9   30     2     1    5.0000E+04 -9.5732E+02   5.0957E+04  0.000E+00  0.000E+00  0.000E+00  4.02415E+01  1.165E-01  2.000E+01  2.000E+04 -4.787E-02
   1    9   29     2     2    5.0957E+04 -1.2690E+03   5.2226E+04  0.000E+00  0.000E+00  0.000E+00  3.99931E+01  1.181E-01  2.000E+01  2.000E+04 -6.345E-02
   1    9   28     2     3    5.2226E+04 -1.5606E+03   5.3787E+04  0.000E+00  0.000E+00  0.000E+00  3.97450E+01  1.200E-01  2.000E+01  2.000E+04 -7.803E-02
   1    9   27     2     4    5.3787E+04 -3.1302E+03   5.6917E+04  0.000E+00  0.000E+00  0.000E+00  3.94982E+01  1.232E-01  2.000E+01  2.000E+04 -1.565E-01
   1   10   26     2     5    5.6917E+04 -2.1399E+03   5.9057E+04  0.000E+00  0.000E+00  0.000E+00  3.92516E+01  1.266E-01  2.000E+01  2.000E+04 -1.070E-01
   1   11   25     2     6    5.9057E+04 -1.8574E+03   6.0914E+04  0.000E+00  0.000E+00  0.000E+00  3.90042E+01  1.292E-01  2.000E+01  2.000E+04 -9.287E-02
   1   12   24     2     7    6.0914E+04 -1.8777E+03   6.2792E+04  0.000E+00  0.000E+00  0.000E+00  3.87566E+01  1.316E-01  2.000E+01  2.000E+04 -9.388E-02
   1   13   23     2     8    6.2792E+04 -2.7574E+02   6.3068E+04  0.000E+00  0.000E+00  0.000E+00  3.85080E+01  1.330E-01  2.000E+01  2.000E+04 -1.379E-02
   1   14   22     2     9    6.3068E+04  1.7929E+03   6.1275E+04  0.000E+00  0.000E+00  0.000E+00  3.82570E+01  1.320E-01  2.000E+01  2.000E+04  8.965E-02
   1   14   22     3     1    1.8930E+05 -8.6682E+03   1.9796E+05  0.000E+00  0.000E+00  0.000E+00  3.77340E+01  1.784E-01  2.000E+01  2.000E+04 -4.334E-01
   1   15   23     3     2    1.9796E+05 -4.7755E+02   1.9844E+05  0.000E+00  0.000E+00  0.000E+00  3.68476E+01  1.810E-01  2.000E+01  2.000E+04 -2.388E-02
   1   15   24     3     3    1.9844E+05 -2.3046E+02   1.9867E+05  0.000E+00  0.000E+00  0.000E+00  3.59589E+01  1.811E-01  2.000E+01  2.000E+04 -1.152E-02
   1   15   25     3     4    1.9867E+05 -2.5074E+02   1.9892E+05  0.000E+00  0.000E+00  0.000E+00  3.50702E+01  1.813E-01  2.000E+01  2.000E+04 -1.254E-02
   1   15   26     3     5    1.9892E+05 -3.2703E+02   1.9925E+05  0.000E+00  0.000E+00  0.000E+00  3.41814E+01  1.814E-01  2.000E+01  2.000E+04 -1.635E-02
   1   16   27     3     6    1.9925E+05 -3.6215E+02   1.9961E+05  0.000E+00  0.000E+00  0.000E+00  3.32927E+01  1.816E-01  2.000E+01  2.000E+04 -1.811E-02
   1   17   28     3     7    1.9961E+05 -1.6885E+03   2.0130E+05  0.000E+00  0.000E+00  0.000E+00  3.24044E+01  1.822E-01  2.000E+01  2.000E+04 -8.443E-02
   1   18   29     3     8    2.0130E+05 -3.2598E+03   2.0456E+05  0.000E+00  0.000E+00  0.000E+00  3.15169E+01  1.835E-01  2.000E+01  2.000E+04 -1.630E-01
   1   18   30     3     9    2.0456E+05 -3.3961E+03   2.0796E+05  0.000E+00  0.000E+00  0.000E+00  3.06298E+01  1.853E-01  2.000E+01  2.000E+04 -1.698E-01



1
              HEAD IN LAYER   1 AT END OF TIME STEP   1 IN STRESS PERIOD    3
  ---------------------------------------------------------------------------

          1      2      3      4      5      6      7      8      9     10
         11     12     13     14     15     16     17     18     19     20
         21     22     23     24     25     26     27     28     29     30
 .........................................................................
   1  ****** ****** ****** ****** ****** ****** ****** ****** ****** ******
      ****** ****** ****** ****** ****** ****** ****** ****** ****** ******
      ****** ****** ****** ****** ****** ****** ****** ****** ****** ******
   2  ****** ****** ****** ****** ****** ****** ****** ****** ****** ******
      ****** ****** ****** ****** ****** ****** ****** ****** ****** ******
      ****** ****** ****** ****** ****** ****** ****** ****** ****** ******
   3  ****** ****** ****** ****** ****** ****** ****** ****** ****** ******
      ****** ****** ****** ****** ****** ****** ****** ****** ****** ******
      ****** ****** ****** ****** ****** ****** ****** ****** ****** ******
   4  ****** ****** ****** ****** ****** ****** ****** ****** ****** ******
      ****** ****** ****** ****** ****** ****** ****** ****** ****** ******
      ****** ****** ****** ****** ****** ****** ****** ****** ****** ******
   5  ****** ****** ****** ****** ****** ****** ****** ****** ****** ******
      ****** ****** ****** ****** ****** ****** ****** ****** ****** ******
      ****** ****** ****** ****** ****** ****** ****** ****** ****** ******
   6  ****** ****** ****** ****** ****** ****** ****** ****** ****** ******
      ****** ****** ****** ****** ****** ****** ****** ****** ****** ******
      ****** ****** ****** ****** ****** ****** ****** ****** ****** ******
   7  ****** ****** ****** ****** ****** ****** ****** ****** ****** ******
      ****** ****** ****** ****** ****** ****** ****** ****** ****** ******
      ****** ****** ****** ****** ****** ****** ****** ****** ****** ******
   8  ****** ****** ****** ****** ****** ****** ****** ****** ****** ******
      ****** ****** ****** ****** ****** ****** ****** ****** ****** ******
      ****** ****** ****** ****** ****** ****** ****** ****** ****** ******
   9  ****** ****** ****** ****** ****** ****** ****** ****** ****** ******
      ****** ****** ****** ****** ****** ****** ****** ****** ****** ******
      ****** ****** ****** ****** ****** ****** ****** ****** ****** ******
  10  ****** ****** ****** ****** ****** ****** ****** ****** ****** ******
      ****** ****** ****** ****** ****** ****** ****** ****** ****** ******
      ****** ****** ****** ****** ****** ****** ****** ****** ****** ******
  11  ****** ****** ****** ****** ****** ****** ****** ****** ****** ******
      ****** ****** ****** ****** ****** ****** ****** ****** ****** ******
      ****** ****** ****** ****** ****** ****** ****** ****** ****** ******
  12  ****** ****** ****** ****** ****** ****** ****** ****** ****** ******
      ****** ****** ****** ****** ****** ****** ****** ****** ****** ******
      ****** ****** ****** ****** ****** ****** ****** ****** ****** ******
  13  ****** ****** ****** ****** ****** ****** ****** ****** ****** ******
      ****** ****** ****** ****** ****** ****** ****** ****** ****** ******
      ****** ****** ****** ****** ****** ****** ****** ****** ****** ******
  14  ****** ****** ****** ****** ****** ****** ****** ****** ****** ******
      ****** ****** ****** ****** ****** ****** ****** ****** ****** ******
      ****** ****** ****** ****** ****** ****** ****** ****** ****** ******
  15  ****** ****** ****** ****** ****** ****** ****** ****** ****** ******
      ****** ****** ****** ****** ****** ****** ****** ****** ****** ******
      ****** ****** ****** ****** ****** ****** ****** ****** ****** ******
  16  ****** ****** ****** ****** ****** ****** ****** ****** ****** ******
      ****** ****** ****** ****** ****** ****** ****** ****** ****** ******
      ****** ****** ****** ****** ****** ****** ****** ****** ****** ******
  17  ****** ****** ****** ****** ****** ****** ****** ****** ****** ******
      ****** ****** ****** ****** ****** ****** ****** ****** ****** ******
      ****** ****** ****** ****** ****** ****** ****** ****** ****** ******
  18  ****** ****** ****** ****** ****** ****** ****** ****** ****** ******
      ****** ****** ****** ****** ****** ****** ****** ****** ****** ******
      ****** ****** ****** ****** ****** ****** ****** ****** ****** ******
  19  ****** ****** ****** ****** ****** ****** ****** ****** ****** ******
      ****** ****** ****** ****** ****** ****** ****** ****** ****** ******
      ****** ****** ****** ****** ****** ****** ****** ****** ****** ******
  20  ****** ****** ****** ****** ****** ****** ****** ****** ****** ******
      ****** ****** ****** ****** ****** ****** ****** ****** ****** ******
      ****** ****** ****** ****** ****** ****** ****** ****** ****** ******
  21  ****** ****** ****** ****** ****** ****** ****** ****** ****** ******
      ****** ****** ****** ****** ****** ****** ****** ****** ****** ******
      ****** ****** ****** ****** ****** ****** ****** ****** ****** ******
  22  ****** ****** ****** ****** ****** ****** ****** ****** ****** ******
      ****** ****** ****** ****** ****** ****** ****** ****** ****** ******
      ****** ****** ****** ****** ****** ****** ****** ****** ****** ******
  23  ****** ****** ****** ****** ****** ****** ****** ****** ****** ******
      ****** ****** ****** ****** ****** ****** ****** ****** ****** ******
      ****** ****** ****** ****** ****** ****** ****** ****** ****** ******
  24  ****** ****** ****** ****** ****** ****** ****** ****** ****** ******
      ****** ****** ****** ****** ****** ****** ****** ****** ****** ******
      ****** ****** ****** ****** ****** ****** ****** ****** ****** ******
  25  ****** ****** ****** ****** ****** ****** ****** ****** ****** ******
      ****** ****** ****** ****** ****** ****** ****** ****** ****** ******
      ****** ****** ****** ****** ****** ****** ****** ****** ****** ******

 HEAD WILL BE SAVED ON UNIT   51 AT END OF TIME STEP    1, STRESS PERIOD    3
1
  VOLUMETRIC BUDGET FOR ENTIRE MODEL AT END OF TIME STEP    1, STRESS PERIOD   3
  ------------------------------------------------------------------------------

     CUMULATIVE VOLUMES      L**3       RATES FOR THIS TIME STEP      L**3/T
     ------------------                 ------------------------

           IN:                                      IN:
           ---                                      ---
             STORAGE =    27710076.1233               STORAGE =       55723.2163
       CONSTANT HEAD =     4971362.9434         CONSTANT HEAD =       25329.4801
               WELLS =           0.0000                 WELLS =           0.0000
            RECHARGE =     6292800.0000              RECHARGE =           0.0000
      STREAM LEAKAGE =     1487473.7492        STREAM LEAKAGE =        6610.6322

            TOTAL IN =    40461712.8159              TOTAL IN =       87663.3285

          OUT:                                     OUT:
          ----                                     ----
             STORAGE =           0.0000               STORAGE =           0.0000
       CONSTANT HEAD =           0.0000         CONSTANT HEAD =           0.0000
               WELLS =     6328284.9463                 WELLS =       23095.9305
            RECHARGE =           0.0000              RECHARGE =           0.0000
      STREAM LEAKAGE =    34133429.7687        STREAM LEAKAGE =       64567.4055

           TOTAL OUT =    40461714.7150             TOTAL OUT =       87663.3359

            IN - OUT =          -1.8992              IN - OUT =      -7.4108E-03

 PERCENT DISCREPANCY =          -0.00     PERCENT DISCREPANCY =          -0.00






         TIME SUMMARY AT END OF TIME STEP    1 IN STRESS PERIOD    3
                    SECONDS     MINUTES      HOURS       DAYS        YEARS
                    -----------------------------------------------------------
   TIME STEP LENGTH 7.86240E+06 1.31040E+05  2184.0      91.000     0.24914    
 STRESS PERIOD TIME 7.86240E+06 1.31040E+05  2184.0      91.000     0.24914    
         TOTAL TIME 2.36736E+07 3.94560E+05  6576.0      274.00     0.75017    
1
1
                            STRESS PERIOD NO.    4, LENGTH =   91.00000    
                            -----------------------------------------------

                              NUMBER OF TIME STEPS =     1

                               MULTIPLIER FOR DELT =     1.500

                            INITIAL TIME STEP SIZE =   91.00000    

 WELL NO.  LAYER   ROW   COL   STRESS RATE         
 --------------------------------------------------
      1      1     14      6       0.000    
      2      1      3      9       0.000    
      3      1     20     10       0.000    
      4      1     14     20       0.000    
      5      1     18     24      -1560.    
      6      1     13      7      -1528.    
      7      1     19     17      -9348.    
      8      1     11     14     -0.1066E+05

      8 WELLS

                 RECHARGE =  1.000000E-03

 REUSING STREAM SEGMENT DATA FROM LAST STRESS PERIOD
 
 SOLVING FOR HEAD 


     6 CALLS TO PCG ROUTINE FOR TIME STEP   1 IN STRESS PERIOD    4
    23 TOTAL ITERATIONS

 OUTPUT CONTROL FOR STRESS PERIOD    4   TIME STEP    1
    SAVE BUDGET
    SAVE HEAD FOR ALL LAYERS
    PRINT HEAD FOR ALL LAYERS
 UBDSV2 SAVING "STREAMFLOW OUT  " ON UNIT  50 AT TIME STEP  1, STRESS PERIOD   4



 STREAM LISTING     PERIOD      4   STEP        1

 LAYER ROW COL. STREAM  RCH.  FLOW INTO     FLOW TO   FLOW OUT OF   OVRLND.     DIRECT     STREAM       STREAM     STREAM     STREAM   STREAMBED  STREAMBED
                SEG.NO.  NO.  STRM. RCH.    AQUIFER    STRM. RCH.    RUNOFF     PRECIP       ET          HEAD       DEPTH      WIDTH   CONDCTNC.   GRADIENT

   1   13    1     1     1    1.0000E+05 -2.4395E+03   1.0244E+05  0.000E+00  0.000E+00  0.000E+00  4.84071E+01  1.457E-01  2.000E+01  2.000E+04 -1.220E-01
   1   13    2     1     2    1.0244E+05 -3.4636E+03   1.0590E+05  0.000E+00  0.000E+00  0.000E+00  4.79323E+01  1.482E-01  2.000E+01  2.000E+04 -1.732E-01
   1   14    3     1     3    1.0590E+05 -5.5550E+02   1.0646E+05  0.000E+00  0.000E+00  0.000E+00  4.74568E+01  1.500E-01  2.000E+01  2.000E+04 -2.777E-02
   1   15    4     1     4    1.0646E+05 -5.1076E+02   1.0697E+05  0.000E+00  0.000E+00  0.000E+00  4.69799E+01  1.504E-01  2.000E+01  2.000E+04 -2.554E-02
   1   16    5     1     5    1.0697E+05 -1.9988E+03   1.0897E+05  0.000E+00  0.000E+00  0.000E+00  4.65037E+01  1.515E-01  2.000E+01  2.000E+04 -9.994E-02
   1   16    6     1     6    1.0897E+05 -1.1664E+03   1.1013E+05  0.000E+00  0.000E+00  0.000E+00  4.60278E+01  1.528E-01  2.000E+01  2.000E+04 -5.832E-02
   1   16    7     1     7    1.1013E+05 -1.0833E+03   1.1122E+05  0.000E+00  0.000E+00  0.000E+00  4.55515E+01  1.537E-01  2.000E+01  2.000E+04 -5.416E-02
   1   16    8     1     8    1.1122E+05 -1.0792E+03   1.1230E+05  0.000E+00  0.000E+00  0.000E+00  4.50751E+01  1.546E-01  2.000E+01  2.000E+04 -5.396E-02
   1   16    9     1     9    1.1230E+05 -1.0641E+03   1.1336E+05  0.000E+00  0.000E+00  0.000E+00  4.45987E+01  1.555E-01  2.000E+01  2.000E+04 -5.321E-02
   1   16   10     1    10    1.1336E+05 -1.0105E+03   1.1437E+05  0.000E+00  0.000E+00  0.000E+00  4.41223E+01  1.564E-01  2.000E+01  2.000E+04 -5.052E-02
   1   16   11     1    11    1.1437E+05 -9.2195E+02   1.1529E+05  0.000E+00  0.000E+00  0.000E+00  4.36458E+01  1.572E-01  2.000E+01  2.000E+04 -4.610E-02
   1   16   12     1    12    1.1529E+05 -1.2159E+03   1.1651E+05  0.000E+00  0.000E+00  0.000E+00  4.31694E+01  1.580E-01  2.000E+01  2.000E+04 -6.080E-02
   1   15   13     1    13    1.1651E+05 -8.2427E+02   1.1733E+05  0.000E+00  0.000E+00  0.000E+00  4.26930E+01  1.589E-01  2.000E+01  2.000E+04 -4.121E-02
   1   14   14     1    14    1.1733E+05 -5.8471E+02   1.1792E+05  0.000E+00  0.000E+00  0.000E+00  4.22163E+01  1.595E-01  2.000E+01  2.000E+04 -2.924E-02
   1   13   15     1    15    1.1792E+05 -3.7108E+02   1.1829E+05  0.000E+00  0.000E+00  0.000E+00  4.17394E+01  1.598E-01  2.000E+01  2.000E+04 -1.855E-02
   1   12   16     1    16    1.1829E+05 -1.2501E+03   1.1954E+05  0.000E+00  0.000E+00  0.000E+00  4.12628E+01  1.605E-01  2.000E+01  2.000E+04 -6.250E-02
   1   12   17     1    17    1.1954E+05 -1.5377E+03   1.2108E+05  0.000E+00  0.000E+00  0.000E+00  4.07866E+01  1.616E-01  2.000E+01  2.000E+04 -7.689E-02
   1   12   18     1    18    1.2108E+05 -1.6863E+03   1.2276E+05  0.000E+00  0.000E+00  0.000E+00  4.03106E+01  1.629E-01  2.000E+01  2.000E+04 -8.432E-02
   1   12   19     1    19    1.2276E+05 -2.4589E+03   1.2522E+05  0.000E+00  0.000E+00  0.000E+00  3.98350E+01  1.646E-01  2.000E+01  2.000E+04 -1.229E-01
   1   13   20     1    20    1.2522E+05 -1.6471E+03   1.2687E+05  0.000E+00  0.000E+00  0.000E+00  3.93594E+01  1.662E-01  2.000E+01  2.000E+04 -8.236E-02
   1   14   21     1    21    1.2687E+05 -1.1958E+03   1.2807E+05  0.000E+00  0.000E+00  0.000E+00  3.88832E+01  1.673E-01  2.000E+01  2.000E+04 -5.979E-02
   1   14   22     1    22    1.2807E+05  4.8571E+03   1.2321E+05  0.000E+00  0.000E+00  0.000E+00  3.84045E+01  1.659E-01  2.000E+01  2.000E+04  2.429E-01
   1    9   30     2     1    5.0000E+04 -8.7445E+02   5.0874E+04  0.000E+00  0.000E+00  0.000E+00  4.02415E+01  1.165E-01  2.000E+01  2.000E+04 -4.372E-02
   1    9   29     2     2    5.0874E+04 -1.1792E+03   5.2054E+04  0.000E+00  0.000E+00  0.000E+00  3.99929E+01  1.179E-01  2.000E+01  2.000E+04 -5.896E-02
   1    9   28     2     3    5.2054E+04 -1.4509E+03   5.3505E+04  0.000E+00  0.000E+00  0.000E+00  3.97447E+01  1.197E-01  2.000E+01  2.000E+04 -7.254E-02
   1    9   27     2     4    5.3505E+04 -2.8732E+03   5.6378E+04  0.000E+00  0.000E+00  0.000E+00  3.94976E+01  1.226E-01  2.000E+01  2.000E+04 -1.437E-01
   1   10   26     2     5    5.6378E+04 -1.9910E+03   5.8369E+04  0.000E+00  0.000E+00  0.000E+00  3.92508E+01  1.258E-01  2.000E+01  2.000E+04 -9.955E-02
   1   11   25     2     6    5.8369E+04 -1.7471E+03   6.0116E+04  0.000E+00  0.000E+00  0.000E+00  3.90033E+01  1.283E-01  2.000E+01  2.000E+04 -8.736E-02
   1   12   24     2     7    6.0116E+04 -1.7831E+03   6.1899E+04  0.000E+00  0.000E+00  0.000E+00  3.87556E+01  1.306E-01  2.000E+01  2.000E+04 -8.916E-02
   1   13   23     2     8    6.1899E+04 -3.0170E+02   6.2201E+04  0.000E+00  0.000E+00  0.000E+00  3.85069E+01  1.319E-01  2.000E+01  2.000E+04 -1.508E-02
   1   14   22     2     9    6.2201E+04  1.8843E+03   6.0316E+04  0.000E+00  0.000E+00  0.000E+00  3.82559E+01  1.309E-01  2.000E+01  2.000E+04  9.422E-02
   1   14   22     3     1    1.8352E+05 -8.6179E+03   1.9214E+05  0.000E+00  0.000E+00  0.000E+00  3.77308E+01  1.752E-01  2.000E+01  2.000E+04 -4.309E-01
   1   15   23     3     2    1.9214E+05 -4.4149E+02   1.9258E+05  0.000E+00  0.000E+00  0.000E+00  3.68444E+01  1.777E-01  2.000E+01  2.000E+04 -2.207E-02
   1   15   24     3     3    1.9258E+05 -2.2174E+02   1.9281E+05  0.000E+00  0.000E+00  0.000E+00  3.59557E+01  1.779E-01  2.000E+01  2.000E+04 -1.109E-02
   1   15   25     3     4    1.9281E+05 -2.4290E+02   1.9305E+05  0.000E+00  0.000E+00  0.000E+00  3.50669E+01  1.780E-01  2.000E+01  2.000E+04 -1.214E-02
   1   15   26     3     5    1.9305E+05 -3.3178E+02   1.9338E+05  0.000E+00  0.000E+00  0.000E+00  3.41782E+01  1.782E-01  2.000E+01  2.000E+04 -1.659E-02
   1   16   27     3     6    1.9338E+05 -3.5483E+02   1.9374E+05  0.000E+00  0.000E+00  0.000E+00  3.32895E+01  1.784E-01  2.000E+01  2.000E+04 -1.774E-02
   1   17   28     3     7    1.9374E+05 -1.6047E+03   1.9534E+05  0.000E+00  0.000E+00  0.000E+00  3.24012E+01  1.789E-01  2.000E+01  2.000E+04 -8.024E-02
   1   18   29     3     8    1.9534E+05 -3.0027E+03   1.9834E+05  0.000E+00  0.000E+00  0.000E+00  3.15135E+01  1.802E-01  2.000E+01  2.000E+04 -1.501E-01
   1   18   30     3     9    1.9834E+05 -3.2652E+03   2.0161E+05  0.000E+00  0.000E+00  0.000E+00  3.06264E+01  1.819E-01  2.000E+01  2.000E+04 -1.633E-01



1
              HEAD IN LAYER   1 AT END OF TIME STEP   1 IN STRESS PERIOD    4
  ---------------------------------------------------------------------------

          1      2      3      4      5      6      7      8      9     10
         11     12     13     14     15     16     17     18     19     20
         21     22     23     24     25     26     27     28     29     30
 .........................................................................
   1  ****** ****** ****** ****** ****** ****** ****** ****** ****** ******
      ****** ****** ****** ****** ****** ****** ****** ****** ****** ******
      ****** ****** ****** ****** ****** ****** ****** ****** ****** ******
   2  ****** ****** ****** ****** ****** ****** ****** ****** ****** ******
      ****** ****** ****** ****** ****** ****** ****** ****** ****** ******
      ****** ****** ****** ****** ****** ****** ****** ****** ****** ******
   3  ****** ****** ****** ****** ****** ****** ****** ****** ****** ******
      ****** ****** ****** ****** ****** ****** ****** ****** ****** ******
      ****** ****** ****** ****** ****** ****** ****** ****** ****** ******
   4  ****** ****** ****** ****** ****** ****** ****** ****** ****** ******
      ****** ****** ****** ****** ****** ****** ****** ****** ****** ******
      ****** ****** ****** ****** ****** ****** ****** ****** ****** ******
   5  ****** ****** ****** ****** ****** ****** ****** ****** ****** ******
      ****** ****** ****** ****** ****** ****** ****** ****** ****** ******
      ****** ****** ****** ****** ****** ****** ****** ****** ****** ******
   6  ****** ****** ****** ****** ****** ****** ****** ****** ****** ******
      ****** ****** ****** ****** ****** ****** ****** ****** ****** ******
      ****** ****** ****** ****** ****** ****** ****** ****** ****** ******
   7  ****** ****** ****** ****** ****** ****** ****** ****** ****** ******
      ****** ****** ****** ****** ****** ****** ****** ****** ****** ******
      ****** ****** ****** ****** ****** ****** ****** ****** ****** ******
   8  ****** ****** ****** ****** ****** ****** ****** ****** ****** ******
      ****** ****** ****** ****** ****** ****** ****** ****** ****** ******
      ****** ****** ****** ****** ****** ****** ****** ****** ****** ******
   9  ****** ****** ****** ****** ****** ****** ****** ****** ****** ******
      ****** ****** ****** ****** ****** ****** ****** ****** ****** ******
      ****** ****** ****** ****** ****** ****** ****** ****** ****** ******
  10  ****** ****** ****** ****** ****** ****** ****** ****** ****** ******
      ****** ****** ****** ****** ****** ****** ****** ****** ****** ******
      ****** ****** ****** ****** ****** ****** ****** ****** ****** ******
  11  ****** ****** ****** ****** ****** ****** ****** ****** ****** ******
      ****** ****** ****** ****** ****** ****** ****** ****** ****** ******
      ****** ****** ****** ****** ****** ****** ****** ****** ****** ******
  12  ****** ****** ****** ****** ****** ****** ****** ****** ****** ******
      ****** ****** ****** ****** ****** ****** ****** ****** ****** ******
      ****** ****** ****** ****** ****** ****** ****** ****** ****** ******
  13  ****** ****** ****** ****** ****** ****** ****** ****** ****** ******
      ****** ****** ****** ****** ****** ****** ****** ****** ****** ******
      ****** ****** ****** ****** ****** ****** ****** ****** ****** ******
  14  ****** ****** ****** ****** ****** ****** ****** ****** ****** ******
      ****** ****** ****** ****** ****** ****** ****** ****** ****** ******
      ****** ****** ****** ****** ****** ****** ****** ****** ****** ******
  15  ****** ****** ****** ****** ****** ****** ****** ****** ****** ******
      ****** ****** ****** ****** ****** ****** ****** ****** ****** ******
      ****** ****** ****** ****** ****** ****** ****** ****** ****** ******
  16  ****** ****** ****** ****** ****** ****** ****** ****** ****** ******
      ****** ****** ****** ****** ****** ****** ****** ****** ****** ******
      ****** ****** ****** ****** ****** ****** ****** ****** ****** ******
  17  ****** ****** ****** ****** ****** ****** ****** ****** ****** ******
      ****** ****** ****** ****** ****** ****** ****** ****** ****** ******
      ****** ****** ****** ****** ****** ****** ****** ****** ****** ******
  18  ****** ****** ****** ****** ****** ****** ****** ****** ****** ******
      ****** ****** ****** ****** ****** ****** ****** ****** ****** ******
      ****** ****** ****** ****** ****** ****** ****** ****** ****** ******
  19  ****** ****** ****** ****** ****** ****** ****** ****** ****** ******
      ****** ****** ****** ****** ****** ****** ****** ****** ****** ******
      ****** ****** ****** ****** ****** ****** ****** ****** ****** ******
  20  ****** ****** ****** ****** ****** ****** ****** ****** ****** ******
      ****** ****** ****** ****** ****** ****** ****** ****** ****** ******
      ****** ****** ****** ****** ****** ****** ****** ****** ****** ******
  21  ****** ****** ****** ****** ****** ****** ****** ****** ****** ******
      ****** ****** ****** ****** ****** ****** ****** ****** ****** ******
      ****** ****** ****** ****** ****** ****** ****** ****** ****** ******
  22  ****** ****** ****** ****** ****** ****** ****** ****** ****** ******
      ****** ****** ****** ****** ****** ****** ****** ****** ****** ******
      ****** ****** ****** ****** ****** ****** ****** ****** ****** ******
  23  ****** ****** ****** ****** ****** ****** ****** ****** ****** ******
      ****** ****** ****** ****** ****** ****** ****** ****** ****** ******
      ****** ****** ****** ****** ****** ****** ****** ****** ****** ******
  24  ****** ****** ****** ****** ****** ****** ****** ****** ****** ******
      ****** ****** ****** ****** ****** ****** ****** ****** ****** ******
      ****** ****** ****** ****** ****** ****** ****** ****** ****** ******
  25  ****** ****** ****** ****** ****** ****** ****** ****** ****** ******
      ****** ****** ****** ****** ****** ****** ****** ****** ****** ******
      ****** ****** ****** ****** ****** ****** ****** ****** ****** ******

 HEAD WILL BE SAVED ON UNIT   51 AT END OF TIME STEP    1, STRESS PERIOD    4
1
  VOLUMETRIC BUDGET FOR ENTIRE MODEL AT END OF TIME STEP    1, STRESS PERIOD   4
  ------------------------------------------------------------------------------

     CUMULATIVE VOLUMES      L**3       RATES FOR THIS TIME STEP      L**3/T
     ------------------                 ------------------------

           IN:                                      IN:
           ---                                      ---
             STORAGE =    29453751.5893               STORAGE =       19161.2689
       CONSTANT HEAD =     7515363.3918         CONSTANT HEAD =       27956.0489
               WELLS =           0.0000                 WELLS =           0.0000
            RECHARGE =     8804400.0000              RECHARGE =       27600.0000
      STREAM LEAKAGE =     2100937.8849        STREAM LEAKAGE =        6741.3641

            TOTAL IN =    47874452.8660              TOTAL IN =       81458.6819

          OUT:                                     OUT:
          ----                                     ----
             STORAGE =        1228.0366               STORAGE =          13.4949
       CONSTANT HEAD =           0.0000         CONSTANT HEAD =           0.0000
               WELLS =     8430014.6182                 WELLS =       23095.9305
            RECHARGE =           0.0000              RECHARGE =           0.0000
      STREAM LEAKAGE =    39443212.1899        STREAM LEAKAGE =       58349.2574

           TOTAL OUT =    47874454.8448             TOTAL OUT =       81458.6827

            IN - OUT =          -1.9788              IN - OUT =      -8.7536E-04

 PERCENT DISCREPANCY =          -0.00     PERCENT DISCREPANCY =          -0.00






         TIME SUMMARY AT END OF TIME STEP    1 IN STRESS PERIOD    4
                    SECONDS     MINUTES      HOURS       DAYS        YEARS
                    -----------------------------------------------------------
   TIME STEP LENGTH 7.86240E+06 1.31040E+05  2184.0      91.000     0.24914    
 STRESS PERIOD TIME 7.86240E+06 1.31040E+05  2184.0      91.000     0.24914    
         TOTAL TIME 3.15360E+07 5.25600E+05  8760.0      365.00     0.99932    
1
1
                            STRESS PERIOD NO.    5, LENGTH =   92.00000    
                            -----------------------------------------------

                              NUMBER OF TIME STEPS =     1

                               MULTIPLIER FOR DELT =     1.500

                            INITIAL TIME STEP SIZE =   92.00000    

 WELL NO.  LAYER   ROW   COL   STRESS RATE         
 --------------------------------------------------
      1      1     14      6       0.000    
      2      1      3      9       0.000    
      3      1     20     10       0.000    
      4      1     14     20       0.000    
      5      1     18     24      -1560.    
      6      1     13      7      -1528.    
      7      1     19     17      -9348.    
      8      1     11     14     -0.1066E+05

      8 WELLS

                 RECHARGE =  5.000000E-04

 REUSING STREAM SEGMENT DATA FROM LAST STRESS PERIOD
 
 SOLVING FOR HEAD 


     7 CALLS TO PCG ROUTINE FOR TIME STEP   1 IN STRESS PERIOD    5
    26 TOTAL ITERATIONS

 OUTPUT CONTROL FOR STRESS PERIOD    5   TIME STEP    1
    SAVE BUDGET
    SAVE HEAD FOR ALL LAYERS
    PRINT HEAD FOR ALL LAYERS
 UBDSV2 SAVING "STREAMFLOW OUT  " ON UNIT  50 AT TIME STEP  1, STRESS PERIOD   5



 STREAM LISTING     PERIOD      5   STEP        1

 LAYER ROW COL. STREAM  RCH.  FLOW INTO     FLOW TO   FLOW OUT OF   OVRLND.     DIRECT     STREAM       STREAM     STREAM     STREAM   STREAMBED  STREAMBED
                SEG.NO.  NO.  STRM. RCH.    AQUIFER    STRM. RCH.    RUNOFF     PRECIP       ET          HEAD       DEPTH      WIDTH   CONDCTNC.   GRADIENT

   1   13    1     1     1    1.0000E+05 -2.0109E+03   1.0201E+05  0.000E+00  0.000E+00  0.000E+00  4.84069E+01  1.455E-01  2.000E+01  2.000E+04 -1.005E-01
   1   13    2     1     2    1.0201E+05 -2.9756E+03   1.0499E+05  0.000E+00  0.000E+00  0.000E+00  4.79318E+01  1.477E-01  2.000E+01  2.000E+04 -1.488E-01
   1   14    3     1     3    1.0499E+05 -4.2644E+02   1.0541E+05  0.000E+00  0.000E+00  0.000E+00  4.74559E+01  1.491E-01  2.000E+01  2.000E+04 -2.132E-02
   1   15    4     1     4    1.0541E+05 -3.7473E+02   1.0579E+05  0.000E+00  0.000E+00  0.000E+00  4.69790E+01  1.495E-01  2.000E+01  2.000E+04 -1.874E-02
   1   16    5     1     5    1.0579E+05 -1.5559E+03   1.0734E+05  0.000E+00  0.000E+00  0.000E+00  4.65026E+01  1.503E-01  2.000E+01  2.000E+04 -7.780E-02
   1   16    6     1     6    1.0734E+05 -9.0290E+02   1.0825E+05  0.000E+00  0.000E+00  0.000E+00  4.60263E+01  1.513E-01  2.000E+01  2.000E+04 -4.515E-02
   1   16    7     1     7    1.0825E+05 -8.2886E+02   1.0908E+05  0.000E+00  0.000E+00  0.000E+00  4.55498E+01  1.520E-01  2.000E+01  2.000E+04 -4.144E-02
   1   16    8     1     8    1.0908E+05 -8.2798E+02   1.0990E+05  0.000E+00  0.000E+00  0.000E+00  4.50732E+01  1.527E-01  2.000E+01  2.000E+04 -4.140E-02
   1   16    9     1     9    1.0990E+05 -8.1615E+02   1.1072E+05  0.000E+00  0.000E+00  0.000E+00  4.45966E+01  1.534E-01  2.000E+01  2.000E+04 -4.081E-02
   1   16   10     1    10    1.1072E+05 -7.6668E+02   1.1149E+05  0.000E+00  0.000E+00  0.000E+00  4.41200E+01  1.541E-01  2.000E+01  2.000E+04 -3.833E-02
   1   16   11     1    11    1.1149E+05 -6.7828E+02   1.1216E+05  0.000E+00  0.000E+00  0.000E+00  4.36433E+01  1.547E-01  2.000E+01  2.000E+04 -3.391E-02
   1   16   12     1    12    1.1216E+05 -7.7801E+02   1.1294E+05  0.000E+00  0.000E+00  0.000E+00  4.31667E+01  1.553E-01  2.000E+01  2.000E+04 -3.890E-02
   1   15   13     1    13    1.1294E+05 -3.6453E+02   1.1331E+05  0.000E+00  0.000E+00  0.000E+00  4.26899E+01  1.558E-01  2.000E+01  2.000E+04 -1.823E-02
   1   14   14     1    14    1.1331E+05 -9.8991E+01   1.1341E+05  0.000E+00  0.000E+00  0.000E+00  4.22128E+01  1.560E-01  2.000E+01  2.000E+04 -4.950E-03
   1   13   15     1    15    1.1341E+05  1.2828E+02   1.1328E+05  0.000E+00  0.000E+00  0.000E+00  4.17355E+01  1.559E-01  2.000E+01  2.000E+04  6.414E-03
   1   12   16     1    16    1.1328E+05 -7.1058E+02   1.1399E+05  0.000E+00  0.000E+00  0.000E+00  4.12585E+01  1.562E-01  2.000E+01  2.000E+04 -3.553E-02
   1   12   17     1    17    1.1399E+05 -1.1764E+03   1.1516E+05  0.000E+00  0.000E+00  0.000E+00  4.07820E+01  1.570E-01  2.000E+01  2.000E+04 -5.882E-02
   1   12   18     1    18    1.1516E+05 -1.3434E+03   1.1651E+05  0.000E+00  0.000E+00  0.000E+00  4.03057E+01  1.580E-01  2.000E+01  2.000E+04 -6.717E-02
   1   12   19     1    19    1.1651E+05 -2.0471E+03   1.1856E+05  0.000E+00  0.000E+00  0.000E+00  3.98298E+01  1.594E-01  2.000E+01  2.000E+04 -1.024E-01
   1   13   20     1    20    1.1856E+05 -1.2814E+03   1.1984E+05  0.000E+00  0.000E+00  0.000E+00  3.93539E+01  1.607E-01  2.000E+01  2.000E+04 -6.407E-02
   1   14   21     1    21    1.1984E+05 -7.9523E+02   1.2063E+05  0.000E+00  0.000E+00  0.000E+00  3.88775E+01  1.616E-01  2.000E+01  2.000E+04 -3.976E-02
   1   14   22     1    22    1.2063E+05  4.9370E+03   1.1569E+05  0.000E+00  0.000E+00  0.000E+00  3.83985E+01  1.599E-01  2.000E+01  2.000E+04  2.469E-01
   1    9   30     2     1    5.0000E+04 -6.4611E+02   5.0646E+04  0.000E+00  0.000E+00  0.000E+00  4.02413E+01  1.163E-01  2.000E+01  2.000E+04 -3.231E-02
   1    9   29     2     2    5.0646E+04 -9.4739E+02   5.1593E+04  0.000E+00  0.000E+00  0.000E+00  3.99924E+01  1.174E-01  2.000E+01  2.000E+04 -4.737E-02
   1    9   28     2     3    5.1593E+04 -1.2074E+03   5.2801E+04  0.000E+00  0.000E+00  0.000E+00  3.97439E+01  1.189E-01  2.000E+01  2.000E+04 -6.037E-02
   1    9   27     2     4    5.2801E+04 -2.4894E+03   5.5290E+04  0.000E+00  0.000E+00  0.000E+00  3.94964E+01  1.214E-01  2.000E+01  2.000E+04 -1.245E-01
   1   10   26     2     5    5.5290E+04 -1.6551E+03   5.6945E+04  0.000E+00  0.000E+00  0.000E+00  3.92492E+01  1.242E-01  2.000E+01  2.000E+04 -8.275E-02
   1   11   25     2     6    5.6945E+04 -1.4381E+03   5.8383E+04  0.000E+00  0.000E+00  0.000E+00  3.90012E+01  1.262E-01  2.000E+01  2.000E+04 -7.190E-02
   1   12   24     2     7    5.8383E+04 -1.5003E+03   5.9884E+04  0.000E+00  0.000E+00  0.000E+00  3.87531E+01  1.281E-01  2.000E+01  2.000E+04 -7.501E-02
   1   13   23     2     8    5.9884E+04 -2.3335E+02   6.0117E+04  0.000E+00  0.000E+00  0.000E+00  3.85043E+01  1.293E-01  2.000E+01  2.000E+04 -1.167E-02
   1   14   22     2     9    6.0117E+04  2.0285E+03   5.8089E+04  0.000E+00  0.000E+00  0.000E+00  3.82531E+01  1.281E-01  2.000E+01  2.000E+04  1.014E-01
   1   14   22     3     1    1.7378E+05 -8.5288E+03   1.8231E+05  0.000E+00  0.000E+00  0.000E+00  3.77252E+01  1.697E-01  2.000E+01  2.000E+04 -4.264E-01
   1   15   23     3     2    1.8231E+05 -3.3632E+02   1.8265E+05  0.000E+00  0.000E+00  0.000E+00  3.68389E+01  1.722E-01  2.000E+01  2.000E+04 -1.682E-02
   1   15   24     3     3    1.8265E+05 -1.4539E+02   1.8279E+05  0.000E+00  0.000E+00  0.000E+00  3.59501E+01  1.723E-01  2.000E+01  2.000E+04 -7.269E-03
   1   15   25     3     4    1.8279E+05 -1.6763E+02   1.8296E+05  0.000E+00  0.000E+00  0.000E+00  3.50613E+01  1.724E-01  2.000E+01  2.000E+04 -8.381E-03
   1   15   26     3     5    1.8296E+05 -2.5714E+02   1.8322E+05  0.000E+00  0.000E+00  0.000E+00  3.41725E+01  1.725E-01  2.000E+01  2.000E+04 -1.286E-02
   1   16   27     3     6    1.8322E+05 -2.5980E+02   1.8348E+05  0.000E+00  0.000E+00  0.000E+00  3.32838E+01  1.727E-01  2.000E+01  2.000E+04 -1.299E-02
   1   17   28     3     7    1.8348E+05 -1.3235E+03   1.8480E+05  0.000E+00  0.000E+00  0.000E+00  3.23954E+01  1.731E-01  2.000E+01  2.000E+04 -6.617E-02
   1   18   29     3     8    1.8480E+05 -2.6016E+03   1.8740E+05  0.000E+00  0.000E+00  0.000E+00  3.15076E+01  1.742E-01  2.000E+01  2.000E+04 -1.301E-01
   1   18   30     3     9    1.8740E+05 -2.9916E+03   1.9040E+05  0.000E+00  0.000E+00  0.000E+00  3.06203E+01  1.758E-01  2.000E+01  2.000E+04 -1.496E-01



1
              HEAD IN LAYER   1 AT END OF TIME STEP   1 IN STRESS PERIOD    5
  ---------------------------------------------------------------------------

          1      2      3      4      5      6      7      8      9     10
         11     12     13     14     15     16     17     18     19     20
         21     22     23     24     25     26     27     28     29     30
 .........................................................................
   1  ****** ****** ****** ****** ****** ****** ****** ****** ****** ******
      ****** ****** ****** ****** ****** ****** ****** ****** ****** ******
      ****** ****** ****** ****** ****** ****** ****** ****** ****** ******
   2  ****** ****** ****** ****** ****** ****** ****** ****** ****** ******
      ****** ****** ****** ****** ****** ****** ****** ****** ****** ******
      ****** ****** ****** ****** ****** ****** ****** ****** ****** ******
   3  ****** ****** ****** ****** ****** ****** ****** ****** ****** ******
      ****** ****** ****** ****** ****** ****** ****** ****** ****** ******
      ****** ****** ****** ****** ****** ****** ****** ****** ****** ******
   4  ****** ****** ****** ****** ****** ****** ****** ****** ****** ******
      ****** ****** ****** ****** ****** ****** ****** ****** ****** ******
      ****** ****** ****** ****** ****** ****** ****** ****** ****** ******
   5  ****** ****** ****** ****** ****** ****** ****** ****** ****** ******
      ****** ****** ****** ****** ****** ****** ****** ****** ****** ******
      ****** ****** ****** ****** ****** ****** ****** ****** ****** ******
   6  ****** ****** ****** ****** ****** ****** ****** ****** ****** ******
      ****** ****** ****** ****** ****** ****** ****** ****** ****** ******
      ****** ****** ****** ****** ****** ****** ****** ****** ****** ******
   7  ****** ****** ****** ****** ****** ****** ****** ****** ****** ******
      ****** ****** ****** ****** ****** ****** ****** ****** ****** ******
      ****** ****** ****** ****** ****** ****** ****** ****** ****** ******
   8  ****** ****** ****** ****** ****** ****** ****** ****** ****** ******
      ****** ****** ****** ****** ****** ****** ****** ****** ****** ******
      ****** ****** ****** ****** ****** ****** ****** ****** ****** ******
   9  ****** ****** ****** ****** ****** ****** ****** ****** ****** ******
      ****** ****** ****** ****** ****** ****** ****** ****** ****** ******
      ****** ****** ****** ****** ****** ****** ****** ****** ****** ******
  10  ****** ****** ****** ****** ****** ****** ****** ****** ****** ******
      ****** ****** ****** ****** ****** ****** ****** ****** ****** ******
      ****** ****** ****** ****** ****** ****** ****** ****** ****** ******
  11  ****** ****** ****** ****** ****** ****** ****** ****** ****** ******
      ****** ****** ****** ****** ****** ****** ****** ****** ****** ******
      ****** ****** ****** ****** ****** ****** ****** ****** ****** ******
  12  ****** ****** ****** ****** ****** ****** ****** ****** ****** ******
      ****** ****** ****** ****** ****** ****** ****** ****** ****** ******
      ****** ****** ****** ****** ****** ****** ****** ****** ****** ******
  13  ****** ****** ****** ****** ****** ****** ****** ****** ****** ******
      ****** ****** ****** ****** ****** ****** ****** ****** ****** ******
      ****** ****** ****** ****** ****** ****** ****** ****** ****** ******
  14  ****** ****** ****** ****** ****** ****** ****** ****** ****** ******
      ****** ****** ****** ****** ****** ****** ****** ****** ****** ******
      ****** ****** ****** ****** ****** ****** ****** ****** ****** ******
  15  ****** ****** ****** ****** ****** ****** ****** ****** ****** ******
      ****** ****** ****** ****** ****** ****** ****** ****** ****** ******
      ****** ****** ****** ****** ****** ****** ****** ****** ****** ******
  16  ****** ****** ****** ****** ****** ****** ****** ****** ****** ******
      ****** ****** ****** ****** ****** ****** ****** ****** ****** ******
      ****** ****** ****** ****** ****** ****** ****** ****** ****** ******
  17  ****** ****** ****** ****** ****** ****** ****** ****** ****** ******
      ****** ****** ****** ****** ****** ****** ****** ****** ****** ******
      ****** ****** ****** ****** ****** ****** ****** ****** ****** ******
  18  ****** ****** ****** ****** ****** ****** ****** ****** ****** ******
      ****** ****** ****** ****** ****** ****** ****** ****** ****** ******
      ****** ****** ****** ****** ****** ****** ****** ****** ****** ******
  19  ****** ****** ****** ****** ****** ****** ****** ****** ****** ******
      ****** ****** ****** ****** ****** ****** ****** ****** ****** ******
      ****** ****** ****** ****** ****** ****** ****** ****** ****** ******
  20  ****** ****** ****** ****** ****** ****** ****** ****** ****** ******
      ****** ****** ****** ****** ****** ****** ****** ****** ****** ******
      ****** ****** ****** ****** ****** ****** ****** ****** ****** ******
  21  ****** ****** ****** ****** ****** ****** ****** ****** ****** ******
      ****** ****** ****** ****** ****** ****** ****** ****** ****** ******
      ****** ****** ****** ****** ****** ****** ****** ****** ****** ******
  22  ****** ****** ****** ****** ****** ****** ****** ****** ****** ******
      ****** ****** ****** ****** ****** ****** ****** ****** ****** ******
      ****** ****** ****** ****** ****** ****** ****** ****** ****** ******
  23  ****** ****** ****** ****** ****** ****** ****** ****** ****** ******
      ****** ****** ****** ****** ****** ****** ****** ****** ****** ******
      ****** ****** ****** ****** ****** ****** ****** ****** ****** ******
  24  ****** ****** ****** ****** ****** ****** ****** ****** ****** ******
      ****** ****** ****** ****** ****** ****** ****** ****** ****** ******
      ****** ****** ****** ****** ****** ****** ****** ****** ****** ******
  25  ****** ****** ****** ****** ****** ****** ****** ****** ****** ******
      ****** ****** ****** ****** ****** ****** ****** ****** ****** ******
      ****** ****** ****** ****** ****** ****** ****** ****** ****** ******

 HEAD WILL BE SAVED ON UNIT   51 AT END OF TIME STEP    1, STRESS PERIOD    5
1
  VOLUMETRIC BUDGET FOR ENTIRE MODEL AT END OF TIME STEP    1, STRESS PERIOD   5
  ------------------------------------------------------------------------------

     CUMULATIVE VOLUMES      L**3       RATES FOR THIS TIME STEP      L**3/T
     ------------------                 ------------------------

           IN:                                      IN:
           ---                                      ---
             STORAGE =    31181546.5461               STORAGE =       18780.3800
       CONSTANT HEAD =    10359154.4807         CONSTANT HEAD =       30910.7727
               WELLS =           0.0000                 WELLS =           0.0000
            RECHARGE =    10074000.0000              RECHARGE =       13800.0000
      STREAM LEAKAGE =     2753567.8133        STREAM LEAKAGE =        7093.8036

            TOTAL IN =    54368268.8401              TOTAL IN =       70584.9562

          OUT:                                     OUT:
          ----                                     ----
             STORAGE =        1228.0366               STORAGE =           0.0000
       CONSTANT HEAD =           0.0000         CONSTANT HEAD =           0.0000
               WELLS =    10554840.2206                 WELLS =       23095.9305
            RECHARGE =           0.0000              RECHARGE =           0.0000
      STREAM LEAKAGE =    43812202.8570        STREAM LEAKAGE =       47489.0290

           TOTAL OUT =    54368271.1143             TOTAL OUT =       70584.9595

            IN - OUT =          -2.2742              IN - OUT =      -3.2109E-03

 PERCENT DISCREPANCY =          -0.00     PERCENT DISCREPANCY =          -0.00






         TIME SUMMARY AT END OF TIME STEP    1 IN STRESS PERIOD    5
                    SECONDS     MINUTES      HOURS       DAYS        YEARS
                    -----------------------------------------------------------
   TIME STEP LENGTH 7.94880E+06 1.32480E+05  2208.0      92.000     0.25188    
 STRESS PERIOD TIME 7.94880E+06 1.32480E+05  2208.0      92.000     0.25188    
         TOTAL TIME 3.94848E+07 6.58080E+05  10968.      457.00      1.2512    
1
1
                            STRESS PERIOD NO.    6, LENGTH =   91.00000    
                            -----------------------------------------------

                              NUMBER OF TIME STEPS =     1

                               MULTIPLIER FOR DELT =     1.500

                            INITIAL TIME STEP SIZE =   91.00000    

 WELL NO.  LAYER   ROW   COL   STRESS RATE         
 --------------------------------------------------
      1      1     14      6       0.000    
      2      1      3      9       0.000    
      3      1     20     10       0.000    
      4      1     14     20       0.000    
      5      1     18     24      -1560.    
      6      1     13      7      -1528.    
      7      1     19     17      -9348.    
      8      1     11     14     -0.1066E+05

      8 WELLS

                 RECHARGE =  2.000000E-03

 REUSING STREAM SEGMENT DATA FROM LAST STRESS PERIOD
 
 SOLVING FOR HEAD 


     7 CALLS TO PCG ROUTINE FOR TIME STEP   1 IN STRESS PERIOD    6
    26 TOTAL ITERATIONS

 OUTPUT CONTROL FOR STRESS PERIOD    6   TIME STEP    1
    SAVE BUDGET
    SAVE HEAD FOR ALL LAYERS
    PRINT HEAD FOR ALL LAYERS
 UBDSV2 SAVING "STREAMFLOW OUT  " ON UNIT  50 AT TIME STEP  1, STRESS PERIOD   6



 STREAM LISTING     PERIOD      6   STEP        1

 LAYER ROW COL. STREAM  RCH.  FLOW INTO     FLOW TO   FLOW OUT OF   OVRLND.     DIRECT     STREAM       STREAM     STREAM     STREAM   STREAMBED  STREAMBED
                SEG.NO.  NO.  STRM. RCH.    AQUIFER    STRM. RCH.    RUNOFF     PRECIP       ET          HEAD       DEPTH      WIDTH   CONDCTNC.   GRADIENT

   1   13    1     1     1    1.0000E+05 -2.3162E+03   1.0232E+05  0.000E+00  0.000E+00  0.000E+00  4.84070E+01  1.457E-01  2.000E+01  2.000E+04 -1.158E-01
   1   13    2     1     2    1.0232E+05 -3.3073E+03   1.0562E+05  0.000E+00  0.000E+00  0.000E+00  4.79322E+01  1.481E-01  2.000E+01  2.000E+04 -1.654E-01
   1   14    3     1     3    1.0562E+05 -5.7709E+02   1.0620E+05  0.000E+00  0.000E+00  0.000E+00  4.74565E+01  1.497E-01  2.000E+01  2.000E+04 -2.885E-02
   1   15    4     1     4    1.0620E+05 -5.3673E+02   1.0674E+05  0.000E+00  0.000E+00  0.000E+00  4.69797E+01  1.502E-01  2.000E+01  2.000E+04 -2.684E-02
   1   16    5     1     5    1.0674E+05 -2.0454E+03   1.0878E+05  0.000E+00  0.000E+00  0.000E+00  4.65036E+01  1.513E-01  2.000E+01  2.000E+04 -1.023E-01
   1   16    6     1     6    1.0878E+05 -1.1877E+03   1.0997E+05  0.000E+00  0.000E+00  0.000E+00  4.60276E+01  1.526E-01  2.000E+01  2.000E+04 -5.939E-02
   1   16    7     1     7    1.0997E+05 -1.0978E+03   1.1107E+05  0.000E+00  0.000E+00  0.000E+00  4.55513E+01  1.536E-01  2.000E+01  2.000E+04 -5.489E-02
   1   16    8     1     8    1.1107E+05 -1.0922E+03   1.1216E+05  0.000E+00  0.000E+00  0.000E+00  4.50750E+01  1.545E-01  2.000E+01  2.000E+04 -5.461E-02
   1   16    9     1     9    1.1216E+05 -1.0801E+03   1.1324E+05  0.000E+00  0.000E+00  0.000E+00  4.45986E+01  1.554E-01  2.000E+01  2.000E+04 -5.401E-02
   1   16   10     1    10    1.1324E+05 -1.0328E+03   1.1427E+05  0.000E+00  0.000E+00  0.000E+00  4.41222E+01  1.563E-01  2.000E+01  2.000E+04 -5.164E-02
   1   16   11     1    11    1.1427E+05 -9.4828E+02   1.1522E+05  0.000E+00  0.000E+00  0.000E+00  4.36457E+01  1.571E-01  2.000E+01  2.000E+04 -4.741E-02
   1   16   12     1    12    1.1522E+05 -1.2123E+03   1.1643E+05  0.000E+00  0.000E+00  0.000E+00  4.31693E+01  1.580E-01  2.000E+01  2.000E+04 -6.061E-02
   1   15   13     1    13    1.1643E+05 -8.0830E+02   1.1724E+05  0.000E+00  0.000E+00  0.000E+00  4.26929E+01  1.588E-01  2.000E+01  2.000E+04 -4.041E-02
   1   14   14     1    14    1.1724E+05 -5.3838E+02   1.1778E+05  0.000E+00  0.000E+00  0.000E+00  4.22162E+01  1.594E-01  2.000E+01  2.000E+04 -2.692E-02
   1   13   15     1    15    1.1778E+05 -2.9334E+02   1.1807E+05  0.000E+00  0.000E+00  0.000E+00  4.17392E+01  1.597E-01  2.000E+01  2.000E+04 -1.467E-02
   1   12   16     1    16    1.1807E+05 -1.0887E+03   1.1916E+05  0.000E+00  0.000E+00  0.000E+00  4.12625E+01  1.603E-01  2.000E+01  2.000E+04 -5.443E-02
   1   12   17     1    17    1.1916E+05 -1.4863E+03   1.2065E+05  0.000E+00  0.000E+00  0.000E+00  4.07863E+01  1.613E-01  2.000E+01  2.000E+04 -7.431E-02
   1   12   18     1    18    1.2065E+05 -1.6578E+03   1.2231E+05  0.000E+00  0.000E+00  0.000E+00  4.03103E+01  1.626E-01  2.000E+01  2.000E+04 -8.289E-02
   1   12   19     1    19    1.2231E+05 -2.4398E+03   1.2475E+05  0.000E+00  0.000E+00  0.000E+00  3.98347E+01  1.642E-01  2.000E+01  2.000E+04 -1.220E-01
   1   13   20     1    20    1.2475E+05 -1.6985E+03   1.2644E+05  0.000E+00  0.000E+00  0.000E+00  3.93590E+01  1.658E-01  2.000E+01  2.000E+04 -8.492E-02
   1   14   21     1    21    1.2644E+05 -1.1965E+03   1.2764E+05  0.000E+00  0.000E+00  0.000E+00  3.88829E+01  1.670E-01  2.000E+01  2.000E+04 -5.982E-02
   1   14   22     1    22    1.2764E+05  4.8329E+03   1.2281E+05  0.000E+00  0.000E+00  0.000E+00  3.84042E+01  1.656E-01  2.000E+01  2.000E+04  2.416E-01
   1    9   30     2     1    5.0000E+04 -1.0115E+03   5.1011E+04  0.000E+00  0.000E+00  0.000E+00  4.02416E+01  1.166E-01  2.000E+01  2.000E+04 -5.057E-02
   1    9   29     2     2    5.1011E+04 -1.3084E+03   5.2320E+04  0.000E+00  0.000E+00  0.000E+00  3.99932E+01  1.182E-01  2.000E+01  2.000E+04 -6.542E-02
   1    9   28     2     3    5.2320E+04 -1.5617E+03   5.3882E+04  0.000E+00  0.000E+00  0.000E+00  3.97451E+01  1.201E-01  2.000E+01  2.000E+04 -7.809E-02
   1    9   27     2     4    5.3882E+04 -2.9382E+03   5.6820E+04  0.000E+00  0.000E+00  0.000E+00  3.94982E+01  1.232E-01  2.000E+01  2.000E+04 -1.469E-01
   1   10   26     2     5    5.6820E+04 -2.1270E+03   5.8947E+04  0.000E+00  0.000E+00  0.000E+00  3.92515E+01  1.265E-01  2.000E+01  2.000E+04 -1.063E-01
   1   11   25     2     6    5.8947E+04 -1.8949E+03   6.0842E+04  0.000E+00  0.000E+00  0.000E+00  3.90041E+01  1.291E-01  2.000E+01  2.000E+04 -9.474E-02
   1   12   24     2     7    6.0842E+04 -1.9119E+03   6.2754E+04  0.000E+00  0.000E+00  0.000E+00  3.87566E+01  1.316E-01  2.000E+01  2.000E+04 -9.559E-02
   1   13   23     2     8    6.2754E+04 -3.7143E+02   6.3125E+04  0.000E+00  0.000E+00  0.000E+00  3.85080E+01  1.330E-01  2.000E+01  2.000E+04 -1.857E-02
   1   14   22     2     9    6.3125E+04  1.8902E+03   6.1235E+04  0.000E+00  0.000E+00  0.000E+00  3.82571E+01  1.321E-01  2.000E+01  2.000E+04  9.451E-02
   1   14   22     3     1    1.8404E+05 -8.6297E+03   1.9267E+05  0.000E+00  0.000E+00  0.000E+00  3.77311E+01  1.755E-01  2.000E+01  2.000E+04 -4.315E-01
   1   15   23     3     2    1.9267E+05 -4.7068E+02   1.9314E+05  0.000E+00  0.000E+00  0.000E+00  3.68447E+01  1.780E-01  2.000E+01  2.000E+04 -2.353E-02
   1   15   24     3     3    1.9314E+05 -2.6550E+02   1.9341E+05  0.000E+00  0.000E+00  0.000E+00  3.59560E+01  1.782E-01  2.000E+01  2.000E+04 -1.328E-02
   1   15   25     3     4    1.9341E+05 -2.9241E+02   1.9370E+05  0.000E+00  0.000E+00  0.000E+00  3.50673E+01  1.784E-01  2.000E+01  2.000E+04 -1.462E-02
   1   15   26     3     5    1.9370E+05 -4.0750E+02   1.9411E+05  0.000E+00  0.000E+00  0.000E+00  3.41786E+01  1.786E-01  2.000E+01  2.000E+04 -2.037E-02
   1   16   27     3     6    1.9411E+05 -4.2665E+02   1.9454E+05  0.000E+00  0.000E+00  0.000E+00  3.32899E+01  1.788E-01  2.000E+01  2.000E+04 -2.133E-02
   1   17   28     3     7    1.9454E+05 -1.7808E+03   1.9632E+05  0.000E+00  0.000E+00  0.000E+00  3.24016E+01  1.794E-01  2.000E+01  2.000E+04 -8.904E-02
   1   18   29     3     8    1.9632E+05 -3.0302E+03   1.9935E+05  0.000E+00  0.000E+00  0.000E+00  3.15141E+01  1.807E-01  2.000E+01  2.000E+04 -1.515E-01
   1   18   30     3     9    1.9935E+05 -3.3414E+03   2.0269E+05  0.000E+00  0.000E+00  0.000E+00  3.06269E+01  1.825E-01  2.000E+01  2.000E+04 -1.671E-01



1
              HEAD IN LAYER   1 AT END OF TIME STEP   1 IN STRESS PERIOD    6
  ---------------------------------------------------------------------------

          1      2      3      4      5      6      7      8      9     10
         11     12     13     14     15     16     17     18     19     20
         21     22     23     24     25     26     27     28     29     30
 .........................................................................
   1  ****** ****** ****** ****** ****** ****** ****** ****** ****** ******
      ****** ****** ****** ****** ****** ****** ****** ****** ****** ******
      ****** ****** ****** ****** ****** ****** ****** ****** ****** ******
   2  ****** ****** ****** ****** ****** ****** ****** ****** ****** ******
      ****** ****** ****** ****** ****** ****** ****** ****** ****** ******
      ****** ****** ****** ****** ****** ****** ****** ****** ****** ******
   3  ****** ****** ****** ****** ****** ****** ****** ****** ****** ******
      ****** ****** ****** ****** ****** ****** ****** ****** ****** ******
      ****** ****** ****** ****** ****** ****** ****** ****** ****** ******
   4  ****** ****** ****** ****** ****** ****** ****** ****** ****** ******
      ****** ****** ****** ****** ****** ****** ****** ****** ****** ******
      ****** ****** ****** ****** ****** ****** ****** ****** ****** ******
   5  ****** ****** ****** ****** ****** ****** ****** ****** ****** ******
      ****** ****** ****** ****** ****** ****** ****** ****** ****** ******
      ****** ****** ****** ****** ****** ****** ****** ****** ****** ******
   6  ****** ****** ****** ****** ****** ****** ****** ****** ****** ******
      ****** ****** ****** ****** ****** ****** ****** ****** ****** ******
      ****** ****** ****** ****** ****** ****** ****** ****** ****** ******
   7  ****** ****** ****** ****** ****** ****** ****** ****** ****** ******
      ****** ****** ****** ****** ****** ****** ****** ****** ****** ******
      ****** ****** ****** ****** ****** ****** ****** ****** ****** ******
   8  ****** ****** ****** ****** ****** ****** ****** ****** ****** ******
      ****** ****** ****** ****** ****** ****** ****** ****** ****** ******
      ****** ****** ****** ****** ****** ****** ****** ****** ****** ******
   9  ****** ****** ****** ****** ****** ****** ****** ****** ****** ******
      ****** ****** ****** ****** ****** ****** ****** ****** ****** ******
      ****** ****** ****** ****** ****** ****** ****** ****** ****** ******
  10  ****** ****** ****** ****** ****** ****** ****** ****** ****** ******
      ****** ****** ****** ****** ****** ****** ****** ****** ****** ******
      ****** ****** ****** ****** ****** ****** ****** ****** ****** ******
  11  ****** ****** ****** ****** ****** ****** ****** ****** ****** ******
      ****** ****** ****** ****** ****** ****** ****** ****** ****** ******
      ****** ****** ****** ****** ****** ****** ****** ****** ****** ******
  12  ****** ****** ****** ****** ****** ****** ****** ****** ****** ******
      ****** ****** ****** ****** ****** ****** ****** ****** ****** ******
      ****** ****** ****** ****** ****** ****** ****** ****** ****** ******
  13  ****** ****** ****** ****** ****** ****** ****** ****** ****** ******
      ****** ****** ****** ****** ****** ****** ****** ****** ****** ******
      ****** ****** ****** ****** ****** ****** ****** ****** ****** ******
  14  ****** ****** ****** ****** ****** ****** ****** ****** ****** ******
      ****** ****** ****** ****** ****** ****** ****** ****** ****** ******
      ****** ****** ****** ****** ****** ****** ****** ****** ****** ******
  15  ****** ****** ****** ****** ****** ****** ****** ****** ****** ******
      ****** ****** ****** ****** ****** ****** ****** ****** ****** ******
      ****** ****** ****** ****** ****** ****** ****** ****** ****** ******
  16  ****** ****** ****** ****** ****** ****** ****** ****** ****** ******
      ****** ****** ****** ****** ****** ****** ****** ****** ****** ******
      ****** ****** ****** ****** ****** ****** ****** ****** ****** ******
  17  ****** ****** ****** ****** ****** ****** ****** ****** ****** ******
      ****** ****** ****** ****** ****** ****** ****** ****** ****** ******
      ****** ****** ****** ****** ****** ****** ****** ****** ****** ******
  18  ****** ****** ****** ****** ****** ****** ****** ****** ****** ******
      ****** ****** ****** ****** ****** ****** ****** ****** ****** ******
      ****** ****** ****** ****** ****** ****** ****** ****** ****** ******
  19  ****** ****** ****** ****** ****** ****** ****** ****** ****** ******
      ****** ****** ****** ****** ****** ****** ****** ****** ****** ******
      ****** ****** ****** ****** ****** ****** ****** ****** ****** ******
  20  ****** ****** ****** ****** ****** ****** ****** ****** ****** ******
      ****** ****** ****** ****** ****** ****** ****** ****** ****** ******
      ****** ****** ****** ****** ****** ****** ****** ****** ****** ******
  21  ****** ****** ****** ****** ****** ****** ****** ****** ****** ******
      ****** ****** ****** ****** ****** ****** ****** ****** ****** ******
      ****** ****** ****** ****** ****** ****** ****** ****** ****** ******
  22  ****** ****** ****** ****** ****** ****** ****** ****** ****** ******
      ****** ****** ****** ****** ****** ****** ****** ****** ****** ******
      ****** ****** ****** ****** ****** ****** ****** ****** ****** ******
  23  ****** ****** ****** ****** ****** ****** ****** ****** ****** ******
      ****** ****** ****** ****** ****** ****** ****** ****** ****** ******
      ****** ****** ****** ****** ****** ****** ****** ****** ****** ******
  24  ****** ****** ****** ****** ****** ****** ****** ****** ****** ******
      ****** ****** ****** ****** ****** ****** ****** ****** ****** ******
      ****** ****** ****** ****** ****** ****** ****** ****** ****** ******
  25  ****** ****** ****** ****** ****** ****** ****** ****** ****** ******
      ****** ****** ****** ****** ****** ****** ****** ****** ****** ******
      ****** ****** ****** ****** ****** ****** ****** ****** ****** ******

 HEAD WILL BE SAVED ON UNIT   51 AT END OF TIME STEP    1, STRESS PERIOD    6
1
  VOLUMETRIC BUDGET FOR ENTIRE MODEL AT END OF TIME STEP    1, STRESS PERIOD   6
  ------------------------------------------------------------------------------

     CUMULATIVE VOLUMES      L**3       RATES FOR THIS TIME STEP      L**3/T
     ------------------                 ------------------------

           IN:                                      IN:
           ---                                      ---
             STORAGE =    31182078.4370               STORAGE =           5.8450
       CONSTANT HEAD =    13000988.7403         CONSTANT HEAD =       29031.1457
               WELLS =           0.0000                 WELLS =           0.0000
            RECHARGE =    15097200.0000              RECHARGE =       55200.0000
      STREAM LEAKAGE =     3365374.8507        STREAM LEAKAGE =        6723.1543

            TOTAL IN =    62645642.0279              TOTAL IN =       90960.1449

          OUT:                                     OUT:
          ----                                     ----
             STORAGE =      770450.7388               STORAGE =        8452.9967
       CONSTANT HEAD =           0.0000         CONSTANT HEAD =           0.0000
               WELLS =    12656569.8926                 WELLS =       23095.9305
            RECHARGE =           0.0000              RECHARGE =           0.0000
      STREAM LEAKAGE =    49218623.4154        STREAM LEAKAGE =       59411.2149

           TOTAL OUT =    62645644.0467             TOTAL OUT =       90960.1421

            IN - OUT =          -2.0188              IN - OUT =       2.8069E-03

 PERCENT DISCREPANCY =          -0.00     PERCENT DISCREPANCY =           0.00






         TIME SUMMARY AT END OF TIME STEP    1 IN STRESS PERIOD    6
                    SECONDS     MINUTES      HOURS       DAYS        YEARS
                    -----------------------------------------------------------
   TIME STEP LENGTH 7.86240E+06 1.31040E+05  2184.0      91.000     0.24914    
 STRESS PERIOD TIME 7.86240E+06 1.31040E+05  2184.0      91.000     0.24914    
         TOTAL TIME 4.73472E+07 7.89120E+05  13152.      548.00      1.5003    
1
1
                            STRESS PERIOD NO.    7, LENGTH =   91.00000    
                            -----------------------------------------------

                              NUMBER OF TIME STEPS =     1

                               MULTIPLIER FOR DELT =     1.500

                            INITIAL TIME STEP SIZE =   91.00000    

 WELL NO.  LAYER   ROW   COL   STRESS RATE         
 --------------------------------------------------
      1      1     14      6       0.000    
      2      1      3      9       0.000    
      3      1     20     10       0.000    
      4      1     14     20       0.000    
      5      1     18     24      -1560.    
      6      1     13      7      -1528.    
      7      1     19     17      -9348.    
      8      1     11     14     -0.1066E+05

      8 WELLS

                 RECHARGE =   0.00000    

 REUSING STREAM SEGMENT DATA FROM LAST STRESS PERIOD
 
 SOLVING FOR HEAD 


     7 CALLS TO PCG ROUTINE FOR TIME STEP   1 IN STRESS PERIOD    7
    26 TOTAL ITERATIONS

 OUTPUT CONTROL FOR STRESS PERIOD    7   TIME STEP    1
    SAVE BUDGET
    SAVE HEAD FOR ALL LAYERS
    PRINT HEAD FOR ALL LAYERS
 UBDSV2 SAVING "STREAMFLOW OUT  " ON UNIT  50 AT TIME STEP  1, STRESS PERIOD   7



 STREAM LISTING     PERIOD      7   STEP        1

 LAYER ROW COL. STREAM  RCH.  FLOW INTO     FLOW TO   FLOW OUT OF   OVRLND.     DIRECT     STREAM       STREAM     STREAM     STREAM   STREAMBED  STREAMBED
                SEG.NO.  NO.  STRM. RCH.    AQUIFER    STRM. RCH.    RUNOFF     PRECIP       ET          HEAD       DEPTH      WIDTH   CONDCTNC.   GRADIENT

   1   13    1     1     1    1.0000E+05 -1.6436E+03   1.0164E+05  0.000E+00  0.000E+00  0.000E+00  4.84067E+01  1.454E-01  2.000E+01  2.000E+04 -8.218E-02
   1   13    2     1     2    1.0164E+05 -2.5534E+03   1.0420E+05  0.000E+00  0.000E+00  0.000E+00  4.79313E+01  1.472E-01  2.000E+01  2.000E+04 -1.277E-01
   1   14    3     1     3    1.0420E+05 -3.2250E+02   1.0452E+05  0.000E+00  0.000E+00  0.000E+00  4.74552E+01  1.484E-01  2.000E+01  2.000E+04 -1.613E-02
   1   15    4     1     4    1.0452E+05 -2.7137E+02   1.0479E+05  0.000E+00  0.000E+00  0.000E+00  4.69782E+01  1.487E-01  2.000E+01  2.000E+04 -1.357E-02
   1   16    5     1     5    1.0479E+05 -1.2881E+03   1.0608E+05  0.000E+00  0.000E+00  0.000E+00  4.65016E+01  1.493E-01  2.000E+01  2.000E+04 -6.441E-02
   1   16    6     1     6    1.0608E+05 -7.2959E+02   1.0681E+05  0.000E+00  0.000E+00  0.000E+00  4.60252E+01  1.502E-01  2.000E+01  2.000E+04 -3.648E-02
   1   16    7     1     7    1.0681E+05 -6.5768E+02   1.0747E+05  0.000E+00  0.000E+00  0.000E+00  4.55485E+01  1.508E-01  2.000E+01  2.000E+04 -3.288E-02
   1   16    8     1     8    1.0747E+05 -6.5791E+02   1.0812E+05  0.000E+00  0.000E+00  0.000E+00  4.50718E+01  1.513E-01  2.000E+01  2.000E+04 -3.290E-02
   1   16    9     1     9    1.0812E+05 -6.4918E+02   1.0877E+05  0.000E+00  0.000E+00  0.000E+00  4.45950E+01  1.519E-01  2.000E+01  2.000E+04 -3.246E-02
   1   16   10     1    10    1.0877E+05 -6.0474E+02   1.0938E+05  0.000E+00  0.000E+00  0.000E+00  4.41183E+01  1.524E-01  2.000E+01  2.000E+04 -3.024E-02
   1   16   11     1    11    1.0938E+05 -5.1933E+02   1.0990E+05  0.000E+00  0.000E+00  0.000E+00  4.36415E+01  1.529E-01  2.000E+01  2.000E+04 -2.597E-02
   1   16   12     1    12    1.0990E+05 -4.9060E+02   1.1039E+05  0.000E+00  0.000E+00  0.000E+00  4.31646E+01  1.533E-01  2.000E+01  2.000E+04 -2.453E-02
   1   15   13     1    13    1.1039E+05 -3.4222E+01   1.1042E+05  0.000E+00  0.000E+00  0.000E+00  4.26876E+01  1.535E-01  2.000E+01  2.000E+04 -1.711E-03
   1   14   14     1    14    1.1042E+05  2.6325E+02   1.1016E+05  0.000E+00  0.000E+00  0.000E+00  4.22102E+01  1.534E-01  2.000E+01  2.000E+04  1.316E-02
   1   13   15     1    15    1.1016E+05  5.0944E+02   1.0965E+05  0.000E+00  0.000E+00  0.000E+00  4.17326E+01  1.531E-01  2.000E+01  2.000E+04  2.547E-02
   1   12   16     1    16    1.0965E+05 -2.9350E+02   1.0994E+05  0.000E+00  0.000E+00  0.000E+00  4.12553E+01  1.530E-01  2.000E+01  2.000E+04 -1.467E-02
   1   12   17     1    17    1.0994E+05 -9.0855E+02   1.1085E+05  0.000E+00  0.000E+00  0.000E+00  4.07785E+01  1.535E-01  2.000E+01  2.000E+04 -4.543E-02
   1   12   18     1    18    1.1085E+05 -1.0944E+03   1.1195E+05  0.000E+00  0.000E+00  0.000E+00  4.03021E+01  1.543E-01  2.000E+01  2.000E+04 -5.472E-02
   1   12   19     1    19    1.1195E+05 -1.7525E+03   1.1370E+05  0.000E+00  0.000E+00  0.000E+00  3.98260E+01  1.555E-01  2.000E+01  2.000E+04 -8.763E-02
   1   13   20     1    20    1.1370E+05 -1.0271E+03   1.1473E+05  0.000E+00  0.000E+00  0.000E+00  3.93498E+01  1.567E-01  2.000E+01  2.000E+04 -5.135E-02
   1   14   21     1    21    1.1473E+05 -5.3103E+02   1.1526E+05  0.000E+00  0.000E+00  0.000E+00  3.88732E+01  1.573E-01  2.000E+01  2.000E+04 -2.655E-02
   1   14   22     1    22    1.1526E+05  4.9879E+03   1.1027E+05  0.000E+00  0.000E+00  0.000E+00  3.83941E+01  1.555E-01  2.000E+01  2.000E+04  2.494E-01
   1    9   30     2     1    5.0000E+04 -4.9873E+02   5.0499E+04  0.000E+00  0.000E+00  0.000E+00  4.02412E+01  1.162E-01  2.000E+01  2.000E+04 -2.494E-02
   1    9   29     2     2    5.0499E+04 -7.9748E+02   5.1296E+04  0.000E+00  0.000E+00  0.000E+00  3.99921E+01  1.171E-01  2.000E+01  2.000E+04 -3.987E-02
   1    9   28     2     3    5.1296E+04 -1.0495E+03   5.2346E+04  0.000E+00  0.000E+00  0.000E+00  3.97434E+01  1.184E-01  2.000E+01  2.000E+04 -5.248E-02
   1    9   27     2     4    5.2346E+04 -2.2424E+03   5.4588E+04  0.000E+00  0.000E+00  0.000E+00  3.94956E+01  1.206E-01  2.000E+01  2.000E+04 -1.121E-01
   1   10   26     2     5    5.4588E+04 -1.4288E+03   5.6017E+04  0.000E+00  0.000E+00  0.000E+00  3.92481E+01  1.231E-01  2.000E+01  2.000E+04 -7.144E-02
   1   11   25     2     6    5.6017E+04 -1.2251E+03   5.7242E+04  0.000E+00  0.000E+00  0.000E+00  3.89999E+01  1.249E-01  2.000E+01  2.000E+04 -6.126E-02
   1   12   24     2     7    5.7242E+04 -1.3011E+03   5.8543E+04  0.000E+00  0.000E+00  0.000E+00  3.87515E+01  1.265E-01  2.000E+01  2.000E+04 -6.505E-02
   1   13   23     2     8    5.8543E+04 -1.7961E+02   5.8723E+04  0.000E+00  0.000E+00  0.000E+00  3.85025E+01  1.275E-01  2.000E+01  2.000E+04 -8.981E-03
   1   14   22     2     9    5.8723E+04  2.1301E+03   5.6593E+04  0.000E+00  0.000E+00  0.000E+00  3.82512E+01  1.262E-01  2.000E+01  2.000E+04  1.065E-01
   1   14   22     3     1    1.6686E+05 -8.4696E+03   1.7533E+05  0.000E+00  0.000E+00  0.000E+00  3.77212E+01  1.657E-01  2.000E+01  2.000E+04 -4.235E-01
   1   15   23     3     2    1.7533E+05 -2.6313E+02   1.7559E+05  0.000E+00  0.000E+00  0.000E+00  3.68349E+01  1.682E-01  2.000E+01  2.000E+04 -1.316E-02
   1   15   24     3     3    1.7559E+05 -9.1189E+01   1.7569E+05  0.000E+00  0.000E+00  0.000E+00  3.59461E+01  1.683E-01  2.000E+01  2.000E+04 -4.559E-03
   1   15   25     3     4    1.7569E+05 -1.1509E+02   1.7580E+05  0.000E+00  0.000E+00  0.000E+00  3.50572E+01  1.684E-01  2.000E+01  2.000E+04 -5.755E-03
   1   15   26     3     5    1.7580E+05 -2.0591E+02   1.7601E+05  0.000E+00  0.000E+00  0.000E+00  3.41684E+01  1.684E-01  2.000E+01  2.000E+04 -1.030E-02
   1   16   27     3     6    1.7601E+05 -1.9361E+02   1.7620E+05  0.000E+00  0.000E+00  0.000E+00  3.32797E+01  1.686E-01  2.000E+01  2.000E+04 -9.681E-03
   1   17   28     3     7    1.7620E+05 -1.1372E+03   1.7734E+05  0.000E+00  0.000E+00  0.000E+00  3.23912E+01  1.689E-01  2.000E+01  2.000E+04 -5.686E-02
   1   18   29     3     8    1.7734E+05 -2.3397E+03   1.7968E+05  0.000E+00  0.000E+00  0.000E+00  3.15033E+01  1.699E-01  2.000E+01  2.000E+04 -1.170E-01
   1   18   30     3     9    1.7968E+05 -2.8102E+03   1.8249E+05  0.000E+00  0.000E+00  0.000E+00  3.06159E+01  1.714E-01  2.000E+01  2.000E+04 -1.405E-01



1
              HEAD IN LAYER   1 AT END OF TIME STEP   1 IN STRESS PERIOD    7
  ---------------------------------------------------------------------------

          1      2      3      4      5      6      7      8      9     10
         11     12     13     14     15     16     17     18     19     20
         21     22     23     24     25     26     27     28     29     30
 .........................................................................
   1  ****** ****** ****** ****** ****** ****** ****** ****** ****** ******
      ****** ****** ****** ****** ****** ****** ****** ****** ****** ******
      ****** ****** ****** ****** ****** ****** ****** ****** ****** ******
   2  ****** ****** ****** ****** ****** ****** ****** ****** ****** ******
      ****** ****** ****** ****** ****** ****** ****** ****** ****** ******
      ****** ****** ****** ****** ****** ****** ****** ****** ****** ******
   3  ****** ****** ****** ****** ****** ****** ****** ****** ****** ******
      ****** ****** ****** ****** ****** ****** ****** ****** ****** ******
      ****** ****** ****** ****** ****** ****** ****** ****** ****** ******
   4  ****** ****** ****** ****** ****** ****** ****** ****** ****** ******
      ****** ****** ****** ****** ****** ****** ****** ****** ****** ******
      ****** ****** ****** ****** ****** ****** ****** ****** ****** ******
   5  ****** ****** ****** ****** ****** ****** ****** ****** ****** ******
      ****** ****** ****** ****** ****** ****** ****** ****** ****** ******
      ****** ****** ****** ****** ****** ****** ****** ****** ****** ******
   6  ****** ****** ****** ****** ****** ****** ****** ****** ****** ******
      ****** ****** ****** ****** ****** ****** ****** ****** ****** ******
      ****** ****** ****** ****** ****** ****** ****** ****** ****** ******
   7  ****** ****** ****** ****** ****** ****** ****** ****** ****** ******
      ****** ****** ****** ****** ****** ****** ****** ****** ****** ******
      ****** ****** ****** ****** ****** ****** ****** ****** ****** ******
   8  ****** ****** ****** ****** ****** ****** ****** ****** ****** ******
      ****** ****** ****** ****** ****** ****** ****** ****** ****** ******
      ****** ****** ****** ****** ****** ****** ****** ****** ****** ******
   9  ****** ****** ****** ****** ****** ****** ****** ****** ****** ******
      ****** ****** ****** ****** ****** ****** ****** ****** ****** ******
      ****** ****** ****** ****** ****** ****** ****** ****** ****** ******
  10  ****** ****** ****** ****** ****** ****** ****** ****** ****** ******
      ****** ****** ****** ****** ****** ****** ****** ****** ****** ******
      ****** ****** ****** ****** ****** ****** ****** ****** ****** ******
  11  ****** ****** ****** ****** ****** ****** ****** ****** ****** ******
      ****** ****** ****** ****** ****** ****** ****** ****** ****** ******
      ****** ****** ****** ****** ****** ****** ****** ****** ****** ******
  12  ****** ****** ****** ****** ****** ****** ****** ****** ****** ******
      ****** ****** ****** ****** ****** ****** ****** ****** ****** ******
      ****** ****** ****** ****** ****** ****** ****** ****** ****** ******
  13  ****** ****** ****** ****** ****** ****** ****** ****** ****** ******
      ****** ****** ****** ****** ****** ****** ****** ****** ****** ******
      ****** ****** ****** ****** ****** ****** ****** ****** ****** ******
  14  ****** ****** ****** ****** ****** ****** ****** ****** ****** ******
      ****** ****** ****** ****** ****** ****** ****** ****** ****** ******
      ****** ****** ****** ****** ****** ****** ****** ****** ****** ******
  15  ****** ****** ****** ****** ****** ****** ****** ****** ****** ******
      ****** ****** ****** ****** ****** ****** ****** ****** ****** ******
      ****** ****** ****** ****** ****** ****** ****** ****** ****** ******
  16  ****** ****** ****** ****** ****** ****** ****** ****** ****** ******
      ****** ****** ****** ****** ****** ****** ****** ****** ****** ******
      ****** ****** ****** ****** ****** ****** ****** ****** ****** ******
  17  ****** ****** ****** ****** ****** ****** ****** ****** ****** ******
      ****** ****** ****** ****** ****** ****** ****** ****** ****** ******
      ****** ****** ****** ****** ****** ****** ****** ****** ****** ******
  18  ****** ****** ****** ****** ****** ****** ****** ****** ****** ******
      ****** ****** ****** ****** ****** ****** ****** ****** ****** ******
      ****** ****** ****** ****** ****** ****** ****** ****** ****** ******
  19  ****** ****** ****** ****** ****** ****** ****** ****** ****** ******
      ****** ****** ****** ****** ****** ****** ****** ****** ****** ******
      ****** ****** ****** ****** ****** ****** ****** ****** ****** ******
  20  ****** ****** ****** ****** ****** ****** ****** ****** ****** ******
      ****** ****** ****** ****** ****** ****** ****** ****** ****** ******
      ****** ****** ****** ****** ****** ****** ****** ****** ****** ******
  21  ****** ****** ****** ****** ****** ****** ****** ****** ****** ******
      ****** ****** ****** ****** ****** ****** ****** ****** ****** ******
      ****** ****** ****** ****** ****** ****** ****** ****** ****** ******
  22  ****** ****** ****** ****** ****** ****** ****** ****** ****** ******
      ****** ****** ****** ****** ****** ****** ****** ****** ****** ******
      ****** ****** ****** ****** ****** ****** ****** ****** ****** ******
  23  ****** ****** ****** ****** ****** ****** ****** ****** ****** ******
      ****** ****** ****** ****** ****** ****** ****** ****** ****** ******
      ****** ****** ****** ****** ****** ****** ****** ****** ****** ******
  24  ****** ****** ****** ****** ****** ****** ****** ****** ****** ******
      ****** ****** ****** ****** ****** ****** ****** ****** ****** ******
      ****** ****** ****** ****** ****** ****** ****** ****** ****** ******
  25  ****** ****** ****** ****** ****** ****** ****** ****** ****** ******
      ****** ****** ****** ****** ****** ****** ****** ****** ****** ******
      ****** ****** ****** ****** ****** ****** ****** ****** ****** ******

 HEAD WILL BE SAVED ON UNIT   51 AT END OF TIME STEP    1, STRESS PERIOD    7
1
  VOLUMETRIC BUDGET FOR ENTIRE MODEL AT END OF TIME STEP    1, STRESS PERIOD   7
  ------------------------------------------------------------------------------

     CUMULATIVE VOLUMES      L**3       RATES FOR THIS TIME STEP      L**3/T
     ------------------                 ------------------------

           IN:                                      IN:
           ---                                      ---
             STORAGE =    33239094.9750               STORAGE =       22604.5773
       CONSTANT HEAD =    16002025.1236         CONSTANT HEAD =       32978.4218
               WELLS =           0.0000                 WELLS =           0.0000
            RECHARGE =    15097200.0000              RECHARGE =           0.0000
      STREAM LEAKAGE =     4083423.5654        STREAM LEAKAGE =        7890.6452

            TOTAL IN =    68421743.6640              TOTAL IN =       63473.6444

          OUT:                                     OUT:
          ----                                     ----
             STORAGE =      770450.7388               STORAGE =           0.0000
       CONSTANT HEAD =           0.0000         CONSTANT HEAD =           0.0000
               WELLS =    14758299.5645                 WELLS =       23095.9305
            RECHARGE =           0.0000              RECHARGE =           0.0000
      STREAM LEAKAGE =    52892995.8789        STREAM LEAKAGE =       40377.7194

           TOTAL OUT =    68421746.1822             TOTAL OUT =       63473.6498

            IN - OUT =          -2.5182              IN - OUT =      -5.4878E-03

 PERCENT DISCREPANCY =          -0.00     PERCENT DISCREPANCY =          -0.00






         TIME SUMMARY AT END OF TIME STEP    1 IN STRESS PERIOD    7
                    SECONDS     MINUTES      HOURS       DAYS        YEARS
                    -----------------------------------------------------------
   TIME STEP LENGTH 7.86240E+06 1.31040E+05  2184.0      91.000     0.24914    
 STRESS PERIOD TIME 7.86240E+06 1.31040E+05  2184.0      91.000     0.24914    
         TOTAL TIME 5.52096E+07 9.20160E+05  15336.      639.00      1.7495    
1
1
                            STRESS PERIOD NO.    8, LENGTH =   91.00000    
                            -----------------------------------------------

                              NUMBER OF TIME STEPS =     1

                               MULTIPLIER FOR DELT =     1.500

                            INITIAL TIME STEP SIZE =   91.00000    

 WELL NO.  LAYER   ROW   COL   STRESS RATE         
 --------------------------------------------------
      1      1     14      6       0.000    
      2      1      3      9       0.000    
      3      1     20     10       0.000    
      4      1     14     20       0.000    
      5      1     18     24      -1560.    
      6      1     13      7      -1528.    
      7      1     19     17      -9348.    
      8      1     11     14     -0.1066E+05

      8 WELLS

                 RECHARGE =  1.000000E-03

 REUSING STREAM SEGMENT DATA FROM LAST STRESS PERIOD
 
 SOLVING FOR HEAD 


     6 CALLS TO PCG ROUTINE FOR TIME STEP   1 IN STRESS PERIOD    8
    22 TOTAL ITERATIONS

 OUTPUT CONTROL FOR STRESS PERIOD    8   TIME STEP    1
    SAVE BUDGET
    SAVE HEAD FOR ALL LAYERS
    PRINT HEAD FOR ALL LAYERS
 UBDSV2 SAVING "STREAMFLOW OUT  " ON UNIT  50 AT TIME STEP  1, STRESS PERIOD   8



 STREAM LISTING     PERIOD      8   STEP        1

 LAYER ROW COL. STREAM  RCH.  FLOW INTO     FLOW TO   FLOW OUT OF   OVRLND.     DIRECT     STREAM       STREAM     STREAM     STREAM   STREAMBED  STREAMBED
                SEG.NO.  NO.  STRM. RCH.    AQUIFER    STRM. RCH.    RUNOFF     PRECIP       ET          HEAD       DEPTH      WIDTH   CONDCTNC.   GRADIENT

   1   13    1     1     1    1.0000E+05 -1.7125E+03   1.0171E+05  0.000E+00  0.000E+00  0.000E+00  4.84068E+01  1.454E-01  2.000E+01  2.000E+04 -8.563E-02
   1   13    2     1     2    1.0171E+05 -2.6204E+03   1.0433E+05  0.000E+00  0.000E+00  0.000E+00  4.79314E+01  1.473E-01  2.000E+01  2.000E+04 -1.310E-01
   1   14    3     1     3    1.0433E+05 -3.8484E+02   1.0472E+05  0.000E+00  0.000E+00  0.000E+00  4.74554E+01  1.485E-01  2.000E+01  2.000E+04 -1.924E-02
   1   15    4     1     4    1.0472E+05 -3.3838E+02   1.0506E+05  0.000E+00  0.000E+00  0.000E+00  4.69784E+01  1.489E-01  2.000E+01  2.000E+04 -1.692E-02
   1   16    5     1     5    1.0506E+05 -1.4596E+03   1.0652E+05  0.000E+00  0.000E+00  0.000E+00  4.65019E+01  1.496E-01  2.000E+01  2.000E+04 -7.298E-02
   1   16    6     1     6    1.0652E+05 -8.3429E+02   1.0735E+05  0.000E+00  0.000E+00  0.000E+00  4.60256E+01  1.506E-01  2.000E+01  2.000E+04 -4.171E-02
   1   16    7     1     7    1.0735E+05 -7.5718E+02   1.0811E+05  0.000E+00  0.000E+00  0.000E+00  4.55490E+01  1.513E-01  2.000E+01  2.000E+04 -3.786E-02
   1   16    8     1     8    1.0811E+05 -7.5656E+02   1.0886E+05  0.000E+00  0.000E+00  0.000E+00  4.50724E+01  1.519E-01  2.000E+01  2.000E+04 -3.783E-02
   1   16    9     1     9    1.0886E+05 -7.4915E+02   1.0961E+05  0.000E+00  0.000E+00  0.000E+00  4.45957E+01  1.525E-01  2.000E+01  2.000E+04 -3.746E-02
   1   16   10     1    10    1.0961E+05 -7.0751E+02   1.1032E+05  0.000E+00  0.000E+00  0.000E+00  4.41190E+01  1.531E-01  2.000E+01  2.000E+04 -3.538E-02
   1   16   11     1    11    1.1032E+05 -6.2548E+02   1.1095E+05  0.000E+00  0.000E+00  0.000E+00  4.36423E+01  1.537E-01  2.000E+01  2.000E+04 -3.127E-02
   1   16   12     1    12    1.1095E+05 -6.4863E+02   1.1159E+05  0.000E+00  0.000E+00  0.000E+00  4.31656E+01  1.542E-01  2.000E+01  2.000E+04 -3.243E-02
   1   15   13     1    13    1.1159E+05 -1.9838E+02   1.1179E+05  0.000E+00  0.000E+00  0.000E+00  4.26887E+01  1.546E-01  2.000E+01  2.000E+04 -9.919E-03
   1   14   14     1    14    1.1179E+05  1.0640E+02   1.1169E+05  0.000E+00  0.000E+00  0.000E+00  4.22114E+01  1.546E-01  2.000E+01  2.000E+04  5.320E-03
   1   13   15     1    15    1.1169E+05  3.6541E+02   1.1132E+05  0.000E+00  0.000E+00  0.000E+00  4.17340E+01  1.544E-01  2.000E+01  2.000E+04  1.827E-02
   1   12   16     1    16    1.1132E+05 -3.9944E+02   1.1172E+05  0.000E+00  0.000E+00  0.000E+00  4.12567E+01  1.544E-01  2.000E+01  2.000E+04 -1.997E-02
   1   12   17     1    17    1.1172E+05 -1.0170E+03   1.1274E+05  0.000E+00  0.000E+00  0.000E+00  4.07800E+01  1.550E-01  2.000E+01  2.000E+04 -5.085E-02
   1   12   18     1    18    1.1274E+05 -1.2101E+03   1.1395E+05  0.000E+00  0.000E+00  0.000E+00  4.03037E+01  1.559E-01  2.000E+01  2.000E+04 -6.050E-02
   1   12   19     1    19    1.1395E+05 -1.8991E+03   1.1585E+05  0.000E+00  0.000E+00  0.000E+00  3.98277E+01  1.572E-01  2.000E+01  2.000E+04 -9.495E-02
   1   13   20     1    20    1.1585E+05 -1.2031E+03   1.1705E+05  0.000E+00  0.000E+00  0.000E+00  3.93517E+01  1.585E-01  2.000E+01  2.000E+04 -6.015E-02
   1   14   21     1    21    1.1705E+05 -6.8658E+02   1.1774E+05  0.000E+00  0.000E+00  0.000E+00  3.88752E+01  1.593E-01  2.000E+01  2.000E+04 -3.433E-02
   1   14   22     1    22    1.1774E+05  4.9411E+03   1.1280E+05  0.000E+00  0.000E+00  0.000E+00  3.83962E+01  1.575E-01  2.000E+01  2.000E+04  2.471E-01
   1    9   30     2     1    5.0000E+04 -6.6185E+02   5.0662E+04  0.000E+00  0.000E+00  0.000E+00  4.02413E+01  1.163E-01  2.000E+01  2.000E+04 -3.309E-02
   1    9   29     2     2    5.0662E+04 -9.5778E+02   5.1620E+04  0.000E+00  0.000E+00  0.000E+00  3.99924E+01  1.174E-01  2.000E+01  2.000E+04 -4.789E-02
   1    9   28     2     3    5.1620E+04 -1.2042E+03   5.2824E+04  0.000E+00  0.000E+00  0.000E+00  3.97439E+01  1.189E-01  2.000E+01  2.000E+04 -6.021E-02
   1    9   27     2     4    5.2824E+04 -2.4199E+03   5.5244E+04  0.000E+00  0.000E+00  0.000E+00  3.94964E+01  1.214E-01  2.000E+01  2.000E+04 -1.210E-01
   1   10   26     2     5    5.5244E+04 -1.6334E+03   5.6877E+04  0.000E+00  0.000E+00  0.000E+00  3.92491E+01  1.241E-01  2.000E+01  2.000E+04 -8.167E-02
   1   11   25     2     6    5.6877E+04 -1.4281E+03   5.8305E+04  0.000E+00  0.000E+00  0.000E+00  3.90011E+01  1.261E-01  2.000E+01  2.000E+04 -7.140E-02
   1   12   24     2     7    5.8305E+04 -1.4852E+03   5.9790E+04  0.000E+00  0.000E+00  0.000E+00  3.87530E+01  1.280E-01  2.000E+01  2.000E+04 -7.426E-02
   1   13   23     2     8    5.9790E+04 -2.5375E+02   6.0044E+04  0.000E+00  0.000E+00  0.000E+00  3.85042E+01  1.292E-01  2.000E+01  2.000E+04 -1.269E-02
   1   14   22     2     9    6.0044E+04  2.0773E+03   5.7967E+04  0.000E+00  0.000E+00  0.000E+00  3.82530E+01  1.280E-01  2.000E+01  2.000E+04  1.039E-01
   1   14   22     3     1    1.7076E+05 -8.5122E+03   1.7927E+05  0.000E+00  0.000E+00  0.000E+00  3.77235E+01  1.679E-01  2.000E+01  2.000E+04 -4.256E-01
   1   15   23     3     2    1.7927E+05 -3.2659E+02   1.7960E+05  0.000E+00  0.000E+00  0.000E+00  3.68371E+01  1.705E-01  2.000E+01  2.000E+04 -1.633E-02
   1   15   24     3     3    1.7960E+05 -1.5125E+02   1.7975E+05  0.000E+00  0.000E+00  0.000E+00  3.59484E+01  1.706E-01  2.000E+01  2.000E+04 -7.562E-03
   1   15   25     3     4    1.7975E+05 -1.7692E+02   1.7993E+05  0.000E+00  0.000E+00  0.000E+00  3.50596E+01  1.707E-01  2.000E+01  2.000E+04 -8.846E-03
   1   15   26     3     5    1.7993E+05 -2.8031E+02   1.8021E+05  0.000E+00  0.000E+00  0.000E+00  3.41708E+01  1.708E-01  2.000E+01  2.000E+04 -1.402E-02
   1   16   27     3     6    1.8021E+05 -2.7496E+02   1.8048E+05  0.000E+00  0.000E+00  0.000E+00  3.32821E+01  1.710E-01  2.000E+01  2.000E+04 -1.375E-02
   1   17   28     3     7    1.8048E+05 -1.3395E+03   1.8182E+05  0.000E+00  0.000E+00  0.000E+00  3.23937E+01  1.714E-01  2.000E+01  2.000E+04 -6.697E-02
   1   18   29     3     8    1.8182E+05 -2.5019E+03   1.8433E+05  0.000E+00  0.000E+00  0.000E+00  3.15059E+01  1.725E-01  2.000E+01  2.000E+04 -1.251E-01
   1   18   30     3     9    1.8433E+05 -2.9550E+03   1.8728E+05  0.000E+00  0.000E+00  0.000E+00  3.06185E+01  1.741E-01  2.000E+01  2.000E+04 -1.478E-01



1
              HEAD IN LAYER   1 AT END OF TIME STEP   1 IN STRESS PERIOD    8
  ---------------------------------------------------------------------------

          1      2      3      4      5      6      7      8      9     10
         11     12     13     14     15     16     17     18     19     20
         21     22     23     24     25     26     27     28     29     30
 .........................................................................
   1  ****** ****** ****** ****** ****** ****** ****** ****** ****** ******
      ****** ****** ****** ****** ****** ****** ****** ****** ****** ******
      ****** ****** ****** ****** ****** ****** ****** ****** ****** ******
   2  ****** ****** ****** ****** ****** ****** ****** ****** ****** ******
      ****** ****** ****** ****** ****** ****** ****** ****** ****** ******
      ****** ****** ****** ****** ****** ****** ****** ****** ****** ******
   3  ****** ****** ****** ****** ****** ****** ****** ****** ****** ******
      ****** ****** ****** ****** ****** ****** ****** ****** ****** ******
      ****** ****** ****** ****** ****** ****** ****** ****** ****** ******
   4  ****** ****** ****** ****** ****** ****** ****** ****** ****** ******
      ****** ****** ****** ****** ****** ****** ****** ****** ****** ******
      ****** ****** ****** ****** ****** ****** ****** ****** ****** ******
   5  ****** ****** ****** ****** ****** ****** ****** ****** ****** ******
      ****** ****** ****** ****** ****** ****** ****** ****** ****** ******
      ****** ****** ****** ****** ****** ****** ****** ****** ****** ******
   6  ****** ****** ****** ****** ****** ****** ****** ****** ****** ******
      ****** ****** ****** ****** ****** ****** ****** ****** ****** ******
      ****** ****** ****** ****** ****** ****** ****** ****** ****** ******
   7  ****** ****** ****** ****** ****** ****** ****** ****** ****** ******
      ****** ****** ****** ****** ****** ****** ****** ****** ****** ******
      ****** ****** ****** ****** ****** ****** ****** ****** ****** ******
   8  ****** ****** ****** ****** ****** ****** ****** ****** ****** ******
      ****** ****** ****** ****** ****** ****** ****** ****** ****** ******
      ****** ****** ****** ****** ****** ****** ****** ****** ****** ******
   9  ****** ****** ****** ****** ****** ****** ****** ****** ****** ******
      ****** ****** ****** ****** ****** ****** ****** ****** ****** ******
      ****** ****** ****** ****** ****** ****** ****** ****** ****** ******
  10  ****** ****** ****** ****** ****** ****** ****** ****** ****** ******
      ****** ****** ****** ****** ****** ****** ****** ****** ****** ******
      ****** ****** ****** ****** ****** ****** ****** ****** ****** ******
  11  ****** ****** ****** ****** ****** ****** ****** ****** ****** ******
      ****** ****** ****** ****** ****** ****** ****** ****** ****** ******
      ****** ****** ****** ****** ****** ****** ****** ****** ****** ******
  12  ****** ****** ****** ****** ****** ****** ****** ****** ****** ******
      ****** ****** ****** ****** ****** ****** ****** ****** ****** ******
      ****** ****** ****** ****** ****** ****** ****** ****** ****** ******
  13  ****** ****** ****** ****** ****** ****** ****** ****** ****** ******
      ****** ****** ****** ****** ****** ****** ****** ****** ****** ******
      ****** ****** ****** ****** ****** ****** ****** ****** ****** ******
  14  ****** ****** ****** ****** ****** ****** ****** ****** ****** ******
      ****** ****** ****** ****** ****** ****** ****** ****** ****** ******
      ****** ****** ****** ****** ****** ****** ****** ****** ****** ******
  15  ****** ****** ****** ****** ****** ****** ****** ****** ****** ******
      ****** ****** ****** ****** ****** ****** ****** ****** ****** ******
      ****** ****** ****** ****** ****** ****** ****** ****** ****** ******
  16  ****** ****** ****** ****** ****** ****** ****** ****** ****** ******
      ****** ****** ****** ****** ****** ****** ****** ****** ****** ******
      ****** ****** ****** ****** ****** ****** ****** ****** ****** ******
  17  ****** ****** ****** ****** ****** ****** ****** ****** ****** ******
      ****** ****** ****** ****** ****** ****** ****** ****** ****** ******
      ****** ****** ****** ****** ****** ****** ****** ****** ****** ******
  18  ****** ****** ****** ****** ****** ****** ****** ****** ****** ******
      ****** ****** ****** ****** ****** ****** ****** ****** ****** ******
      ****** ****** ****** ****** ****** ****** ****** ****** ****** ******
  19  ****** ****** ****** ****** ****** ****** ****** ****** ****** ******
      ****** ****** ****** ****** ****** ****** ****** ****** ****** ******
      ****** ****** ****** ****** ****** ****** ****** ****** ****** ******
  20  ****** ****** ****** ****** ****** ****** ****** ****** ****** ******
      ****** ****** ****** ****** ****** ****** ****** ****** ****** ******
      ****** ****** ****** ****** ****** ****** ****** ****** ****** ******
  21  ****** ****** ****** ****** ****** ****** ****** ****** ****** ******
      ****** ****** ****** ****** ****** ****** ****** ****** ****** ******
      ****** ****** ****** ****** ****** ****** ****** ****** ****** ******
  22  ****** ****** ****** ****** ****** ****** ****** ****** ****** ******
      ****** ****** ****** ****** ****** ****** ****** ****** ****** ******
      ****** ****** ****** ****** ****** ****** ****** ****** ****** ******
  23  ****** ****** ****** ****** ****** ****** ****** ****** ****** ******
      ****** ****** ****** ****** ****** ****** ****** ****** ****** ******
      ****** ****** ****** ****** ****** ****** ****** ****** ****** ******
  24  ****** ****** ****** ****** ****** ****** ****** ****** ****** ******
      ****** ****** ****** ****** ****** ****** ****** ****** ****** ******
      ****** ****** ****** ****** ****** ****** ****** ****** ****** ******
  25  ****** ****** ****** ****** ****** ****** ****** ****** ****** ******
      ****** ****** ****** ****** ****** ****** ****** ****** ****** ******
      ****** ****** ****** ****** ****** ****** ****** ****** ****** ******

 HEAD WILL BE SAVED ON UNIT   51 AT END OF TIME STEP    1, STRESS PERIOD    8
1
  VOLUMETRIC BUDGET FOR ENTIRE MODEL AT END OF TIME STEP    1, STRESS PERIOD   8
  ------------------------------------------------------------------------------

     CUMULATIVE VOLUMES      L**3       RATES FOR THIS TIME STEP      L**3/T
     ------------------                 ------------------------

           IN:                                      IN:
           ---                                      ---
             STORAGE =    33384076.2773               STORAGE =        1593.2011
       CONSTANT HEAD =    18977625.4702         CONSTANT HEAD =       32698.9049
               WELLS =           0.0000                 WELLS =           0.0000
            RECHARGE =    17608800.0000              RECHARGE =       27600.0000
      STREAM LEAKAGE =     4765038.4718        STREAM LEAKAGE =        7490.2737

            TOTAL IN =    74735540.2193              TOTAL IN =       69382.3797

          OUT:                                     OUT:
          ----                                     ----
             STORAGE =      908378.2760               STORAGE =        1515.6872
       CONSTANT HEAD =           0.0000         CONSTANT HEAD =           0.0000
               WELLS =    16860029.2365                 WELLS =       23095.9305
            RECHARGE =           0.0000              RECHARGE =           0.0000
      STREAM LEAKAGE =    56967134.4960        STREAM LEAKAGE =       44770.7540

           TOTAL OUT =    74735542.0085             TOTAL OUT =       69382.3717

            IN - OUT =          -1.7892              IN - OUT =       8.0105E-03

 PERCENT DISCREPANCY =          -0.00     PERCENT DISCREPANCY =           0.00






         TIME SUMMARY AT END OF TIME STEP    1 IN STRESS PERIOD    8
                    SECONDS     MINUTES      HOURS       DAYS        YEARS
                    -----------------------------------------------------------
   TIME STEP LENGTH 7.86240E+06 1.31040E+05  2184.0      91.000     0.24914    
 STRESS PERIOD TIME 7.86240E+06 1.31040E+05  2184.0      91.000     0.24914    
         TOTAL TIME 6.30720E+07 1.05120E+06  17520.      730.00      1.9986    
1
1
                            STRESS PERIOD NO.    9, LENGTH =   92.00000    
                            -----------------------------------------------

                              NUMBER OF TIME STEPS =     1

                               MULTIPLIER FOR DELT =     1.500

                            INITIAL TIME STEP SIZE =   92.00000    

 WELL NO.  LAYER   ROW   COL   STRESS RATE         
 --------------------------------------------------
      1      1     14      6       0.000    
      2      1      3      9       0.000    
      3      1     20     10       0.000    
      4      1     14     20       0.000    
      5      1     18     24      -1560.    
      6      1     13      7      -1528.    
      7      1     19     17      -9348.    
      8      1     11     14     -0.1066E+05

      8 WELLS

                 RECHARGE =  5.000000E-04

 REUSING STREAM SEGMENT DATA FROM LAST STRESS PERIOD
 
 SOLVING FOR HEAD 


     6 CALLS TO PCG ROUTINE FOR TIME STEP   1 IN STRESS PERIOD    9
    23 TOTAL ITERATIONS

 OUTPUT CONTROL FOR STRESS PERIOD    9   TIME STEP    1
    SAVE BUDGET
    SAVE HEAD FOR ALL LAYERS
    PRINT HEAD FOR ALL LAYERS
 UBDSV2 SAVING "STREAMFLOW OUT  " ON UNIT  50 AT TIME STEP  1, STRESS PERIOD   9



 STREAM LISTING     PERIOD      9   STEP        1

 LAYER ROW COL. STREAM  RCH.  FLOW INTO     FLOW TO   FLOW OUT OF   OVRLND.     DIRECT     STREAM       STREAM     STREAM     STREAM   STREAMBED  STREAMBED
                SEG.NO.  NO.  STRM. RCH.    AQUIFER    STRM. RCH.    RUNOFF     PRECIP       ET          HEAD       DEPTH      WIDTH   CONDCTNC.   GRADIENT

   1   13    1     1     1    1.0000E+05 -1.4948E+03   1.0149E+05  0.000E+00  0.000E+00  0.000E+00  4.84067E+01  1.453E-01  2.000E+01  2.000E+04 -7.474E-02
   1   13    2     1     2    1.0149E+05 -2.3733E+03   1.0387E+05  0.000E+00  0.000E+00  0.000E+00  4.79311E+01  1.470E-01  2.000E+01  2.000E+04 -1.187E-01
   1   14    3     1     3    1.0387E+05 -3.1291E+02   1.0418E+05  0.000E+00  0.000E+00  0.000E+00  4.74549E+01  1.481E-01  2.000E+01  2.000E+04 -1.565E-02
   1   15    4     1     4    1.0418E+05 -2.6549E+02   1.0445E+05  0.000E+00  0.000E+00  0.000E+00  4.69779E+01  1.484E-01  2.000E+01  2.000E+04 -1.327E-02
   1   16    5     1     5    1.0445E+05 -1.2658E+03   1.0571E+05  0.000E+00  0.000E+00  0.000E+00  4.65013E+01  1.490E-01  2.000E+01  2.000E+04 -6.329E-02
   1   16    6     1     6    1.0571E+05 -7.1301E+02   1.0643E+05  0.000E+00  0.000E+00  0.000E+00  4.60249E+01  1.499E-01  2.000E+01  2.000E+04 -3.565E-02
   1   16    7     1     7    1.0643E+05 -6.3950E+02   1.0706E+05  0.000E+00  0.000E+00  0.000E+00  4.55482E+01  1.504E-01  2.000E+01  2.000E+04 -3.198E-02
   1   16    8     1     8    1.0706E+05 -6.4042E+02   1.0771E+05  0.000E+00  0.000E+00  0.000E+00  4.50714E+01  1.510E-01  2.000E+01  2.000E+04 -3.202E-02
   1   16    9     1     9    1.0771E+05 -6.3473E+02   1.0834E+05  0.000E+00  0.000E+00  0.000E+00  4.45947E+01  1.515E-01  2.000E+01  2.000E+04 -3.174E-02
   1   16   10     1    10    1.0834E+05 -5.9530E+02   1.0894E+05  0.000E+00  0.000E+00  0.000E+00  4.41179E+01  1.520E-01  2.000E+01  2.000E+04 -2.977E-02
   1   16   11     1    11    1.0894E+05 -5.1449E+02   1.0945E+05  0.000E+00  0.000E+00  0.000E+00  4.36411E+01  1.525E-01  2.000E+01  2.000E+04 -2.572E-02
   1   16   12     1    12    1.0945E+05 -4.5851E+02   1.0991E+05  0.000E+00  0.000E+00  0.000E+00  4.31643E+01  1.529E-01  2.000E+01  2.000E+04 -2.293E-02
   1   15   13     1    13    1.0991E+05  1.3533E+01   1.0989E+05  0.000E+00  0.000E+00  0.000E+00  4.26872E+01  1.531E-01  2.000E+01  2.000E+04  6.767E-04
   1   14   14     1    14    1.0989E+05  3.3192E+02   1.0956E+05  0.000E+00  0.000E+00  0.000E+00  4.22098E+01  1.529E-01  2.000E+01  2.000E+04  1.660E-02
   1   13   15     1    15    1.0956E+05  5.9672E+02   1.0897E+05  0.000E+00  0.000E+00  0.000E+00  4.17321E+01  1.525E-01  2.000E+01  2.000E+04  2.984E-02
   1   12   16     1    16    1.0897E+05 -1.5995E+02   1.0913E+05  0.000E+00  0.000E+00  0.000E+00  4.12546E+01  1.524E-01  2.000E+01  2.000E+04 -7.998E-03
   1   12   17     1    17    1.0913E+05 -8.5304E+02   1.0998E+05  0.000E+00  0.000E+00  0.000E+00  4.07778E+01  1.528E-01  2.000E+01  2.000E+04 -4.265E-02
   1   12   18     1    18    1.0998E+05 -1.0538E+03   1.1103E+05  0.000E+00  0.000E+00  0.000E+00  4.03013E+01  1.536E-01  2.000E+01  2.000E+04 -5.269E-02
   1   12   19     1    19    1.1103E+05 -1.7112E+03   1.1274E+05  0.000E+00  0.000E+00  0.000E+00  3.98252E+01  1.547E-01  2.000E+01  2.000E+04 -8.556E-02
   1   13   20     1    20    1.1274E+05 -1.0286E+03   1.1377E+05  0.000E+00  0.000E+00  0.000E+00  3.93491E+01  1.559E-01  2.000E+01  2.000E+04 -5.143E-02
   1   14   21     1    21    1.1377E+05 -5.1368E+02   1.1429E+05  0.000E+00  0.000E+00  0.000E+00  3.88724E+01  1.565E-01  2.000E+01  2.000E+04 -2.568E-02
   1   14   22     1    22    1.1429E+05  4.9785E+03   1.0931E+05  0.000E+00  0.000E+00  0.000E+00  3.83933E+01  1.547E-01  2.000E+01  2.000E+04  2.489E-01
   1    9   30     2     1    5.0000E+04 -5.3856E+02   5.0539E+04  0.000E+00  0.000E+00  0.000E+00  4.02412E+01  1.162E-01  2.000E+01  2.000E+04 -2.693E-02
   1    9   29     2     2    5.0539E+04 -8.3426E+02   5.1373E+04  0.000E+00  0.000E+00  0.000E+00  3.99922E+01  1.172E-01  2.000E+01  2.000E+04 -4.171E-02
   1    9   28     2     3    5.1373E+04 -1.0787E+03   5.2452E+04  0.000E+00  0.000E+00  0.000E+00  3.97435E+01  1.185E-01  2.000E+01  2.000E+04 -5.394E-02
   1    9   27     2     4    5.2452E+04 -2.2432E+03   5.4695E+04  0.000E+00  0.000E+00  0.000E+00  3.94958E+01  1.208E-01  2.000E+01  2.000E+04 -1.122E-01
   1   10   26     2     5    5.4695E+04 -1.4595E+03   5.6154E+04  0.000E+00  0.000E+00  0.000E+00  3.92483E+01  1.233E-01  2.000E+01  2.000E+04 -7.298E-02
   1   11   25     2     6    5.6154E+04 -1.2617E+03   5.7416E+04  0.000E+00  0.000E+00  0.000E+00  3.90001E+01  1.251E-01  2.000E+01  2.000E+04 -6.308E-02
   1   12   24     2     7    5.7416E+04 -1.3321E+03   5.8748E+04  0.000E+00  0.000E+00  0.000E+00  3.87518E+01  1.268E-01  2.000E+01  2.000E+04 -6.660E-02
   1   13   23     2     8    5.8748E+04 -2.0658E+02   5.8955E+04  0.000E+00  0.000E+00  0.000E+00  3.85028E+01  1.278E-01  2.000E+01  2.000E+04 -1.033E-02
   1   14   22     2     9    5.8955E+04  2.1427E+03   5.6812E+04  0.000E+00  0.000E+00  0.000E+00  3.82515E+01  1.265E-01  2.000E+01  2.000E+04  1.071E-01
   1   14   22     3     1    1.6612E+05 -8.4715E+03   1.7459E+05  0.000E+00  0.000E+00  0.000E+00  3.77208E+01  1.652E-01  2.000E+01  2.000E+04 -4.236E-01
   1   15   23     3     2    1.7459E+05 -2.7369E+02   1.7487E+05  0.000E+00  0.000E+00  0.000E+00  3.68344E+01  1.678E-01  2.000E+01  2.000E+04 -1.368E-02
   1   15   24     3     3    1.7487E+05 -1.0804E+02   1.7497E+05  0.000E+00  0.000E+00  0.000E+00  3.59457E+01  1.679E-01  2.000E+01  2.000E+04 -5.402E-03
   1   15   25     3     4    1.7497E+05 -1.3348E+02   1.7511E+05  0.000E+00  0.000E+00  0.000E+00  3.50568E+01  1.680E-01  2.000E+01  2.000E+04 -6.674E-03
   1   15   26     3     5    1.7511E+05 -2.3260E+02   1.7534E+05  0.000E+00  0.000E+00  0.000E+00  3.41681E+01  1.681E-01  2.000E+01  2.000E+04 -1.163E-02
   1   16   27     3     6    1.7534E+05 -2.1875E+02   1.7556E+05  0.000E+00  0.000E+00  0.000E+00  3.32793E+01  1.682E-01  2.000E+01  2.000E+04 -1.094E-02
   1   17   28     3     7    1.7556E+05 -1.1853E+03   1.7674E+05  0.000E+00  0.000E+00  0.000E+00  3.23908E+01  1.686E-01  2.000E+01  2.000E+04 -5.926E-02
   1   18   29     3     8    1.7674E+05 -2.3245E+03   1.7907E+05  0.000E+00  0.000E+00  0.000E+00  3.15029E+01  1.696E-01  2.000E+01  2.000E+04 -1.162E-01
   1   18   30     3     9    1.7907E+05 -2.8219E+03   1.8189E+05  0.000E+00  0.000E+00  0.000E+00  3.06155E+01  1.711E-01  2.000E+01  2.000E+04 -1.411E-01



1
              HEAD IN LAYER   1 AT END OF TIME STEP   1 IN STRESS PERIOD    9
  ---------------------------------------------------------------------------

          1      2      3      4      5      6      7      8      9     10
         11     12     13     14     15     16     17     18     19     20
         21     22     23     24     25     26     27     28     29     30
 .........................................................................
   1  ****** ****** ****** ****** ****** ****** ****** ****** ****** ******
      ****** ****** ****** ****** ****** ****** ****** ****** ****** ******
      ****** ****** ****** ****** ****** ****** ****** ****** ****** ******
   2  ****** ****** ****** ****** ****** ****** ****** ****** ****** ******
      ****** ****** ****** ****** ****** ****** ****** ****** ****** ******
      ****** ****** ****** ****** ****** ****** ****** ****** ****** ******
   3  ****** ****** ****** ****** ****** ****** ****** ****** ****** ******
      ****** ****** ****** ****** ****** ****** ****** ****** ****** ******
      ****** ****** ****** ****** ****** ****** ****** ****** ****** ******
   4  ****** ****** ****** ****** ****** ****** ****** ****** ****** ******
      ****** ****** ****** ****** ****** ****** ****** ****** ****** ******
      ****** ****** ****** ****** ****** ****** ****** ****** ****** ******
   5  ****** ****** ****** ****** ****** ****** ****** ****** ****** ******
      ****** ****** ****** ****** ****** ****** ****** ****** ****** ******
      ****** ****** ****** ****** ****** ****** ****** ****** ****** ******
   6  ****** ****** ****** ****** ****** ****** ****** ****** ****** ******
      ****** ****** ****** ****** ****** ****** ****** ****** ****** ******
      ****** ****** ****** ****** ****** ****** ****** ****** ****** ******
   7  ****** ****** ****** ****** ****** ****** ****** ****** ****** ******
      ****** ****** ****** ****** ****** ****** ****** ****** ****** ******
      ****** ****** ****** ****** ****** ****** ****** ****** ****** ******
   8  ****** ****** ****** ****** ****** ****** ****** ****** ****** ******
      ****** ****** ****** ****** ****** ****** ****** ****** ****** ******
      ****** ****** ****** ****** ****** ****** ****** ****** ****** ******
   9  ****** ****** ****** ****** ****** ****** ****** ****** ****** ******
      ****** ****** ****** ****** ****** ****** ****** ****** ****** ******
      ****** ****** ****** ****** ****** ****** ****** ****** ****** ******
  10  ****** ****** ****** ****** ****** ****** ****** ****** ****** ******
      ****** ****** ****** ****** ****** ****** ****** ****** ****** ******
      ****** ****** ****** ****** ****** ****** ****** ****** ****** ******
  11  ****** ****** ****** ****** ****** ****** ****** ****** ****** ******
      ****** ****** ****** ****** ****** ****** ****** ****** ****** ******
      ****** ****** ****** ****** ****** ****** ****** ****** ****** ******
  12  ****** ****** ****** ****** ****** ****** ****** ****** ****** ******
      ****** ****** ****** ****** ****** ****** ****** ****** ****** ******
      ****** ****** ****** ****** ****** ****** ****** ****** ****** ******
  13  ****** ****** ****** ****** ****** ****** ****** ****** ****** ******
      ****** ****** ****** ****** ****** ****** ****** ****** ****** ******
      ****** ****** ****** ****** ****** ****** ****** ****** ****** ******
  14  ****** ****** ****** ****** ****** ****** ****** ****** ****** ******
      ****** ****** ****** ****** ****** ****** ****** ****** ****** ******
      ****** ****** ****** ****** ****** ****** ****** ****** ****** ******
  15  ****** ****** ****** ****** ****** ****** ****** ****** ****** ******
      ****** ****** ****** ****** ****** ****** ****** ****** ****** ******
      ****** ****** ****** ****** ****** ****** ****** ****** ****** ******
  16  ****** ****** ****** ****** ****** ****** ****** ****** ****** ******
      ****** ****** ****** ****** ****** ****** ****** ****** ****** ******
      ****** ****** ****** ****** ****** ****** ****** ****** ****** ******
  17  ****** ****** ****** ****** ****** ****** ****** ****** ****** ******
      ****** ****** ****** ****** ****** ****** ****** ****** ****** ******
      ****** ****** ****** ****** ****** ****** ****** ****** ****** ******
  18  ****** ****** ****** ****** ****** ****** ****** ****** ****** ******
      ****** ****** ****** ****** ****** ****** ****** ****** ****** ******
      ****** ****** ****** ****** ****** ****** ****** ****** ****** ******
  19  ****** ****** ****** ****** ****** ****** ****** ****** ****** ******
      ****** ****** ****** ****** ****** ****** ****** ****** ****** ******
      ****** ****** ****** ****** ****** ****** ****** ****** ****** ******
  20  ****** ****** ****** ****** ****** ****** ****** ****** ****** ******
      ****** ****** ****** ****** ****** ****** ****** ****** ****** ******
      ****** ****** ****** ****** ****** ****** ****** ****** ****** ******
  21  ****** ****** ****** ****** ****** ****** ****** ****** ****** ******
      ****** ****** ****** ****** ****** ****** ****** ****** ****** ******
      ****** ****** ****** ****** ****** ****** ****** ****** ****** ******
  22  ****** ****** ****** ****** ****** ****** ****** ****** ****** ******
      ****** ****** ****** ****** ****** ****** ****** ****** ****** ******
      ****** ****** ****** ****** ****** ****** ****** ****** ****** ******
  23  ****** ****** ****** ****** ****** ****** ****** ****** ****** ******
      ****** ****** ****** ****** ****** ****** ****** ****** ****** ******
      ****** ****** ****** ****** ****** ****** ****** ****** ****** ******
  24  ****** ****** ****** ****** ****** ****** ****** ****** ****** ******
      ****** ****** ****** ****** ****** ****** ****** ****** ****** ******
      ****** ****** ****** ****** ****** ****** ****** ****** ****** ******
  25  ****** ****** ****** ****** ****** ****** ****** ****** ****** ******
      ****** ****** ****** ****** ****** ****** ****** ****** ****** ******
      ****** ****** ****** ****** ****** ****** ****** ****** ****** ******

 HEAD WILL BE SAVED ON UNIT   51 AT END OF TIME STEP    1, STRESS PERIOD    9
1
  VOLUMETRIC BUDGET FOR ENTIRE MODEL AT END OF TIME STEP    1, STRESS PERIOD   9
  ------------------------------------------------------------------------------

     CUMULATIVE VOLUMES      L**3       RATES FOR THIS TIME STEP      L**3/T
     ------------------                 ------------------------

           IN:                                      IN:
           ---                                      ---
             STORAGE =    34056577.1324               STORAGE =        7309.7919
       CONSTANT HEAD =    22094197.0886         CONSTANT HEAD =       33875.7785
               WELLS =           0.0000                 WELLS =           0.0000
            RECHARGE =    18878400.0000              RECHARGE =       13800.0000
      STREAM LEAKAGE =     5506867.7269        STREAM LEAKAGE =        8063.3615

            TOTAL IN =    80536041.9479              TOTAL IN =       63048.9318

          OUT:                                     OUT:
          ----                                     ----
             STORAGE =      908378.2760               STORAGE =           0.0000
       CONSTANT HEAD =           0.0000         CONSTANT HEAD =           0.0000
               WELLS =    18984854.8389                 WELLS =       23095.9305
            RECHARGE =           0.0000              RECHARGE =           0.0000
      STREAM LEAKAGE =    60642810.6934        STREAM LEAKAGE =       39953.0021

           TOTAL OUT =    80536043.8083             TOTAL OUT =       63048.9326

            IN - OUT =          -1.8604              IN - OUT =      -7.7342E-04

 PERCENT DISCREPANCY =          -0.00     PERCENT DISCREPANCY =          -0.00






         TIME SUMMARY AT END OF TIME STEP    1 IN STRESS PERIOD    9
                    SECONDS     MINUTES      HOURS       DAYS        YEARS
                    -----------------------------------------------------------
   TIME STEP LENGTH 7.94880E+06 1.32480E+05  2208.0      92.000     0.25188    
 STRESS PERIOD TIME 7.94880E+06 1.32480E+05  2208.0      92.000     0.25188    
         TOTAL TIME 7.10208E+07 1.18368E+06  19728.      822.00      2.2505    
1
1
                            STRESS PERIOD NO.   10, LENGTH =   91.00000    
                            -----------------------------------------------

                              NUMBER OF TIME STEPS =     1

                               MULTIPLIER FOR DELT =     1.500

                            INITIAL TIME STEP SIZE =   91.00000    

 WELL NO.  LAYER   ROW   COL   STRESS RATE         
 --------------------------------------------------
      1      1     14      6       0.000    
      2      1      3      9       0.000    
      3      1     20     10       0.000    
      4      1     14     20       0.000    
      5      1     18     24      -1560.    
      6      1     13      7      -1528.    
      7      1     19     17      -9348.    
      8      1     11     14     -0.1066E+05

      8 WELLS

                 RECHARGE =  2.000000E-03

 REUSING STREAM SEGMENT DATA FROM LAST STRESS PERIOD
 
 SOLVING FOR HEAD 


     7 CALLS TO PCG ROUTINE FOR TIME STEP   1 IN STRESS PERIOD   10
    26 TOTAL ITERATIONS

 OUTPUT CONTROL FOR STRESS PERIOD   10   TIME STEP    1
    SAVE BUDGET
    SAVE HEAD FOR ALL LAYERS
    PRINT HEAD FOR ALL LAYERS
 UBDSV2 SAVING "STREAMFLOW OUT  " ON UNIT  50 AT TIME STEP  1, STRESS PERIOD  10



 STREAM LISTING     PERIOD     10   STEP        1

 LAYER ROW COL. STREAM  RCH.  FLOW INTO     FLOW TO   FLOW OUT OF   OVRLND.     DIRECT     STREAM       STREAM     STREAM     STREAM   STREAMBED  STREAMBED
                SEG.NO.  NO.  STRM. RCH.    AQUIFER    STRM. RCH.    RUNOFF     PRECIP       ET          HEAD       DEPTH      WIDTH   CONDCTNC.   GRADIENT

   1   13    1     1     1    1.0000E+05 -1.9449E+03   1.0194E+05  0.000E+00  0.000E+00  0.000E+00  4.84069E+01  1.455E-01  2.000E+01  2.000E+04 -9.724E-02
   1   13    2     1     2    1.0194E+05 -2.8717E+03   1.0482E+05  0.000E+00  0.000E+00  0.000E+00  4.79317E+01  1.476E-01  2.000E+01  2.000E+04 -1.436E-01
   1   14    3     1     3    1.0482E+05 -4.9871E+02   1.0532E+05  0.000E+00  0.000E+00  0.000E+00  4.74558E+01  1.490E-01  2.000E+01  2.000E+04 -2.494E-02
   1   15    4     1     4    1.0532E+05 -4.6425E+02   1.0578E+05  0.000E+00  0.000E+00  0.000E+00  4.69790E+01  1.494E-01  2.000E+01  2.000E+04 -2.321E-02
   1   16    5     1     5    1.0578E+05 -1.8840E+03   1.0766E+05  0.000E+00  0.000E+00  0.000E+00  4.65027E+01  1.504E-01  2.000E+01  2.000E+04 -9.420E-02
   1   16    6     1     6    1.0766E+05 -1.0744E+03   1.0874E+05  0.000E+00  0.000E+00  0.000E+00  4.60267E+01  1.517E-01  2.000E+01  2.000E+04 -5.372E-02
   1   16    7     1     7    1.0874E+05 -9.8308E+02   1.0972E+05  0.000E+00  0.000E+00  0.000E+00  4.55502E+01  1.525E-01  2.000E+01  2.000E+04 -4.915E-02
   1   16    8     1     8    1.0972E+05 -9.7854E+02   1.1070E+05  0.000E+00  0.000E+00  0.000E+00  4.50738E+01  1.533E-01  2.000E+01  2.000E+04 -4.893E-02
   1   16    9     1     9    1.1070E+05 -9.7140E+02   1.1167E+05  0.000E+00  0.000E+00  0.000E+00  4.45973E+01  1.542E-01  2.000E+01  2.000E+04 -4.857E-02
   1   16   10     1    10    1.1167E+05 -9.3227E+02   1.1260E+05  0.000E+00  0.000E+00  0.000E+00  4.41209E+01  1.549E-01  2.000E+01  2.000E+04 -4.661E-02
   1   16   11     1    11    1.1260E+05 -8.5507E+02   1.1346E+05  0.000E+00  0.000E+00  0.000E+00  4.36443E+01  1.557E-01  2.000E+01  2.000E+04 -4.275E-02
   1   16   12     1    12    1.1346E+05 -1.0269E+03   1.1449E+05  0.000E+00  0.000E+00  0.000E+00  4.31678E+01  1.565E-01  2.000E+01  2.000E+04 -5.135E-02
   1   15   13     1    13    1.1449E+05 -5.7151E+02   1.1506E+05  0.000E+00  0.000E+00  0.000E+00  4.26912E+01  1.571E-01  2.000E+01  2.000E+04 -2.858E-02
   1   14   14     1    14    1.1506E+05 -2.6017E+02   1.1532E+05  0.000E+00  0.000E+00  0.000E+00  4.22143E+01  1.575E-01  2.000E+01  2.000E+04 -1.301E-02
   1   13   15     1    15    1.1532E+05  1.4662E+01   1.1530E+05  0.000E+00  0.000E+00  0.000E+00  4.17371E+01  1.576E-01  2.000E+01  2.000E+04  7.331E-04
   1   12   16     1    16    1.1530E+05 -7.2048E+02   1.1602E+05  0.000E+00  0.000E+00  0.000E+00  4.12601E+01  1.578E-01  2.000E+01  2.000E+04 -3.602E-02
   1   12   17     1    17    1.1602E+05 -1.2778E+03   1.1730E+05  0.000E+00  0.000E+00  0.000E+00  4.07837E+01  1.587E-01  2.000E+01  2.000E+04 -6.389E-02
   1   12   18     1    18    1.1730E+05 -1.4746E+03   1.1878E+05  0.000E+00  0.000E+00  0.000E+00  4.03075E+01  1.598E-01  2.000E+01  2.000E+04 -7.373E-02
   1   12   19     1    19    1.1878E+05 -2.2292E+03   1.2100E+05  0.000E+00  0.000E+00  0.000E+00  3.98317E+01  1.613E-01  2.000E+01  2.000E+04 -1.115E-01
   1   13   20     1    20    1.2100E+05 -1.5494E+03   1.2255E+05  0.000E+00  0.000E+00  0.000E+00  3.93560E+01  1.628E-01  2.000E+01  2.000E+04 -7.747E-02
   1   14   21     1    21    1.2255E+05 -1.0379E+03   1.2359E+05  0.000E+00  0.000E+00  0.000E+00  3.88797E+01  1.638E-01  2.000E+01  2.000E+04 -5.189E-02
   1   14   22     1    22    1.2359E+05  4.8542E+03   1.1874E+05  0.000E+00  0.000E+00  0.000E+00  3.84009E+01  1.623E-01  2.000E+01  2.000E+04  2.427E-01
   1    9   30     2     1    5.0000E+04 -9.5280E+02   5.0953E+04  0.000E+00  0.000E+00  0.000E+00  4.02415E+01  1.165E-01  2.000E+01  2.000E+04 -4.764E-02
   1    9   29     2     2    5.0953E+04 -1.2462E+03   5.2199E+04  0.000E+00  0.000E+00  0.000E+00  3.99930E+01  1.180E-01  2.000E+01  2.000E+04 -6.231E-02
   1    9   28     2     3    5.2199E+04 -1.4898E+03   5.3689E+04  0.000E+00  0.000E+00  0.000E+00  3.97449E+01  1.199E-01  2.000E+01  2.000E+04 -7.449E-02
   1    9   27     2     4    5.3689E+04 -2.7961E+03   5.6485E+04  0.000E+00  0.000E+00  0.000E+00  3.94978E+01  1.228E-01  2.000E+01  2.000E+04 -1.398E-01
   1   10   26     2     5    5.6485E+04 -2.0124E+03   5.8497E+04  0.000E+00  0.000E+00  0.000E+00  3.92510E+01  1.260E-01  2.000E+01  2.000E+04 -1.006E-01
   1   11   25     2     6    5.8497E+04 -1.7900E+03   6.0287E+04  0.000E+00  0.000E+00  0.000E+00  3.90035E+01  1.285E-01  2.000E+01  2.000E+04 -8.950E-02
   1   12   24     2     7    6.0287E+04 -1.8103E+03   6.2098E+04  0.000E+00  0.000E+00  0.000E+00  3.87558E+01  1.308E-01  2.000E+01  2.000E+04 -9.051E-02
   1   13   23     2     8    6.2098E+04 -3.5529E+02   6.2453E+04  0.000E+00  0.000E+00  0.000E+00  3.85072E+01  1.322E-01  2.000E+01  2.000E+04 -1.776E-02
   1   14   22     2     9    6.2453E+04  1.9583E+03   6.0495E+04  0.000E+00  0.000E+00  0.000E+00  3.82562E+01  1.312E-01  2.000E+01  2.000E+04  9.792E-02
   1   14   22     3     1    1.7923E+05 -8.5978E+03   1.8783E+05  0.000E+00  0.000E+00  0.000E+00  3.77283E+01  1.728E-01  2.000E+01  2.000E+04 -4.299E-01
   1   15   23     3     2    1.8783E+05 -4.3606E+02   1.8827E+05  0.000E+00  0.000E+00  0.000E+00  3.68420E+01  1.753E-01  2.000E+01  2.000E+04 -2.180E-02
   1   15   24     3     3    1.8827E+05 -2.4511E+02   1.8851E+05  0.000E+00  0.000E+00  0.000E+00  3.59533E+01  1.755E-01  2.000E+01  2.000E+04 -1.226E-02
   1   15   25     3     4    1.8851E+05 -2.7397E+02   1.8879E+05  0.000E+00  0.000E+00  0.000E+00  3.50646E+01  1.757E-01  2.000E+01  2.000E+04 -1.370E-02
   1   15   26     3     5    1.8879E+05 -3.9479E+02   1.8918E+05  0.000E+00  0.000E+00  0.000E+00  3.41759E+01  1.759E-01  2.000E+01  2.000E+04 -1.974E-02
   1   16   27     3     6    1.8918E+05 -4.0450E+02   1.8958E+05  0.000E+00  0.000E+00  0.000E+00  3.32872E+01  1.761E-01  2.000E+01  2.000E+04 -2.023E-02
   1   17   28     3     7    1.8958E+05 -1.7055E+03   1.9129E+05  0.000E+00  0.000E+00  0.000E+00  3.23989E+01  1.767E-01  2.000E+01  2.000E+04 -8.528E-02
   1   18   29     3     8    1.9129E+05 -2.8751E+03   1.9417E+05  0.000E+00  0.000E+00  0.000E+00  3.15113E+01  1.779E-01  2.000E+01  2.000E+04 -1.438E-01
   1   18   30     3     9    1.9417E+05 -3.2469E+03   1.9741E+05  0.000E+00  0.000E+00  0.000E+00  3.06241E+01  1.796E-01  2.000E+01  2.000E+04 -1.623E-01



1
              HEAD IN LAYER   1 AT END OF TIME STEP   1 IN STRESS PERIOD   10
  ---------------------------------------------------------------------------

          1      2      3      4      5      6      7      8      9     10
         11     12     13     14     15     16     17     18     19     20
         21     22     23     24     25     26     27     28     29     30
 .........................................................................
   1  ****** ****** ****** ****** ****** ****** ****** ****** ****** ******
      ****** ****** ****** ****** ****** ****** ****** ****** ****** ******
      ****** ****** ****** ****** ****** ****** ****** ****** ****** ******
   2  ****** ****** ****** ****** ****** ****** ****** ****** ****** ******
      ****** ****** ****** ****** ****** ****** ****** ****** ****** ******
      ****** ****** ****** ****** ****** ****** ****** ****** ****** ******
   3  ****** ****** ****** ****** ****** ****** ****** ****** ****** ******
      ****** ****** ****** ****** ****** ****** ****** ****** ****** ******
      ****** ****** ****** ****** ****** ****** ****** ****** ****** ******
   4  ****** ****** ****** ****** ****** ****** ****** ****** ****** ******
      ****** ****** ****** ****** ****** ****** ****** ****** ****** ******
      ****** ****** ****** ****** ****** ****** ****** ****** ****** ******
   5  ****** ****** ****** ****** ****** ****** ****** ****** ****** ******
      ****** ****** ****** ****** ****** ****** ****** ****** ****** ******
      ****** ****** ****** ****** ****** ****** ****** ****** ****** ******
   6  ****** ****** ****** ****** ****** ****** ****** ****** ****** ******
      ****** ****** ****** ****** ****** ****** ****** ****** ****** ******
      ****** ****** ****** ****** ****** ****** ****** ****** ****** ******
   7  ****** ****** ****** ****** ****** ****** ****** ****** ****** ******
      ****** ****** ****** ****** ****** ****** ****** ****** ****** ******
      ****** ****** ****** ****** ****** ****** ****** ****** ****** ******
   8  ****** ****** ****** ****** ****** ****** ****** ****** ****** ******
      ****** ****** ****** ****** ****** ****** ****** ****** ****** ******
      ****** ****** ****** ****** ****** ****** ****** ****** ****** ******
   9  ****** ****** ****** ****** ****** ****** ****** ****** ****** ******
      ****** ****** ****** ****** ****** ****** ****** ****** ****** ******
      ****** ****** ****** ****** ****** ****** ****** ****** ****** ******
  10  ****** ****** ****** ****** ****** ****** ****** ****** ****** ******
      ****** ****** ****** ****** ****** ****** ****** ****** ****** ******
      ****** ****** ****** ****** ****** ****** ****** ****** ****** ******
  11  ****** ****** ****** ****** ****** ****** ****** ****** ****** ******
      ****** ****** ****** ****** ****** ****** ****** ****** ****** ******
      ****** ****** ****** ****** ****** ****** ****** ****** ****** ******
  12  ****** ****** ****** ****** ****** ****** ****** ****** ****** ******
      ****** ****** ****** ****** ****** ****** ****** ****** ****** ******
      ****** ****** ****** ****** ****** ****** ****** ****** ****** ******
  13  ****** ****** ****** ****** ****** ****** ****** ****** ****** ******
      ****** ****** ****** ****** ****** ****** ****** ****** ****** ******
      ****** ****** ****** ****** ****** ****** ****** ****** ****** ******
  14  ****** ****** ****** ****** ****** ****** ****** ****** ****** ******
      ****** ****** ****** ****** ****** ****** ****** ****** ****** ******
      ****** ****** ****** ****** ****** ****** ****** ****** ****** ******
  15  ****** ****** ****** ****** ****** ****** ****** ****** ****** ******
      ****** ****** ****** ****** ****** ****** ****** ****** ****** ******
      ****** ****** ****** ****** ****** ****** ****** ****** ****** ******
  16  ****** ****** ****** ****** ****** ****** ****** ****** ****** ******
      ****** ****** ****** ****** ****** ****** ****** ****** ****** ******
      ****** ****** ****** ****** ****** ****** ****** ****** ****** ******
  17  ****** ****** ****** ****** ****** ****** ****** ****** ****** ******
      ****** ****** ****** ****** ****** ****** ****** ****** ****** ******
      ****** ****** ****** ****** ****** ****** ****** ****** ****** ******
  18  ****** ****** ****** ****** ****** ****** ****** ****** ****** ******
      ****** ****** ****** ****** ****** ****** ****** ****** ****** ******
      ****** ****** ****** ****** ****** ****** ****** ****** ****** ******
  19  ****** ****** ****** ****** ****** ****** ****** ****** ****** ******
      ****** ****** ****** ****** ****** ****** ****** ****** ****** ******
      ****** ****** ****** ****** ****** ****** ****** ****** ****** ******
  20  ****** ****** ****** ****** ****** ****** ****** ****** ****** ******
      ****** ****** ****** ****** ****** ****** ****** ****** ****** ******
      ****** ****** ****** ****** ****** ****** ****** ****** ****** ******
  21  ****** ****** ****** ****** ****** ****** ****** ****** ****** ******
      ****** ****** ****** ****** ****** ****** ****** ****** ****** ******
      ****** ****** ****** ****** ****** ****** ****** ****** ****** ******
  22  ****** ****** ****** ****** ****** ****** ****** ****** ****** ******
      ****** ****** ****** ****** ****** ****** ****** ****** ****** ******
      ****** ****** ****** ****** ****** ****** ****** ****** ****** ******
  23  ****** ****** ****** ****** ****** ****** ****** ****** ****** ******
      ****** ****** ****** ****** ****** ****** ****** ****** ****** ******
      ****** ****** ****** ****** ****** ****** ****** ****** ****** ******
  24  ****** ****** ****** ****** ****** ****** ****** ****** ****** ******
      ****** ****** ****** ****** ****** ****** ****** ****** ****** ******
      ****** ****** ****** ****** ****** ****** ****** ****** ****** ******
  25  ****** ****** ****** ****** ****** ****** ****** ****** ****** ******
      ****** ****** ****** ****** ****** ****** ****** ****** ****** ******
      ****** ****** ****** ****** ****** ****** ****** ****** ****** ******

 HEAD WILL BE SAVED ON UNIT   51 AT END OF TIME STEP    1, STRESS PERIOD   10
1
  VOLUMETRIC BUDGET FOR ENTIRE MODEL AT END OF TIME STEP    1, STRESS PERIOD  10
  ------------------------------------------------------------------------------

     CUMULATIVE VOLUMES      L**3       RATES FOR THIS TIME STEP      L**3/T
     ------------------                 ------------------------

           IN:                                      IN:
           ---                                      ---
             STORAGE =    34056577.1324               STORAGE =           0.0000
       CONSTANT HEAD =    24908778.2591         CONSTANT HEAD =       30929.4634
               WELLS =           0.0000                 WELLS =           0.0000
            RECHARGE =    23901600.0000              RECHARGE =       55200.0000
      STREAM LEAKAGE =     6128140.4634        STREAM LEAKAGE =        6827.1729

            TOTAL IN =    88995095.8549              TOTAL IN =       92956.6363

          OUT:                                     OUT:
          ----                                     ----
             STORAGE =     2329950.6398               STORAGE =       15621.6743
       CONSTANT HEAD =           0.0000         CONSTANT HEAD =           0.0000
               WELLS =    21086584.5108                 WELLS =       23095.9305
            RECHARGE =           0.0000              RECHARGE =           0.0000
      STREAM LEAKAGE =    65578562.2263        STREAM LEAKAGE =       54239.0278

           TOTAL OUT =    88995097.3769             TOTAL OUT =       92956.6326

            IN - OUT =          -1.5220              IN - OUT =       3.7186E-03

 PERCENT DISCREPANCY =          -0.00     PERCENT DISCREPANCY =           0.00






         TIME SUMMARY AT END OF TIME STEP    1 IN STRESS PERIOD   10
                    SECONDS     MINUTES      HOURS       DAYS        YEARS
                    -----------------------------------------------------------
   TIME STEP LENGTH 7.86240E+06 1.31040E+05  2184.0      91.000     0.24914    
 STRESS PERIOD TIME 7.86240E+06 1.31040E+05  2184.0      91.000     0.24914    
         TOTAL TIME 7.88832E+07 1.31472E+06  21912.      913.00      2.4997    
1
1
                            STRESS PERIOD NO.   11, LENGTH =   91.00000    
                            -----------------------------------------------

                              NUMBER OF TIME STEPS =     1

                               MULTIPLIER FOR DELT =     1.500

                            INITIAL TIME STEP SIZE =   91.00000    

 WELL NO.  LAYER   ROW   COL   STRESS RATE         
 --------------------------------------------------
      1      1     14      6       0.000    
      2      1      3      9       0.000    
      3      1     20     10       0.000    
      4      1     14     20       0.000    
      5      1     18     24      -1560.    
      6      1     13      7      -1528.    
      7      1     19     17      -9348.    
      8      1     11     14     -0.1066E+05

      8 WELLS

                 RECHARGE =   0.00000    

 REUSING STREAM SEGMENT DATA FROM LAST STRESS PERIOD
 
 SOLVING FOR HEAD 


     7 CALLS TO PCG ROUTINE FOR TIME STEP   1 IN STRESS PERIOD   11
    26 TOTAL ITERATIONS

 OUTPUT CONTROL FOR STRESS PERIOD   11   TIME STEP    1
    SAVE BUDGET
    SAVE HEAD FOR ALL LAYERS
    PRINT HEAD FOR ALL LAYERS
 UBDSV2 SAVING "STREAMFLOW OUT  " ON UNIT  50 AT TIME STEP  1, STRESS PERIOD  11



 STREAM LISTING     PERIOD     11   STEP        1

 LAYER ROW COL. STREAM  RCH.  FLOW INTO     FLOW TO   FLOW OUT OF   OVRLND.     DIRECT     STREAM       STREAM     STREAM     STREAM   STREAMBED  STREAMBED
                SEG.NO.  NO.  STRM. RCH.    AQUIFER    STRM. RCH.    RUNOFF     PRECIP       ET          HEAD       DEPTH      WIDTH   CONDCTNC.   GRADIENT

   1   13    1     1     1    1.0000E+05 -1.3755E+03   1.0138E+05  0.000E+00  0.000E+00  0.000E+00  4.84066E+01  1.452E-01  2.000E+01  2.000E+04 -6.877E-02
   1   13    2     1     2    1.0138E+05 -2.2374E+03   1.0361E+05  0.000E+00  0.000E+00  0.000E+00  4.79309E+01  1.468E-01  2.000E+01  2.000E+04 -1.119E-01
   1   14    3     1     3    1.0361E+05 -2.6734E+02   1.0388E+05  0.000E+00  0.000E+00  0.000E+00  4.74547E+01  1.479E-01  2.000E+01  2.000E+04 -1.337E-02
   1   15    4     1     4    1.0388E+05 -2.2191E+02   1.0410E+05  0.000E+00  0.000E+00  0.000E+00  4.69776E+01  1.481E-01  2.000E+01  2.000E+04 -1.110E-02
   1   16    5     1     5    1.0410E+05 -1.1958E+03   1.0530E+05  0.000E+00  0.000E+00  0.000E+00  4.65010E+01  1.487E-01  2.000E+01  2.000E+04 -5.979E-02
   1   16    6     1     6    1.0530E+05 -6.5967E+02   1.0596E+05  0.000E+00  0.000E+00  0.000E+00  4.60245E+01  1.495E-01  2.000E+01  2.000E+04 -3.298E-02
   1   16    7     1     7    1.0596E+05 -5.8586E+02   1.0654E+05  0.000E+00  0.000E+00  0.000E+00  4.55477E+01  1.500E-01  2.000E+01  2.000E+04 -2.929E-02
   1   16    8     1     8    1.0654E+05 -5.8685E+02   1.0713E+05  0.000E+00  0.000E+00  0.000E+00  4.50710E+01  1.505E-01  2.000E+01  2.000E+04 -2.934E-02
   1   16    9     1     9    1.0713E+05 -5.8199E+02   1.0771E+05  0.000E+00  0.000E+00  0.000E+00  4.45942E+01  1.510E-01  2.000E+01  2.000E+04 -2.910E-02
   1   16   10     1    10    1.0771E+05 -5.4402E+02   1.0826E+05  0.000E+00  0.000E+00  0.000E+00  4.41174E+01  1.515E-01  2.000E+01  2.000E+04 -2.720E-02
   1   16   11     1    11    1.0826E+05 -4.6510E+02   1.0872E+05  0.000E+00  0.000E+00  0.000E+00  4.36405E+01  1.519E-01  2.000E+01  2.000E+04 -2.325E-02
   1   16   12     1    12    1.0872E+05 -3.8066E+02   1.0910E+05  0.000E+00  0.000E+00  0.000E+00  4.31636E+01  1.523E-01  2.000E+01  2.000E+04 -1.903E-02
   1   15   13     1    13    1.0910E+05  1.1791E+02   1.0898E+05  0.000E+00  0.000E+00  0.000E+00  4.26865E+01  1.524E-01  2.000E+01  2.000E+04  5.895E-03
   1   14   14     1    14    1.0898E+05  4.4711E+02   1.0854E+05  0.000E+00  0.000E+00  0.000E+00  4.22089E+01  1.521E-01  2.000E+01  2.000E+04  2.236E-02
   1   13   15     1    15    1.0854E+05  7.1639E+02   1.0782E+05  0.000E+00  0.000E+00  0.000E+00  4.17312E+01  1.516E-01  2.000E+01  2.000E+04  3.582E-02
   1   12   16     1    16    1.0782E+05 -4.2154E+01   1.0786E+05  0.000E+00  0.000E+00  0.000E+00  4.12536E+01  1.514E-01  2.000E+01  2.000E+04 -2.108E-03
   1   12   17     1    17    1.0786E+05 -7.7064E+02   1.0863E+05  0.000E+00  0.000E+00  0.000E+00  4.07767E+01  1.517E-01  2.000E+01  2.000E+04 -3.853E-02
   1   12   18     1    18    1.0863E+05 -9.7518E+02   1.0961E+05  0.000E+00  0.000E+00  0.000E+00  4.03002E+01  1.524E-01  2.000E+01  2.000E+04 -4.876E-02
   1   12   19     1    19    1.0961E+05 -1.6162E+03   1.1122E+05  0.000E+00  0.000E+00  0.000E+00  3.98240E+01  1.535E-01  2.000E+01  2.000E+04 -8.081E-02
   1   13   20     1    20    1.1122E+05 -9.3686E+02   1.1216E+05  0.000E+00  0.000E+00  0.000E+00  3.93478E+01  1.546E-01  2.000E+01  2.000E+04 -4.684E-02
   1   14   21     1    21    1.1216E+05 -4.4078E+02   1.1260E+05  0.000E+00  0.000E+00  0.000E+00  3.88711E+01  1.551E-01  2.000E+01  2.000E+04 -2.204E-02
   1   14   22     1    22    1.1260E+05  4.9977E+03   1.0760E+05  0.000E+00  0.000E+00  0.000E+00  3.83919E+01  1.533E-01  2.000E+01  2.000E+04  2.499E-01
   1    9   30     2     1    5.0000E+04 -4.6477E+02   5.0465E+04  0.000E+00  0.000E+00  0.000E+00  4.02412E+01  1.162E-01  2.000E+01  2.000E+04 -2.324E-02
   1    9   29     2     2    5.0465E+04 -7.6122E+02   5.1226E+04  0.000E+00  0.000E+00  0.000E+00  3.99920E+01  1.170E-01  2.000E+01  2.000E+04 -3.806E-02
   1    9   28     2     3    5.1226E+04 -1.0070E+03   5.2233E+04  0.000E+00  0.000E+00  0.000E+00  3.97433E+01  1.183E-01  2.000E+01  2.000E+04 -5.035E-02
   1    9   27     2     4    5.2233E+04 -2.1563E+03   5.4389E+04  0.000E+00  0.000E+00  0.000E+00  3.94954E+01  1.204E-01  2.000E+01  2.000E+04 -1.078E-01
   1   10   26     2     5    5.4389E+04 -1.3581E+03   5.5747E+04  0.000E+00  0.000E+00  0.000E+00  3.92478E+01  1.228E-01  2.000E+01  2.000E+04 -6.791E-02
   1   11   25     2     6    5.5747E+04 -1.1595E+03   5.6907E+04  0.000E+00  0.000E+00  0.000E+00  3.89995E+01  1.245E-01  2.000E+01  2.000E+04 -5.798E-02
   1   12   24     2     7    5.6907E+04 -1.2367E+03   5.8144E+04  0.000E+00  0.000E+00  0.000E+00  3.87510E+01  1.260E-01  2.000E+01  2.000E+04 -6.184E-02
   1   13   23     2     8    5.8144E+04 -1.6937E+02   5.8313E+04  0.000E+00  0.000E+00  0.000E+00  3.85020E+01  1.270E-01  2.000E+01  2.000E+04 -8.468E-03
   1   14   22     2     9    5.8313E+04  2.1728E+03   5.6140E+04  0.000E+00  0.000E+00  0.000E+00  3.82506E+01  1.256E-01  2.000E+01  2.000E+04  1.086E-01
   1   14   22     3     1    1.6375E+05 -8.4520E+03   1.7220E+05  0.000E+00  0.000E+00  0.000E+00  3.77194E+01  1.638E-01  2.000E+01  2.000E+04 -4.226E-01
   1   15   23     3     2    1.7220E+05 -2.4393E+02   1.7244E+05  0.000E+00  0.000E+00  0.000E+00  3.68330E+01  1.664E-01  2.000E+01  2.000E+04 -1.220E-02
   1   15   24     3     3    1.7244E+05 -7.9936E+01   1.7252E+05  0.000E+00  0.000E+00  0.000E+00  3.59443E+01  1.665E-01  2.000E+01  2.000E+04 -3.997E-03
   1   15   25     3     4    1.7252E+05 -1.0497E+02   1.7263E+05  0.000E+00  0.000E+00  0.000E+00  3.50554E+01  1.665E-01  2.000E+01  2.000E+04 -5.248E-03
   1   15   26     3     5    1.7263E+05 -1.9907E+02   1.7282E+05  0.000E+00  0.000E+00  0.000E+00  3.41666E+01  1.666E-01  2.000E+01  2.000E+04 -9.953E-03
   1   16   27     3     6    1.7282E+05 -1.8144E+02   1.7301E+05  0.000E+00  0.000E+00  0.000E+00  3.32778E+01  1.667E-01  2.000E+01  2.000E+04 -9.072E-03
   1   17   28     3     7    1.7301E+05 -1.0956E+03   1.7410E+05  0.000E+00  0.000E+00  0.000E+00  3.23893E+01  1.671E-01  2.000E+01  2.000E+04 -5.478E-02
   1   18   29     3     8    1.7410E+05 -2.2529E+03   1.7635E+05  0.000E+00  0.000E+00  0.000E+00  3.15014E+01  1.681E-01  2.000E+01  2.000E+04 -1.126E-01
   1   18   30     3     9    1.7635E+05 -2.7574E+03   1.7911E+05  0.000E+00  0.000E+00  0.000E+00  3.06139E+01  1.695E-01  2.000E+01  2.000E+04 -1.379E-01



1
              HEAD IN LAYER   1 AT END OF TIME STEP   1 IN STRESS PERIOD   11
  ---------------------------------------------------------------------------

          1      2      3      4      5      6      7      8      9     10
         11     12     13     14     15     16     17     18     19     20
         21     22     23     24     25     26     27     28     29     30
 .........................................................................
   1  ****** ****** ****** ****** ****** ****** ****** ****** ****** ******
      ****** ****** ****** ****** ****** ****** ****** ****** ****** ******
      ****** ****** ****** ****** ****** ****** ****** ****** ****** ******
   2  ****** ****** ****** ****** ****** ****** ****** ****** ****** ******
      ****** ****** ****** ****** ****** ****** ****** ****** ****** ******
      ****** ****** ****** ****** ****** ****** ****** ****** ****** ******
   3  ****** ****** ****** ****** ****** ****** ****** ****** ****** ******
      ****** ****** ****** ****** ****** ****** ****** ****** ****** ******
      ****** ****** ****** ****** ****** ****** ****** ****** ****** ******
   4  ****** ****** ****** ****** ****** ****** ****** ****** ****** ******
      ****** ****** ****** ****** ****** ****** ****** ****** ****** ******
      ****** ****** ****** ****** ****** ****** ****** ****** ****** ******
   5  ****** ****** ****** ****** ****** ****** ****** ****** ****** ******
      ****** ****** ****** ****** ****** ****** ****** ****** ****** ******
      ****** ****** ****** ****** ****** ****** ****** ****** ****** ******
   6  ****** ****** ****** ****** ****** ****** ****** ****** ****** ******
      ****** ****** ****** ****** ****** ****** ****** ****** ****** ******
      ****** ****** ****** ****** ****** ****** ****** ****** ****** ******
   7  ****** ****** ****** ****** ****** ****** ****** ****** ****** ******
      ****** ****** ****** ****** ****** ****** ****** ****** ****** ******
      ****** ****** ****** ****** ****** ****** ****** ****** ****** ******
   8  ****** ****** ****** ****** ****** ****** ****** ****** ****** ******
      ****** ****** ****** ****** ****** ****** ****** ****** ****** ******
      ****** ****** ****** ****** ****** ****** ****** ****** ****** ******
   9  ****** ****** ****** ****** ****** ****** ****** ****** ****** ******
      ****** ****** ****** ****** ****** ****** ****** ****** ****** ******
      ****** ****** ****** ****** ****** ****** ****** ****** ****** ******
  10  ****** ****** ****** ****** ****** ****** ****** ****** ****** ******
      ****** ****** ****** ****** ****** ****** ****** ****** ****** ******
      ****** ****** ****** ****** ****** ****** ****** ****** ****** ******
  11  ****** ****** ****** ****** ****** ****** ****** ****** ****** ******
      ****** ****** ****** ****** ****** ****** ****** ****** ****** ******
      ****** ****** ****** ****** ****** ****** ****** ****** ****** ******
  12  ****** ****** ****** ****** ****** ****** ****** ****** ****** ******
      ****** ****** ****** ****** ****** ****** ****** ****** ****** ******
      ****** ****** ****** ****** ****** ****** ****** ****** ****** ******
  13  ****** ****** ****** ****** ****** ****** ****** ****** ****** ******
      ****** ****** ****** ****** ****** ****** ****** ****** ****** ******
      ****** ****** ****** ****** ****** ****** ****** ****** ****** ******
  14  ****** ****** ****** ****** ****** ****** ****** ****** ****** ******
      ****** ****** ****** ****** ****** ****** ****** ****** ****** ******
      ****** ****** ****** ****** ****** ****** ****** ****** ****** ******
  15  ****** ****** ****** ****** ****** ****** ****** ****** ****** ******
      ****** ****** ****** ****** ****** ****** ****** ****** ****** ******
      ****** ****** ****** ****** ****** ****** ****** ****** ****** ******
  16  ****** ****** ****** ****** ****** ****** ****** ****** ****** ******
      ****** ****** ****** ****** ****** ****** ****** ****** ****** ******
      ****** ****** ****** ****** ****** ****** ****** ****** ****** ******
  17  ****** ****** ****** ****** ****** ****** ****** ****** ****** ******
      ****** ****** ****** ****** ****** ****** ****** ****** ****** ******
      ****** ****** ****** ****** ****** ****** ****** ****** ****** ******
  18  ****** ****** ****** ****** ****** ****** ****** ****** ****** ******
      ****** ****** ****** ****** ****** ****** ****** ****** ****** ******
      ****** ****** ****** ****** ****** ****** ****** ****** ****** ******
  19  ****** ****** ****** ****** ****** ****** ****** ****** ****** ******
      ****** ****** ****** ****** ****** ****** ****** ****** ****** ******
      ****** ****** ****** ****** ****** ****** ****** ****** ****** ******
  20  ****** ****** ****** ****** ****** ****** ****** ****** ****** ******
      ****** ****** ****** ****** ****** ****** ****** ****** ****** ******
      ****** ****** ****** ****** ****** ****** ****** ****** ****** ******
  21  ****** ****** ****** ****** ****** ****** ****** ****** ****** ******
      ****** ****** ****** ****** ****** ****** ****** ****** ****** ******
      ****** ****** ****** ****** ****** ****** ****** ****** ****** ******
  22  ****** ****** ****** ****** ****** ****** ****** ****** ****** ******
      ****** ****** ****** ****** ****** ****** ****** ****** ****** ******
      ****** ****** ****** ****** ****** ****** ****** ****** ****** ******
  23  ****** ****** ****** ****** ****** ****** ****** ****** ****** ******
      ****** ****** ****** ****** ****** ****** ****** ****** ****** ******
      ****** ****** ****** ****** ****** ****** ****** ****** ****** ******
  24  ****** ****** ****** ****** ****** ****** ****** ****** ****** ******
      ****** ****** ****** ****** ****** ****** ****** ****** ****** ******
      ****** ****** ****** ****** ****** ****** ****** ****** ****** ******
  25  ****** ****** ****** ****** ****** ****** ****** ****** ****** ******
      ****** ****** ****** ****** ****** ****** ****** ****** ****** ******
      ****** ****** ****** ****** ****** ****** ****** ****** ****** ******

 HEAD WILL BE SAVED ON UNIT   51 AT END OF TIME STEP    1, STRESS PERIOD   11
1
  VOLUMETRIC BUDGET FOR ENTIRE MODEL AT END OF TIME STEP    1, STRESS PERIOD  11
  ------------------------------------------------------------------------------

     CUMULATIVE VOLUMES      L**3       RATES FOR THIS TIME STEP      L**3/T
     ------------------                 ------------------------

           IN:                                      IN:
           ---                                      ---
             STORAGE =    35693513.6896               STORAGE =       17988.3138
       CONSTANT HEAD =    28022798.9941         CONSTANT HEAD =       34220.0081
               WELLS =           0.0000                 WELLS =           0.0000
            RECHARGE =    23901600.0000              RECHARGE =           0.0000
      STREAM LEAKAGE =     6897261.0252        STREAM LEAKAGE =        8451.8743

            TOTAL IN =    94515173.7089              TOTAL IN =       60660.1962

          OUT:                                     OUT:
          ----                                     ----
             STORAGE =     2329950.6398               STORAGE =           0.0000
       CONSTANT HEAD =           0.0000         CONSTANT HEAD =           0.0000
               WELLS =    23188314.1828                 WELLS =       23095.9305
            RECHARGE =           0.0000              RECHARGE =           0.0000
      STREAM LEAKAGE =    68996910.8529        STREAM LEAKAGE =       37564.2706

           TOTAL OUT =    94515175.6754             TOTAL OUT =       60660.2011

            IN - OUT =          -1.9665              IN - OUT =      -4.8850E-03

 PERCENT DISCREPANCY =          -0.00     PERCENT DISCREPANCY =          -0.00






         TIME SUMMARY AT END OF TIME STEP    1 IN STRESS PERIOD   11
                    SECONDS     MINUTES      HOURS       DAYS        YEARS
                    -----------------------------------------------------------
   TIME STEP LENGTH 7.86240E+06 1.31040E+05  2184.0      91.000     0.24914    
 STRESS PERIOD TIME 7.86240E+06 1.31040E+05  2184.0      91.000     0.24914    
         TOTAL TIME 8.67456E+07 1.44576E+06  24096.      1004.0      2.7488    
1
1
                            STRESS PERIOD NO.   12, LENGTH =   91.00000    
                            -----------------------------------------------

                              NUMBER OF TIME STEPS =     1

                               MULTIPLIER FOR DELT =     1.500

                            INITIAL TIME STEP SIZE =   91.00000    

 WELL NO.  LAYER   ROW   COL   STRESS RATE         
 --------------------------------------------------
      1      1     14      6       0.000    
      2      1      3      9       0.000    
      3      1     20     10       0.000    
      4      1     14     20       0.000    
      5      1     18     24      -1560.    
      6      1     13      7      -1528.    
      7      1     19     17      -9348.    
      8      1     11     14     -0.1066E+05

      8 WELLS

                 RECHARGE =  1.000000E-03

 REUSING STREAM SEGMENT DATA FROM LAST STRESS PERIOD
 
 SOLVING FOR HEAD 


     7 CALLS TO PCG ROUTINE FOR TIME STEP   1 IN STRESS PERIOD   12
    24 TOTAL ITERATIONS

 OUTPUT CONTROL FOR STRESS PERIOD   12   TIME STEP    1
    SAVE BUDGET
    SAVE HEAD FOR ALL LAYERS
    PRINT HEAD FOR ALL LAYERS
 UBDSV2 SAVING "STREAMFLOW OUT  " ON UNIT  50 AT TIME STEP  1, STRESS PERIOD  12



 STREAM LISTING     PERIOD     12   STEP        1

 LAYER ROW COL. STREAM  RCH.  FLOW INTO     FLOW TO   FLOW OUT OF   OVRLND.     DIRECT     STREAM       STREAM     STREAM     STREAM   STREAMBED  STREAMBED
                SEG.NO.  NO.  STRM. RCH.    AQUIFER    STRM. RCH.    RUNOFF     PRECIP       ET          HEAD       DEPTH      WIDTH   CONDCTNC.   GRADIENT

   1   13    1     1     1    1.0000E+05 -1.5185E+03   1.0152E+05  0.000E+00  0.000E+00  0.000E+00  4.84067E+01  1.453E-01  2.000E+01  2.000E+04 -7.592E-02
   1   13    2     1     2    1.0152E+05 -2.3910E+03   1.0391E+05  0.000E+00  0.000E+00  0.000E+00  4.79311E+01  1.470E-01  2.000E+01  2.000E+04 -1.195E-01
   1   14    3     1     3    1.0391E+05 -3.4557E+02   1.0425E+05  0.000E+00  0.000E+00  0.000E+00  4.74550E+01  1.482E-01  2.000E+01  2.000E+04 -1.728E-02
   1   15    4     1     4    1.0425E+05 -3.0398E+02   1.0456E+05  0.000E+00  0.000E+00  0.000E+00  4.69780E+01  1.484E-01  2.000E+01  2.000E+04 -1.520E-02
   1   16    5     1     5    1.0456E+05 -1.4053E+03   1.0596E+05  0.000E+00  0.000E+00  0.000E+00  4.65014E+01  1.492E-01  2.000E+01  2.000E+04 -7.026E-02
   1   16    6     1     6    1.0596E+05 -7.8981E+02   1.0675E+05  0.000E+00  0.000E+00  0.000E+00  4.60251E+01  1.501E-01  2.000E+01  2.000E+04 -3.949E-02
   1   16    7     1     7    1.0675E+05 -7.1090E+02   1.0746E+05  0.000E+00  0.000E+00  0.000E+00  4.55485E+01  1.507E-01  2.000E+01  2.000E+04 -3.554E-02
   1   16    8     1     8    1.0746E+05 -7.1084E+02   1.0818E+05  0.000E+00  0.000E+00  0.000E+00  4.50718E+01  1.513E-01  2.000E+01  2.000E+04 -3.554E-02
   1   16    9     1     9    1.0818E+05 -7.0644E+02   1.0888E+05  0.000E+00  0.000E+00  0.000E+00  4.45951E+01  1.519E-01  2.000E+01  2.000E+04 -3.532E-02
   1   16   10     1    10    1.0888E+05 -6.6985E+02   1.0955E+05  0.000E+00  0.000E+00  0.000E+00  4.41184E+01  1.525E-01  2.000E+01  2.000E+04 -3.349E-02
   1   16   11     1    11    1.0955E+05 -5.9321E+02   1.1015E+05  0.000E+00  0.000E+00  0.000E+00  4.36417E+01  1.530E-01  2.000E+01  2.000E+04 -2.966E-02
   1   16   12     1    12    1.1015E+05 -5.8198E+02   1.1073E+05  0.000E+00  0.000E+00  0.000E+00  4.31649E+01  1.535E-01  2.000E+01  2.000E+04 -2.910E-02
   1   15   13     1    13    1.1073E+05 -9.8463E+01   1.1083E+05  0.000E+00  0.000E+00  0.000E+00  4.26879E+01  1.538E-01  2.000E+01  2.000E+04 -4.923E-03
   1   14   14     1    14    1.1083E+05  2.3027E+02   1.1060E+05  0.000E+00  0.000E+00  0.000E+00  4.22106E+01  1.538E-01  2.000E+01  2.000E+04  1.151E-02
   1   13   15     1    15    1.1060E+05  5.0690E+02   1.1009E+05  0.000E+00  0.000E+00  0.000E+00  4.17330E+01  1.535E-01  2.000E+01  2.000E+04  2.535E-02
   1   12   16     1    16    1.1009E+05 -2.2510E+02   1.1031E+05  0.000E+00  0.000E+00  0.000E+00  4.12556E+01  1.533E-01  2.000E+01  2.000E+04 -1.126E-02
   1   12   17     1    17    1.1031E+05 -9.2384E+02   1.1124E+05  0.000E+00  0.000E+00  0.000E+00  4.07788E+01  1.538E-01  2.000E+01  2.000E+04 -4.619E-02
   1   12   18     1    18    1.1124E+05 -1.1306E+03   1.1237E+05  0.000E+00  0.000E+00  0.000E+00  4.03024E+01  1.547E-01  2.000E+01  2.000E+04 -5.653E-02
   1   12   19     1    19    1.1237E+05 -1.8085E+03   1.1418E+05  0.000E+00  0.000E+00  0.000E+00  3.98263E+01  1.559E-01  2.000E+01  2.000E+04 -9.042E-02
   1   13   20     1    20    1.1418E+05 -1.1471E+03   1.1532E+05  0.000E+00  0.000E+00  0.000E+00  3.93503E+01  1.571E-01  2.000E+01  2.000E+04 -5.735E-02
   1   14   21     1    21    1.1532E+05 -6.3461E+02   1.1596E+05  0.000E+00  0.000E+00  0.000E+00  3.88737E+01  1.578E-01  2.000E+01  2.000E+04 -3.173E-02
   1   14   22     1    22    1.1596E+05  4.9457E+03   1.1101E+05  0.000E+00  0.000E+00  0.000E+00  3.83947E+01  1.561E-01  2.000E+01  2.000E+04  2.473E-01
   1    9   30     2     1    5.0000E+04 -6.4118E+02   5.0641E+04  0.000E+00  0.000E+00  0.000E+00  4.02413E+01  1.163E-01  2.000E+01  2.000E+04 -3.206E-02
   1    9   29     2     2    5.0641E+04 -9.3558E+02   5.1577E+04  0.000E+00  0.000E+00  0.000E+00  3.99924E+01  1.174E-01  2.000E+01  2.000E+04 -4.678E-02
   1    9   28     2     3    5.1577E+04 -1.1779E+03   5.2755E+04  0.000E+00  0.000E+00  0.000E+00  3.97439E+01  1.189E-01  2.000E+01  2.000E+04 -5.889E-02
   1    9   27     2     4    5.2755E+04 -2.3654E+03   5.5120E+04  0.000E+00  0.000E+00  0.000E+00  3.94963E+01  1.213E-01  2.000E+01  2.000E+04 -1.183E-01
   1   10   26     2     5    5.5120E+04 -1.5879E+03   5.6708E+04  0.000E+00  0.000E+00  0.000E+00  3.92489E+01  1.239E-01  2.000E+01  2.000E+04 -7.940E-02
   1   11   25     2     6    5.6708E+04 -1.3854E+03   5.8093E+04  0.000E+00  0.000E+00  0.000E+00  3.90009E+01  1.259E-01  2.000E+01  2.000E+04 -6.927E-02
   1   12   24     2     7    5.8093E+04 -1.4429E+03   5.9536E+04  0.000E+00  0.000E+00  0.000E+00  3.87527E+01  1.277E-01  2.000E+01  2.000E+04 -7.214E-02
   1   13   23     2     8    5.9536E+04 -2.4701E+02   5.9783E+04  0.000E+00  0.000E+00  0.000E+00  3.85038E+01  1.288E-01  2.000E+01  2.000E+04 -1.235E-02
   1   14   22     2     9    5.9783E+04  2.1040E+03   5.7679E+04  0.000E+00  0.000E+00  0.000E+00  3.82526E+01  1.276E-01  2.000E+01  2.000E+04  1.052E-01
   1   14   22     3     1    1.6869E+05 -8.5023E+03   1.7719E+05  0.000E+00  0.000E+00  0.000E+00  3.77223E+01  1.667E-01  2.000E+01  2.000E+04 -4.251E-01
   1   15   23     3     2    1.7719E+05 -3.1591E+02   1.7751E+05  0.000E+00  0.000E+00  0.000E+00  3.68359E+01  1.693E-01  2.000E+01  2.000E+04 -1.580E-02
   1   15   24     3     3    1.7751E+05 -1.4500E+02   1.7766E+05  0.000E+00  0.000E+00  0.000E+00  3.59472E+01  1.694E-01  2.000E+01  2.000E+04 -7.250E-03
   1   15   25     3     4    1.7766E+05 -1.7131E+02   1.7783E+05  0.000E+00  0.000E+00  0.000E+00  3.50584E+01  1.695E-01  2.000E+01  2.000E+04 -8.565E-03
   1   15   26     3     5    1.7783E+05 -2.7654E+02   1.7810E+05  0.000E+00  0.000E+00  0.000E+00  3.41696E+01  1.696E-01  2.000E+01  2.000E+04 -1.383E-02
   1   16   27     3     6    1.7810E+05 -2.6820E+02   1.7837E+05  0.000E+00  0.000E+00  0.000E+00  3.32809E+01  1.698E-01  2.000E+01  2.000E+04 -1.341E-02
   1   17   28     3     7    1.7837E+05 -1.3163E+03   1.7969E+05  0.000E+00  0.000E+00  0.000E+00  3.23925E+01  1.702E-01  2.000E+01  2.000E+04 -6.581E-02
   1   18   29     3     8    1.7969E+05 -2.4533E+03   1.8214E+05  0.000E+00  0.000E+00  0.000E+00  3.15046E+01  1.713E-01  2.000E+01  2.000E+04 -1.227E-01
   1   18   30     3     9    1.8214E+05 -2.9255E+03   1.8507E+05  0.000E+00  0.000E+00  0.000E+00  3.06173E+01  1.728E-01  2.000E+01  2.000E+04 -1.463E-01



1
              HEAD IN LAYER   1 AT END OF TIME STEP   1 IN STRESS PERIOD   12
  ---------------------------------------------------------------------------

          1      2      3      4      5      6      7      8      9     10
         11     12     13     14     15     16     17     18     19     20
         21     22     23     24     25     26     27     28     29     30
 .........................................................................
   1  ****** ****** ****** ****** ****** ****** ****** ****** ****** ******
      ****** ****** ****** ****** ****** ****** ****** ****** ****** ******
      ****** ****** ****** ****** ****** ****** ****** ****** ****** ******
   2  ****** ****** ****** ****** ****** ****** ****** ****** ****** ******
      ****** ****** ****** ****** ****** ****** ****** ****** ****** ******
      ****** ****** ****** ****** ****** ****** ****** ****** ****** ******
   3  ****** ****** ****** ****** ****** ****** ****** ****** ****** ******
      ****** ****** ****** ****** ****** ****** ****** ****** ****** ******
      ****** ****** ****** ****** ****** ****** ****** ****** ****** ******
   4  ****** ****** ****** ****** ****** ****** ****** ****** ****** ******
      ****** ****** ****** ****** ****** ****** ****** ****** ****** ******
      ****** ****** ****** ****** ****** ****** ****** ****** ****** ******
   5  ****** ****** ****** ****** ****** ****** ****** ****** ****** ******
      ****** ****** ****** ****** ****** ****** ****** ****** ****** ******
      ****** ****** ****** ****** ****** ****** ****** ****** ****** ******
   6  ****** ****** ****** ****** ****** ****** ****** ****** ****** ******
      ****** ****** ****** ****** ****** ****** ****** ****** ****** ******
      ****** ****** ****** ****** ****** ****** ****** ****** ****** ******
   7  ****** ****** ****** ****** ****** ****** ****** ****** ****** ******
      ****** ****** ****** ****** ****** ****** ****** ****** ****** ******
      ****** ****** ****** ****** ****** ****** ****** ****** ****** ******
   8  ****** ****** ****** ****** ****** ****** ****** ****** ****** ******
      ****** ****** ****** ****** ****** ****** ****** ****** ****** ******
      ****** ****** ****** ****** ****** ****** ****** ****** ****** ******
   9  ****** ****** ****** ****** ****** ****** ****** ****** ****** ******
      ****** ****** ****** ****** ****** ****** ****** ****** ****** ******
      ****** ****** ****** ****** ****** ****** ****** ****** ****** ******
  10  ****** ****** ****** ****** ****** ****** ****** ****** ****** ******
      ****** ****** ****** ****** ****** ****** ****** ****** ****** ******
      ****** ****** ****** ****** ****** ****** ****** ****** ****** ******
  11  ****** ****** ****** ****** ****** ****** ****** ****** ****** ******
      ****** ****** ****** ****** ****** ****** ****** ****** ****** ******
      ****** ****** ****** ****** ****** ****** ****** ****** ****** ******
  12  ****** ****** ****** ****** ****** ****** ****** ****** ****** ******
      ****** ****** ****** ****** ****** ****** ****** ****** ****** ******
      ****** ****** ****** ****** ****** ****** ****** ****** ****** ******
  13  ****** ****** ****** ****** ****** ****** ****** ****** ****** ******
      ****** ****** ****** ****** ****** ****** ****** ****** ****** ******
      ****** ****** ****** ****** ****** ****** ****** ****** ****** ******
  14  ****** ****** ****** ****** ****** ****** ****** ****** ****** ******
      ****** ****** ****** ****** ****** ****** ****** ****** ****** ******
      ****** ****** ****** ****** ****** ****** ****** ****** ****** ******
  15  ****** ****** ****** ****** ****** ****** ****** ****** ****** ******
      ****** ****** ****** ****** ****** ****** ****** ****** ****** ******
      ****** ****** ****** ****** ****** ****** ****** ****** ****** ******
  16  ****** ****** ****** ****** ****** ****** ****** ****** ****** ******
      ****** ****** ****** ****** ****** ****** ****** ****** ****** ******
      ****** ****** ****** ****** ****** ****** ****** ****** ****** ******
  17  ****** ****** ****** ****** ****** ****** ****** ****** ****** ******
      ****** ****** ****** ****** ****** ****** ****** ****** ****** ******
      ****** ****** ****** ****** ****** ****** ****** ****** ****** ******
  18  ****** ****** ****** ****** ****** ****** ****** ****** ****** ******
      ****** ****** ****** ****** ****** ****** ****** ****** ****** ******
      ****** ****** ****** ****** ****** ****** ****** ****** ****** ******
  19  ****** ****** ****** ****** ****** ****** ****** ****** ****** ******
      ****** ****** ****** ****** ****** ****** ****** ****** ****** ******
      ****** ****** ****** ****** ****** ****** ****** ****** ****** ******
  20  ****** ****** ****** ****** ****** ****** ****** ****** ****** ******
      ****** ****** ****** ****** ****** ****** ****** ****** ****** ******
      ****** ****** ****** ****** ****** ****** ****** ****** ****** ******
  21  ****** ****** ****** ****** ****** ****** ****** ****** ****** ******
      ****** ****** ****** ****** ****** ****** ****** ****** ****** ******
      ****** ****** ****** ****** ****** ****** ****** ****** ****** ******
  22  ****** ****** ****** ****** ****** ****** ****** ****** ****** ******
      ****** ****** ****** ****** ****** ****** ****** ****** ****** ******
      ****** ****** ****** ****** ****** ****** ****** ****** ****** ******
  23  ****** ****** ****** ****** ****** ****** ****** ****** ****** ******
      ****** ****** ****** ****** ****** ****** ****** ****** ****** ******
      ****** ****** ****** ****** ****** ****** ****** ****** ****** ******
  24  ****** ****** ****** ****** ****** ****** ****** ****** ****** ******
      ****** ****** ****** ****** ****** ****** ****** ****** ****** ******
      ****** ****** ****** ****** ****** ****** ****** ****** ****** ******
  25  ****** ****** ****** ****** ****** ****** ****** ****** ****** ******
      ****** ****** ****** ****** ****** ****** ****** ****** ****** ******
      ****** ****** ****** ****** ****** ****** ****** ****** ****** ******

 HEAD WILL BE SAVED ON UNIT   51 AT END OF TIME STEP    1, STRESS PERIOD   12
1
  VOLUMETRIC BUDGET FOR ENTIRE MODEL AT END OF TIME STEP    1, STRESS PERIOD  12
  ------------------------------------------------------------------------------

     CUMULATIVE VOLUMES      L**3       RATES FOR THIS TIME STEP      L**3/T
     ------------------                 ------------------------

           IN:                                      IN:
           ---                                      ---
             STORAGE =    35694977.8543               STORAGE =          16.0897
       CONSTANT HEAD =    31073790.0893         CONSTANT HEAD =       33527.3747
               WELLS =           0.0000                 WELLS =           0.0000
            RECHARGE =    26413200.0000              RECHARGE =       27600.0000
      STREAM LEAKAGE =     7605869.8699        STREAM LEAKAGE =        7786.9104

            TOTAL IN =   100787837.8134              TOTAL IN =       68930.3748

          OUT:                                     OUT:
          ----                                     ----
             STORAGE =     2601252.9186               STORAGE =        2981.3437
       CONSTANT HEAD =           0.0000         CONSTANT HEAD =           0.0000
               WELLS =    25290043.8547                 WELLS =       23095.9305
            RECHARGE =           0.0000              RECHARGE =           0.0000
      STREAM LEAKAGE =    72896542.9183        STREAM LEAKAGE =       42853.0996

           TOTAL OUT =   100787839.6916             TOTAL OUT =       68930.3738

            IN - OUT =          -1.8782              IN - OUT =       9.7062E-04

 PERCENT DISCREPANCY =          -0.00     PERCENT DISCREPANCY =           0.00






         TIME SUMMARY AT END OF TIME STEP    1 IN STRESS PERIOD   12
                    SECONDS     MINUTES      HOURS       DAYS        YEARS
                    -----------------------------------------------------------
   TIME STEP LENGTH 7.86240E+06 1.31040E+05  2184.0      91.000     0.24914    
 STRESS PERIOD TIME 7.86240E+06 1.31040E+05  2184.0      91.000     0.24914    
         TOTAL TIME 9.46080E+07 1.57680E+06  26280.      1095.0      2.9979    
1

 Run end date and time (yyyy/mm/dd hh:mm:ss): 2019/02/11 13:00:44
 Elapsed run time:  0.073 Seconds

