                                  MODFLOW-2005     
      U.S. GEOLOGICAL SURVEY MODULAR FINITE-DIFFERENCE GROUND-WATER FLOW MODEL
                            VERSION 1.11.00 8/8/2013

 LIST FILE: supply2.lst
                         UNIT   10

 OPENING ..\data\supply.dis
 FILE TYPE:DIS   UNIT   11   STATUS:OLD    
 FORMAT:FORMATTED              ACCESS:SEQUENTIAL          

 OPENING ..\data\supply.ba6
 FILE TYPE:BAS6   UNIT   12   STATUS:OLD    
 FORMAT:FORMATTED              ACCESS:SEQUENTIAL          

 OPENING ..\data\supply_het.bc6
 FILE TYPE:BCF6   UNIT   13   STATUS:OLD    
 FORMAT:FORMATTED              ACCESS:SEQUENTIAL          

 OPENING ..\data\supply.rch
 FILE TYPE:RCH   UNIT   15   STATUS:OLD    
 FORMAT:FORMATTED              ACCESS:SEQUENTIAL          

 OPENING ..\data\supply2.sfr
 FILE TYPE:SFR   UNIT   16   STATUS:OLD    
 FORMAT:FORMATTED              ACCESS:SEQUENTIAL          

 OPENING ..\data\supply.oc
 FILE TYPE:OC   UNIT   17   STATUS:OLD    
 FORMAT:FORMATTED              ACCESS:SEQUENTIAL          

 OPENING ..\data\supply.pcg
 FILE TYPE:PCG   UNIT   18   STATUS:OLD    
 FORMAT:FORMATTED              ACCESS:SEQUENTIAL          

 OPENING supply2.wel
 FILE TYPE:WEL   UNIT   19   STATUS:OLD    
 FORMAT:FORMATTED              ACCESS:SEQUENTIAL          

 OPENING supply2sf.cbc
 FILE TYPE:DATA(BINARY)   UNIT   50   STATUS:UNKNOWN
 FORMAT:BINARY                 ACCESS:SEQUENTIAL          

 OPENING supply2hd.bhd
 FILE TYPE:DATA(BINARY)   UNIT   51   STATUS:UNKNOWN
 FORMAT:BINARY                 ACCESS:SEQUENTIAL          

 BAS -- BASIC PACKAGE, VERSION 7, 5/2/2005 INPUT READ FROM UNIT   12
 
 MODFLOW was compiled using uniform precision
 Precision of REAL and DOUBLE PRECISION variables:          15

 DISCRETIZATION INPUT DATA READ FROM UNIT   11
    1 LAYERS        25 ROWS        30 COLUMNS
   12 STRESS PERIOD(S) IN SIMULATION
 MODEL TIME UNIT IS DAYS
 MODEL LENGTH UNIT IS UNDEFINED
  Confining bed flag for each layer:
   0

                     DELR =   200.000    

                     DELC =   200.000    

 TOP ELEVATION OF LAYER 1 =  100.0000    

   MODEL LAYER BOTTOM EL. =   0.00000     FOR LAYER   1


 STRESS PERIOD     LENGTH       TIME STEPS     MULTIPLIER FOR DELT    SS FLAG
 ----------------------------------------------------------------------------
        1         92.00000          1                    1.500         TR
        2         91.00000          1                    1.500         TR
        3         91.00000          1                    1.500         TR
        4         91.00000          1                    1.500         TR
        5         92.00000          1                    1.500         TR
        6         91.00000          1                    1.500         TR
        7         91.00000          1                    1.500         TR
        8         91.00000          1                    1.500         TR
        9         92.00000          1                    1.500         TR
       10         91.00000          1                    1.500         TR
       11         91.00000          1                    1.500         TR
       12         91.00000          1                    1.500         TR

 TRANSIENT SIMULATION



 
 #MODOFC transient water supply sample problem                                   
 #                                                                               
 THE FREE FORMAT OPTION HAS BEEN SELECTED



                     BOUNDARY ARRAY FOR LAYER   1
 READING ON UNIT   12 WITH FORMAT: (20I4)              

 AQUIFER HEAD WILL BE SET TO   0.0000     AT ALL NO-FLOW NODES (IBOUND=0).



                       INITIAL HEAD FOR LAYER   1
 READING ON UNIT   12 WITH FORMAT: (10F13.0)           

 OUTPUT CONTROL IS SPECIFIED ONLY AT TIME STEPS FOR WHICH OUTPUT IS DESIRED
 COMPACT CELL-BY-CELL BUDGET FILES WILL BE WRITTEN
 HEAD PRINT FORMAT CODE IS  18    DRAWDOWN PRINT FORMAT CODE IS   0
 HEADS WILL BE SAVED ON UNIT   51    DRAWDOWNS WILL BE SAVED ON UNIT    0

 BCF -- BLOCK-CENTERED FLOW PACKAGE, VERSION 7, 5/2/2005
         INPUT READ FROM UNIT 13
 TRANSIENT SIMULATION
 HEAD AT CELLS THAT CONVERT TO DRY=   0.0000    
 WETTING CAPABILITY IS NOT ACTIVE
      LAYER  LAYER-TYPE CODE     INTERBLOCK T
      --------------------------------------------
         1            0          0 -- HARMONIC    

 COLUMN TO ROW ANISOTROPY =  1.000000    

     PRIMARY STORAGE COEF =  5.000000E-02 FOR LAYER   1



               TRANSMIS. ALONG ROWS FOR LAYER   1
 READING ON UNIT   13 WITH FORMAT: (FREE)              

 WEL -- WELL PACKAGE, VERSION 7, 5/2/2005 INPUT READ FROM UNIT   19
 # Well package input file written by MMProc
 No named parameters
 MAXIMUM OF      4 ACTIVE WELLS AT ONE TIME


     0 Well parameters

 RCH -- RECHARGE PACKAGE, VERSION 7, 5/2/2005 INPUT READ FROM UNIT   15
 No named parameters
 OPTION 1 -- RECHARGE TO TOP LAYER


     0 Recharge parameters

 SFR7 -- STREAMFLOW ROUTING PACKAGE, VERSION 1.0.7, 2013-01-15
         INPUT READ FROM UNIT  16
 #  Supply2 test problem for GWM-VI
 #  The eighth entry in the first data line is ISTCB2 -
 #    Setting this to a negative number indicates that
 #    streamflows out of the reach will be saved to a
 #    binary file.  The absolute value of ISTCB2 is the
 #    unit to which unformatted flows will be written.
 #
 No named parameters
 Segment information will not be 
 read by reach
 No named parameters
 No specifed inflow files


 NUMBER OF STREAM REACHES IS   40

 NUMBER OF STREAM SEGMENTS IS    3

 NUMBER OF STREAM PARAMETERS IS    0

 NUMBER OF STREAM SEGMENTS DEFINED USING PARAMETERS IS              0

 MAXIMUM ERROR FOR STREAM LEAKAGE RATES IS  1.00E-04

 CONSTANT FOR MANNINGS EQUATION IS  1.2839E+05





   STREAM NETWORK DESCRIPTION: 

   LAYER    ROW    COL   SEGMENT   REACH     LENGTH
                          NUMBER   NUMBER    IN CELL        
   --------------------------------------------------
      1     13      1       1        1    2.0000E+02
      1     13      2       1        2    2.0000E+02
      1     14      3       1        3    2.0000E+02
      1     15      4       1        4    2.0000E+02
      1     16      5       1        5    2.0000E+02
      1     16      6       1        6    2.0000E+02
      1     16      7       1        7    2.0000E+02
      1     16      8       1        8    2.0000E+02
      1     16      9       1        9    2.0000E+02
      1     16     10       1       10    2.0000E+02
      1     16     11       1       11    2.0000E+02
      1     16     12       1       12    2.0000E+02
      1     15     13       1       13    2.0000E+02
      1     14     14       1       14    2.0000E+02
      1     13     15       1       15    2.0000E+02
      1     12     16       1       16    2.0000E+02
      1     12     17       1       17    2.0000E+02
      1     12     18       1       18    2.0000E+02
      1     12     19       1       19    2.0000E+02
      1     13     20       1       20    2.0000E+02
      1     14     21       1       21    2.0000E+02
      1     14     22       1       22    2.0000E+02
      1      9     30       2        1    2.0000E+02
      1      9     29       2        2    2.0000E+02
      1      9     28       2        3    2.0000E+02
      1      9     27       2        4    2.0000E+02
      1     10     26       2        5    2.0000E+02
      1     11     25       2        6    2.0000E+02
      1     12     24       2        7    2.0000E+02
      1     13     23       2        8    2.0000E+02
      1     14     22       2        9    2.0000E+02
      1     14     22       3        1    2.0000E+02
      1     15     23       3        2    2.0000E+02
      1     15     24       3        3    2.0000E+02
      1     15     25       3        4    2.0000E+02
      1     15     26       3        5    2.0000E+02
      1     16     27       3        6    2.0000E+02
      1     17     28       3        7    2.0000E+02
      1     18     29       3        8    2.0000E+02
      1     18     30       3        9    2.0000E+02




 PCG -- CONJUGATE-GRADIENT SOLUTION PACKAGE, VERSION 7, 5/2/2005
 MAXIMUM OF    500 CALLS OF SOLUTION ROUTINE
 MAXIMUM OF      5 INTERNAL ITERATIONS PER CALL TO SOLUTION ROUTINE
 MATRIX PRECONDITIONING TYPE :    1



                                    SOLUTION BY THE CONJUGATE-GRADIENT METHOD
                                   -------------------------------------------
                    MAXIMUM NUMBER OF CALLS TO PCG ROUTINE =      500
                        MAXIMUM ITERATIONS PER CALL TO PCG =        5
                               MATRIX PRECONDITIONING TYPE =        1
        RELAXATION FACTOR (ONLY USED WITH PRECOND. TYPE 1) =    0.10000E+01
 PARAMETER OF POLYNOMIAL PRECOND. = 2 (2) OR IS CALCULATED :        0
                         HEAD CHANGE CRITERION FOR CLOSURE =    0.10000E-05
                     RESIDUAL CHANGE CRITERION FOR CLOSURE =    0.10000E+01
            PCG HEAD AND RESIDUAL CHANGE PRINTOUT INTERVAL =        1
     PRINTING FROM SOLVER IS LIMITED(1) OR SUPPRESSED (>1) =        1
                            STEADY-STATE DAMPING PARAMETER =    0.10000E+01
                               TRANSIENT DAMPING PARAMETER =    0.10000E+01
1
                            STRESS PERIOD NO.    1, LENGTH =   92.00000    
                            -----------------------------------------------

                              NUMBER OF TIME STEPS =     1

                               MULTIPLIER FOR DELT =     1.500

                            INITIAL TIME STEP SIZE =   92.00000    

 WELL NO.  LAYER   ROW   COL   STRESS RATE         
 --------------------------------------------------
      1      1     19     11     -0.1013E+05
      2      1     15     28      -7561.    
      3      1     15      7      -2227.    
      4      1     12     26      -9522.    

      4 WELLS

                 RECHARGE =  5.000000E-04



 CLASSIFICATION & COUNT OF STREAM SEGMENTS BASED ON SOURCE OF INFLOW:

                HEADWATER     DIVERSION     RECEIVES TRIBUTARY FLOW
                ---------     ---------     -----------------------
                     2              0               1



                    INPUT DATA FOR EACH STREAM SEGMENT
 ---------------------------------------------------------------------------------------------

 SEGMENT    SEG.     INFLOW   OVERLAND   STREAM    STREAM   ICALC  OUTFLOW  DIVERSION PRIORITY
    NO.    LENGTH     RATE     RUNOFF      ET       PPT.    METH.  TO SEG.  FROM SEG.    NO.

      1  4.400E+03 1.000E+05 0.000E+00 0.000E+00 0.000E+00    1        3        0        0
      2  1.800E+03 5.000E+04 0.000E+00 0.000E+00 0.000E+00    1        3        0        0
      3  1.800E+03 0.000E+00 0.000E+00 0.000E+00 0.000E+00    1        0        0        0


         STREAMBED PROPERTIES AND STREAM DIMENSIONS

 SEGMENT     BED HYD. COND.      BED THICKNESS     ELEV.-TOP OF BED     WIDTH OF STREAM     DEPTH OF STREAM    STREAM ROUGHNESS
    No.     UPPER     LOWER     UPPER     LOWER     UPPER     LOWER     UPPER     LOWER     UPPER     LOWER   CHANNEL      BANK

     1  5.000E+00 5.000E+00 1.000E+00 1.000E+00 4.850E+01 3.800E+01 2.000E+01 2.000E+01                     5.000E-02
     2  5.000E+00 5.000E+00 1.000E+00 1.000E+00 4.025E+01 3.800E+01 2.000E+01 2.000E+01                     5.000E-02
     3  5.000E+00 5.000E+00 1.000E+00 1.000E+00 3.800E+01 3.000E+01 2.000E+01 2.000E+01                     5.000E-02



 
 SOLVING FOR HEAD 


     9 CALLS TO PCG ROUTINE FOR TIME STEP   1 IN STRESS PERIOD    1
    36 TOTAL ITERATIONS

 OUTPUT CONTROL FOR STRESS PERIOD    1   TIME STEP    1
    SAVE BUDGET
    SAVE HEAD FOR ALL LAYERS
    PRINT HEAD FOR ALL LAYERS
 UBDSV2 SAVING "STREAMFLOW OUT  " ON UNIT  50 AT TIME STEP  1, STRESS PERIOD   1



 STREAM LISTING     PERIOD      1   STEP        1

 LAYER ROW COL. STREAM  RCH.  FLOW INTO     FLOW TO   FLOW OUT OF   OVRLND.     DIRECT     STREAM       STREAM     STREAM     STREAM   STREAMBED  STREAMBED
                SEG.NO.  NO.  STRM. RCH.    AQUIFER    STRM. RCH.    RUNOFF     PRECIP       ET          HEAD       DEPTH      WIDTH   CONDCTNC.   GRADIENT

   1   13    1     1     1    1.0000E+05 -6.0995E+03   1.0610E+05  0.000E+00  0.000E+00  0.000E+00  4.84086E+01  1.473E-01  2.000E+01  2.000E+04 -3.050E-01
   1   13    2     1     2    1.0610E+05 -7.5663E+03   1.1367E+05  0.000E+00  0.000E+00  0.000E+00  4.79372E+01  1.531E-01  2.000E+01  2.000E+04 -3.783E-01
   1   14    3     1     3    1.1367E+05 -2.1803E+03   1.1585E+05  0.000E+00  0.000E+00  0.000E+00  4.74639E+01  1.571E-01  2.000E+01  2.000E+04 -1.090E-01
   1   15    4     1     4    1.1585E+05 -2.2175E+03   1.1806E+05  0.000E+00  0.000E+00  0.000E+00  4.69884E+01  1.589E-01  2.000E+01  2.000E+04 -1.109E-01
   1   16    5     1     5    1.1806E+05 -6.9342E+03   1.2500E+05  0.000E+00  0.000E+00  0.000E+00  4.65149E+01  1.626E-01  2.000E+01  2.000E+04 -3.467E-01
   1   16    6     1     6    1.2500E+05 -3.9036E+03   1.2890E+05  0.000E+00  0.000E+00  0.000E+00  4.60419E+01  1.669E-01  2.000E+01  2.000E+04 -1.952E-01
   1   16    7     1     7    1.2890E+05 -3.0253E+03   1.3193E+05  0.000E+00  0.000E+00  0.000E+00  4.55674E+01  1.696E-01  2.000E+01  2.000E+04 -1.513E-01
   1   16    8     1     8    1.3193E+05 -3.5027E+03   1.3543E+05  0.000E+00  0.000E+00  0.000E+00  4.50926E+01  1.722E-01  2.000E+01  2.000E+04 -1.751E-01
   1   16    9     1     9    1.3543E+05 -3.4795E+03   1.3891E+05  0.000E+00  0.000E+00  0.000E+00  4.46180E+01  1.749E-01  2.000E+01  2.000E+04 -1.740E-01
   1   16   10     1    10    1.3891E+05 -3.2965E+03   1.4221E+05  0.000E+00  0.000E+00  0.000E+00  4.41433E+01  1.774E-01  2.000E+01  2.000E+04 -1.648E-01
   1   16   11     1    11    1.4221E+05 -3.1693E+03   1.4537E+05  0.000E+00  0.000E+00  0.000E+00  4.36685E+01  1.799E-01  2.000E+01  2.000E+04 -1.585E-01
   1   16   12     1    12    1.4537E+05 -5.9890E+03   1.5136E+05  0.000E+00  0.000E+00  0.000E+00  4.31947E+01  1.833E-01  2.000E+01  2.000E+04 -2.994E-01
   1   15   13     1    13    1.5136E+05 -6.9960E+03   1.5836E+05  0.000E+00  0.000E+00  0.000E+00  4.27221E+01  1.881E-01  2.000E+01  2.000E+04 -3.498E-01
   1   14   14     1    14    1.5836E+05 -7.6980E+03   1.6606E+05  0.000E+00  0.000E+00  0.000E+00  4.22502E+01  1.934E-01  2.000E+01  2.000E+04 -3.849E-01
   1   13   15     1    15    1.6606E+05 -8.1402E+03   1.7420E+05  0.000E+00  0.000E+00  0.000E+00  4.17785E+01  1.990E-01  2.000E+01  2.000E+04 -4.070E-01
   1   12   16     1    16    1.7420E+05 -8.8720E+03   1.8307E+05  0.000E+00  0.000E+00  0.000E+00  4.13072E+01  2.049E-01  2.000E+01  2.000E+04 -4.436E-01
   1   12   17     1    17    1.8307E+05 -6.3049E+03   1.8937E+05  0.000E+00  0.000E+00  0.000E+00  4.08351E+01  2.101E-01  2.000E+01  2.000E+04 -3.152E-01
   1   12   18     1    18    1.8937E+05 -6.1551E+03   1.9553E+05  0.000E+00  0.000E+00  0.000E+00  4.03620E+01  2.142E-01  2.000E+01  2.000E+04 -3.078E-01
   1   12   19     1    19    1.9553E+05 -7.7623E+03   2.0329E+05  0.000E+00  0.000E+00  0.000E+00  3.98893E+01  2.189E-01  2.000E+01  2.000E+04 -3.881E-01
   1   13   20     1    20    2.0329E+05 -6.8355E+03   2.1013E+05  0.000E+00  0.000E+00  0.000E+00  3.94168E+01  2.236E-01  2.000E+01  2.000E+04 -3.418E-01
   1   14   21     1    21    2.1013E+05 -6.3917E+03   2.1652E+05  0.000E+00  0.000E+00  0.000E+00  3.89438E+01  2.279E-01  2.000E+01  2.000E+04 -3.196E-01
   1   14   22     1    22    2.1652E+05  3.7061E+03   2.1281E+05  0.000E+00  0.000E+00  0.000E+00  3.84674E+01  2.288E-01  2.000E+01  2.000E+04  1.853E-01
   1    9   30     2     1    5.0000E+04 -4.3317E+03   5.4332E+04  0.000E+00  0.000E+00  0.000E+00  4.02439E+01  1.189E-01  2.000E+01  2.000E+04 -2.166E-01
   1    9   29     2     2    5.4332E+04 -4.5982E+03   5.8930E+04  0.000E+00  0.000E+00  0.000E+00  3.99999E+01  1.249E-01  2.000E+01  2.000E+04 -2.299E-01
   1    9   28     2     3    5.8930E+04 -4.8503E+03   6.3780E+04  0.000E+00  0.000E+00  0.000E+00  3.97560E+01  1.310E-01  2.000E+01  2.000E+04 -2.425E-01
   1    9   27     2     4    6.3780E+04 -7.7529E+03   7.1533E+04  0.000E+00  0.000E+00  0.000E+00  3.95139E+01  1.389E-01  2.000E+01  2.000E+04 -3.876E-01
   1   10   26     2     5    7.1533E+04 -5.2731E+03   7.6806E+04  0.000E+00  0.000E+00  0.000E+00  3.92718E+01  1.468E-01  2.000E+01  2.000E+04 -2.637E-01
   1   11   25     2     6    7.6806E+04 -3.7186E+03   8.0525E+04  0.000E+00  0.000E+00  0.000E+00  3.90271E+01  1.521E-01  2.000E+01  2.000E+04 -1.859E-01
   1   12   24     2     7    8.0525E+04 -4.6824E+03   8.5207E+04  0.000E+00  0.000E+00  0.000E+00  3.87819E+01  1.569E-01  2.000E+01  2.000E+04 -2.341E-01
   1   13   23     2     8    8.5207E+04 -1.6202E+03   8.6827E+04  0.000E+00  0.000E+00  0.000E+00  3.85354E+01  1.604E-01  2.000E+01  2.000E+04 -8.101E-02
   1   14   22     2     9    8.6827E+04  8.4237E+01   8.6743E+04  0.000E+00  0.000E+00  0.000E+00  3.82863E+01  1.613E-01  2.000E+01  2.000E+04  4.212E-03
   1   14   22     3     1    2.9956E+05 -9.8483E+03   3.0940E+05  0.000E+00  0.000E+00  0.000E+00  3.77897E+01  2.341E-01  2.000E+01  2.000E+04 -4.924E-01
   1   15   23     3     2    3.0940E+05 -1.9768E+03   3.1138E+05  0.000E+00  0.000E+00  0.000E+00  3.69035E+01  2.368E-01  2.000E+01  2.000E+04 -9.884E-02
   1   15   24     3     3    3.1138E+05 -1.5074E+03   3.1289E+05  0.000E+00  0.000E+00  0.000E+00  3.60154E+01  2.376E-01  2.000E+01  2.000E+04 -7.537E-02
   1   15   25     3     4    3.1289E+05 -1.5176E+03   3.1441E+05  0.000E+00  0.000E+00  0.000E+00  3.51272E+01  2.383E-01  2.000E+01  2.000E+04 -7.588E-02
   1   15   26     3     5    3.1441E+05 -1.5465E+03   3.1595E+05  0.000E+00  0.000E+00  0.000E+00  3.42390E+01  2.390E-01  2.000E+01  2.000E+04 -7.733E-02
   1   16   27     3     6    3.1595E+05 -1.5683E+03   3.1752E+05  0.000E+00  0.000E+00  0.000E+00  3.33508E+01  2.397E-01  2.000E+01  2.000E+04 -7.841E-02
   1   17   28     3     7    3.1752E+05 -4.0054E+03   3.2153E+05  0.000E+00  0.000E+00  0.000E+00  3.24632E+01  2.410E-01  2.000E+01  2.000E+04 -2.003E-01
   1   18   29     3     8    3.2153E+05 -7.3587E+03   3.2889E+05  0.000E+00  0.000E+00  0.000E+00  3.15769E+01  2.436E-01  2.000E+01  2.000E+04 -3.679E-01
   1   18   30     3     9    3.2889E+05 -6.4844E+03   3.3537E+05  0.000E+00  0.000E+00  0.000E+00  3.06911E+01  2.467E-01  2.000E+01  2.000E+04 -3.242E-01



1
              HEAD IN LAYER   1 AT END OF TIME STEP   1 IN STRESS PERIOD    1
  ---------------------------------------------------------------------------

          1      2      3      4      5      6      7      8      9     10
         11     12     13     14     15     16     17     18     19     20
         21     22     23     24     25     26     27     28     29     30
 .........................................................................
   1  ****** ****** ****** ****** ****** ****** ****** ****** ****** ******
      ****** ****** ****** ****** ****** ****** ****** ****** ****** ******
      ****** ****** ****** ****** ****** ****** ****** ****** ****** ******
   2  ****** ****** ****** ****** ****** ****** ****** ****** ****** ******
      ****** ****** ****** ****** ****** ****** ****** ****** ****** ******
      ****** ****** ****** ****** ****** ****** ****** ****** ****** ******
   3  ****** ****** ****** ****** ****** ****** ****** ****** ****** ******
      ****** ****** ****** ****** ****** ****** ****** ****** ****** ******
      ****** ****** ****** ****** ****** ****** ****** ****** ****** ******
   4  ****** ****** ****** ****** ****** ****** ****** ****** ****** ******
      ****** ****** ****** ****** ****** ****** ****** ****** ****** ******
      ****** ****** ****** ****** ****** ****** ****** ****** ****** ******
   5  ****** ****** ****** ****** ****** ****** ****** ****** ****** ******
      ****** ****** ****** ****** ****** ****** ****** ****** ****** ******
      ****** ****** ****** ****** ****** ****** ****** ****** ****** ******
   6  ****** ****** ****** ****** ****** ****** ****** ****** ****** ******
      ****** ****** ****** ****** ****** ****** ****** ****** ****** ******
      ****** ****** ****** ****** ****** ****** ****** ****** ****** ******
   7  ****** ****** ****** ****** ****** ****** ****** ****** ****** ******
      ****** ****** ****** ****** ****** ****** ****** ****** ****** ******
      ****** ****** ****** ****** ****** ****** ****** ****** ****** ******
   8  ****** ****** ****** ****** ****** ****** ****** ****** ****** ******
      ****** ****** ****** ****** ****** ****** ****** ****** ****** ******
      ****** ****** ****** ****** ****** ****** ****** ****** ****** ******
   9  ****** ****** ****** ****** ****** ****** ****** ****** ****** ******
      ****** ****** ****** ****** ****** ****** ****** ****** ****** ******
      ****** ****** ****** ****** ****** ****** ****** ****** ****** ******
  10  ****** ****** ****** ****** ****** ****** ****** ****** ****** ******
      ****** ****** ****** ****** ****** ****** ****** ****** ****** ******
      ****** ****** ****** ****** ****** ****** ****** ****** ****** ******
  11  ****** ****** ****** ****** ****** ****** ****** ****** ****** ******
      ****** ****** ****** ****** ****** ****** ****** ****** ****** ******
      ****** ****** ****** ****** ****** ****** ****** ****** ****** ******
  12  ****** ****** ****** ****** ****** ****** ****** ****** ****** ******
      ****** ****** ****** ****** ****** ****** ****** ****** ****** ******
      ****** ****** ****** ****** ****** ****** ****** ****** ****** ******
  13  ****** ****** ****** ****** ****** ****** ****** ****** ****** ******
      ****** ****** ****** ****** ****** ****** ****** ****** ****** ******
      ****** ****** ****** ****** ****** ****** ****** ****** ****** ******
  14  ****** ****** ****** ****** ****** ****** ****** ****** ****** ******
      ****** ****** ****** ****** ****** ****** ****** ****** ****** ******
      ****** ****** ****** ****** ****** ****** ****** ****** ****** ******
  15  ****** ****** ****** ****** ****** ****** ****** ****** ****** ******
      ****** ****** ****** ****** ****** ****** ****** ****** ****** ******
      ****** ****** ****** ****** ****** ****** ****** ****** ****** ******
  16  ****** ****** ****** ****** ****** ****** ****** ****** ****** ******
      ****** ****** ****** ****** ****** ****** ****** ****** ****** ******
      ****** ****** ****** ****** ****** ****** ****** ****** ****** ******
  17  ****** ****** ****** ****** ****** ****** ****** ****** ****** ******
      ****** ****** ****** ****** ****** ****** ****** ****** ****** ******
      ****** ****** ****** ****** ****** ****** ****** ****** ****** ******
  18  ****** ****** ****** ****** ****** ****** ****** ****** ****** ******
      ****** ****** ****** ****** ****** ****** ****** ****** ****** ******
      ****** ****** ****** ****** ****** ****** ****** ****** ****** ******
  19  ****** ****** ****** ****** ****** ****** ****** ****** ****** ******
      ****** ****** ****** ****** ****** ****** ****** ****** ****** ******
      ****** ****** ****** ****** ****** ****** ****** ****** ****** ******
  20  ****** ****** ****** ****** ****** ****** ****** ****** ****** ******
      ****** ****** ****** ****** ****** ****** ****** ****** ****** ******
      ****** ****** ****** ****** ****** ****** ****** ****** ****** ******
  21  ****** ****** ****** ****** ****** ****** ****** ****** ****** ******
      ****** ****** ****** ****** ****** ****** ****** ****** ****** ******
      ****** ****** ****** ****** ****** ****** ****** ****** ****** ******
  22  ****** ****** ****** ****** ****** ****** ****** ****** ****** ******
      ****** ****** ****** ****** ****** ****** ****** ****** ****** ******
      ****** ****** ****** ****** ****** ****** ****** ****** ****** ******
  23  ****** ****** ****** ****** ****** ****** ****** ****** ****** ******
      ****** ****** ****** ****** ****** ****** ****** ****** ****** ******
      ****** ****** ****** ****** ****** ****** ****** ****** ****** ******
  24  ****** ****** ****** ****** ****** ****** ****** ****** ****** ******
      ****** ****** ****** ****** ****** ****** ****** ****** ****** ******
      ****** ****** ****** ****** ****** ****** ****** ****** ****** ******
  25  ****** ****** ****** ****** ****** ****** ****** ****** ****** ******
      ****** ****** ****** ****** ****** ****** ****** ****** ****** ******
      ****** ****** ****** ****** ****** ****** ****** ****** ****** ******

 HEAD WILL BE SAVED ON UNIT   51 AT END OF TIME STEP    1, STRESS PERIOD    1
1
  VOLUMETRIC BUDGET FOR ENTIRE MODEL AT END OF TIME STEP    1, STRESS PERIOD   1
  ------------------------------------------------------------------------------

     CUMULATIVE VOLUMES      L**3       RATES FOR THIS TIME STEP      L**3/T
     ------------------                 ------------------------

           IN:                                      IN:
           ---                                      ---
             STORAGE =    17373415.5596               STORAGE =      188841.4735
       CONSTANT HEAD =     1119636.8132         CONSTANT HEAD =       12169.9654
               WELLS =           0.0000                 WELLS =           0.0000
            RECHARGE =     1269600.0000              RECHARGE =       13800.0000
      STREAM LEAKAGE =      348715.1767        STREAM LEAKAGE =        3790.3824

            TOTAL IN =    20111367.5495              TOTAL IN =      218601.8212

          OUT:                                     OUT:
          ----                                     ----
             STORAGE =           0.0000               STORAGE =           0.0000
       CONSTANT HEAD =           0.0000         CONSTANT HEAD =           0.0000
               WELLS =     2708641.6825                 WELLS =       29441.7574
            RECHARGE =           0.0000              RECHARGE =           0.0000
      STREAM LEAKAGE =    17402726.1605        STREAM LEAKAGE =      189160.0670

           TOTAL OUT =    20111367.8429             TOTAL OUT =      218601.8244

            IN - OUT =          -0.2934              IN - OUT =      -3.1896E-03

 PERCENT DISCREPANCY =          -0.00     PERCENT DISCREPANCY =          -0.00






         TIME SUMMARY AT END OF TIME STEP    1 IN STRESS PERIOD    1
                    SECONDS     MINUTES      HOURS       DAYS        YEARS
                    -----------------------------------------------------------
   TIME STEP LENGTH 7.94880E+06 1.32480E+05  2208.0      92.000     0.25188    
 STRESS PERIOD TIME 7.94880E+06 1.32480E+05  2208.0      92.000     0.25188    
         TOTAL TIME 7.94880E+06 1.32480E+05  2208.0      92.000     0.25188    
1
1
                            STRESS PERIOD NO.    2, LENGTH =   91.00000    
                            -----------------------------------------------

                              NUMBER OF TIME STEPS =     1

                               MULTIPLIER FOR DELT =     1.500

                            INITIAL TIME STEP SIZE =   91.00000    

 WELL NO.  LAYER   ROW   COL   STRESS RATE         
 --------------------------------------------------
      1      1     19     11     -0.1013E+05
      2      1     15     28      -7561.    
      3      1     15      7      -2227.    
      4      1     12     26      -9522.    

      4 WELLS

                 RECHARGE =  2.000000E-03

 REUSING STREAM SEGMENT DATA FROM LAST STRESS PERIOD
 
 SOLVING FOR HEAD 


     7 CALLS TO PCG ROUTINE FOR TIME STEP   1 IN STRESS PERIOD    2
    27 TOTAL ITERATIONS

 OUTPUT CONTROL FOR STRESS PERIOD    2   TIME STEP    1
    SAVE BUDGET
    SAVE HEAD FOR ALL LAYERS
    PRINT HEAD FOR ALL LAYERS
 UBDSV2 SAVING "STREAMFLOW OUT  " ON UNIT  50 AT TIME STEP  1, STRESS PERIOD   2



 STREAM LISTING     PERIOD      2   STEP        1

 LAYER ROW COL. STREAM  RCH.  FLOW INTO     FLOW TO   FLOW OUT OF   OVRLND.     DIRECT     STREAM       STREAM     STREAM     STREAM   STREAMBED  STREAMBED
                SEG.NO.  NO.  STRM. RCH.    AQUIFER    STRM. RCH.    RUNOFF     PRECIP       ET          HEAD       DEPTH      WIDTH   CONDCTNC.   GRADIENT

   1   13    1     1     1    1.0000E+05 -3.9639E+03   1.0396E+05  0.000E+00  0.000E+00  0.000E+00  4.84077E+01  1.464E-01  2.000E+01  2.000E+04 -1.982E-01
   1   13    2     1     2    1.0396E+05 -5.2199E+03   1.0918E+05  0.000E+00  0.000E+00  0.000E+00  4.79344E+01  1.503E-01  2.000E+01  2.000E+04 -2.610E-01
   1   14    3     1     3    1.0918E+05 -1.0802E+03   1.1026E+05  0.000E+00  0.000E+00  0.000E+00  4.74598E+01  1.529E-01  2.000E+01  2.000E+04 -5.401E-02
   1   15    4     1     4    1.1026E+05 -1.0579E+03   1.1132E+05  0.000E+00  0.000E+00  0.000E+00  4.69834E+01  1.538E-01  2.000E+01  2.000E+04 -5.289E-02
   1   16    5     1     5    1.1132E+05 -3.8443E+03   1.1517E+05  0.000E+00  0.000E+00  0.000E+00  4.65081E+01  1.559E-01  2.000E+01  2.000E+04 -1.922E-01
   1   16    6     1     6    1.1517E+05 -1.9565E+03   1.1712E+05  0.000E+00  0.000E+00  0.000E+00  4.60332E+01  1.582E-01  2.000E+01  2.000E+04 -9.783E-02
   1   16    7     1     7    1.1712E+05 -1.0791E+03   1.1820E+05  0.000E+00  0.000E+00  0.000E+00  4.55572E+01  1.595E-01  2.000E+01  2.000E+04 -5.395E-02
   1   16    8     1     8    1.1820E+05 -1.6017E+03   1.1980E+05  0.000E+00  0.000E+00  0.000E+00  4.50810E+01  1.606E-01  2.000E+01  2.000E+04 -8.009E-02
   1   16    9     1     9    1.1980E+05 -1.5767E+03   1.2138E+05  0.000E+00  0.000E+00  0.000E+00  4.46050E+01  1.619E-01  2.000E+01  2.000E+04 -7.884E-02
   1   16   10     1    10    1.2138E+05 -1.3633E+03   1.2274E+05  0.000E+00  0.000E+00  0.000E+00  4.41289E+01  1.630E-01  2.000E+01  2.000E+04 -6.817E-02
   1   16   11     1    11    1.2274E+05 -1.1973E+03   1.2394E+05  0.000E+00  0.000E+00  0.000E+00  4.36527E+01  1.641E-01  2.000E+01  2.000E+04 -5.986E-02
   1   16   12     1    12    1.2394E+05 -2.8498E+03   1.2679E+05  0.000E+00  0.000E+00  0.000E+00  4.31770E+01  1.657E-01  2.000E+01  2.000E+04 -1.425E-01
   1   15   13     1    13    1.2679E+05 -3.6669E+03   1.3046E+05  0.000E+00  0.000E+00  0.000E+00  4.27023E+01  1.682E-01  2.000E+01  2.000E+04 -1.833E-01
   1   14   14     1    14    1.3046E+05 -4.3246E+03   1.3478E+05  0.000E+00  0.000E+00  0.000E+00  4.22282E+01  1.714E-01  2.000E+01  2.000E+04 -2.162E-01
   1   13   15     1    15    1.3478E+05 -4.8231E+03   1.3961E+05  0.000E+00  0.000E+00  0.000E+00  4.17544E+01  1.749E-01  2.000E+01  2.000E+04 -2.412E-01
   1   12   16     1    16    1.3961E+05 -5.8042E+03   1.4541E+05  0.000E+00  0.000E+00  0.000E+00  4.12812E+01  1.789E-01  2.000E+01  2.000E+04 -2.902E-01
   1   12   17     1    17    1.4541E+05 -3.8567E+03   1.4927E+05  0.000E+00  0.000E+00  0.000E+00  4.08075E+01  1.825E-01  2.000E+01  2.000E+04 -1.928E-01
   1   12   18     1    18    1.4927E+05 -3.7037E+03   1.5297E+05  0.000E+00  0.000E+00  0.000E+00  4.03330E+01  1.853E-01  2.000E+01  2.000E+04 -1.852E-01
   1   12   19     1    19    1.5297E+05 -4.7209E+03   1.5769E+05  0.000E+00  0.000E+00  0.000E+00  3.98589E+01  1.884E-01  2.000E+01  2.000E+04 -2.360E-01
   1   13   20     1    20    1.5769E+05 -3.7612E+03   1.6145E+05  0.000E+00  0.000E+00  0.000E+00  3.93847E+01  1.915E-01  2.000E+01  2.000E+04 -1.881E-01
   1   14   21     1    21    1.6145E+05 -3.6695E+03   1.6512E+05  0.000E+00  0.000E+00  0.000E+00  3.89100E+01  1.941E-01  2.000E+01  2.000E+04 -1.835E-01
   1   14   22     1    22    1.6512E+05  4.4699E+03   1.6065E+05  0.000E+00  0.000E+00  0.000E+00  3.84325E+01  1.938E-01  2.000E+01  2.000E+04  2.235E-01
   1    9   30     2     1    5.0000E+04 -1.4593E+03   5.1459E+04  0.000E+00  0.000E+00  0.000E+00  4.02419E+01  1.169E-01  2.000E+01  2.000E+04 -7.296E-02
   1    9   29     2     2    5.1459E+04 -1.7462E+03   5.3205E+04  0.000E+00  0.000E+00  0.000E+00  3.99941E+01  1.191E-01  2.000E+01  2.000E+04 -8.731E-02
   1    9   28     2     3    5.3205E+04 -2.0359E+03   5.5241E+04  0.000E+00  0.000E+00  0.000E+00  3.97466E+01  1.216E-01  2.000E+01  2.000E+04 -1.018E-01
   1    9   27     2     4    5.5241E+04 -4.2326E+03   5.9474E+04  0.000E+00  0.000E+00  0.000E+00  3.95008E+01  1.258E-01  2.000E+01  2.000E+04 -2.116E-01
   1   10   26     2     5    5.9474E+04 -1.4619E+03   6.0936E+04  0.000E+00  0.000E+00  0.000E+00  3.92545E+01  1.295E-01  2.000E+01  2.000E+04 -7.310E-02
   1   11   25     2     6    6.0936E+04 -3.2152E+01   6.0968E+04  0.000E+00  0.000E+00  0.000E+00  3.90055E+01  1.305E-01  2.000E+01  2.000E+04 -1.608E-03
   1   12   24     2     7    6.0968E+04 -1.4854E+03   6.2454E+04  0.000E+00  0.000E+00  0.000E+00  3.87565E+01  1.315E-01  2.000E+01  2.000E+04 -7.427E-02
   1   13   23     2     8    6.2454E+04 -5.7227E+02   6.3026E+04  0.000E+00  0.000E+00  0.000E+00  3.85078E+01  1.328E-01  2.000E+01  2.000E+04 -2.861E-02
   1   14   22     2     9    6.3026E+04  9.7060E+02   6.2055E+04  0.000E+00  0.000E+00  0.000E+00  3.82575E+01  1.325E-01  2.000E+01  2.000E+04  4.853E-02
   1   14   22     3     1    2.2271E+05 -9.1398E+03   2.3185E+05  0.000E+00  0.000E+00  0.000E+00  3.77520E+01  1.964E-01  2.000E+01  2.000E+04 -4.570E-01
   1   15   23     3     2    2.3185E+05 -1.0310E+03   2.3288E+05  0.000E+00  0.000E+00  0.000E+00  3.68657E+01  1.991E-01  2.000E+01  2.000E+04 -5.155E-02
   1   15   24     3     3    2.3288E+05 -6.2934E+02   2.3351E+05  0.000E+00  0.000E+00  0.000E+00  3.59773E+01  1.995E-01  2.000E+01  2.000E+04 -3.147E-02
   1   15   25     3     4    2.3351E+05 -5.8093E+02   2.3409E+05  0.000E+00  0.000E+00  0.000E+00  3.50887E+01  1.998E-01  2.000E+01  2.000E+04 -2.905E-02
   1   15   26     3     5    2.3409E+05 -3.3792E+02   2.3443E+05  0.000E+00  0.000E+00  0.000E+00  3.42000E+01  2.000E-01  2.000E+01  2.000E+04 -1.690E-02
   1   16   27     3     6    2.3443E+05 -1.9426E+02   2.3462E+05  0.000E+00  0.000E+00  0.000E+00  3.33113E+01  2.002E-01  2.000E+01  2.000E+04 -9.713E-03
   1   17   28     3     7    2.3462E+05 -2.5258E+02   2.3487E+05  0.000E+00  0.000E+00  0.000E+00  3.24225E+01  2.003E-01  2.000E+01  2.000E+04 -1.263E-02
   1   18   29     3     8    2.3487E+05 -4.2659E+03   2.3914E+05  0.000E+00  0.000E+00  0.000E+00  3.15348E+01  2.014E-01  2.000E+01  2.000E+04 -2.133E-01
   1   18   30     3     9    2.3914E+05 -3.8152E+03   2.4295E+05  0.000E+00  0.000E+00  0.000E+00  3.06479E+01  2.035E-01  2.000E+01  2.000E+04 -1.908E-01



1
              HEAD IN LAYER   1 AT END OF TIME STEP   1 IN STRESS PERIOD    2
  ---------------------------------------------------------------------------

          1      2      3      4      5      6      7      8      9     10
         11     12     13     14     15     16     17     18     19     20
         21     22     23     24     25     26     27     28     29     30
 .........................................................................
   1  ****** ****** ****** ****** ****** ****** ****** ****** ****** ******
      ****** ****** ****** ****** ****** ****** ****** ****** ****** ******
      ****** ****** ****** ****** ****** ****** ****** ****** ****** ******
   2  ****** ****** ****** ****** ****** ****** ****** ****** ****** ******
      ****** ****** ****** ****** ****** ****** ****** ****** ****** ******
      ****** ****** ****** ****** ****** ****** ****** ****** ****** ******
   3  ****** ****** ****** ****** ****** ****** ****** ****** ****** ******
      ****** ****** ****** ****** ****** ****** ****** ****** ****** ******
      ****** ****** ****** ****** ****** ****** ****** ****** ****** ******
   4  ****** ****** ****** ****** ****** ****** ****** ****** ****** ******
      ****** ****** ****** ****** ****** ****** ****** ****** ****** ******
      ****** ****** ****** ****** ****** ****** ****** ****** ****** ******
   5  ****** ****** ****** ****** ****** ****** ****** ****** ****** ******
      ****** ****** ****** ****** ****** ****** ****** ****** ****** ******
      ****** ****** ****** ****** ****** ****** ****** ****** ****** ******
   6  ****** ****** ****** ****** ****** ****** ****** ****** ****** ******
      ****** ****** ****** ****** ****** ****** ****** ****** ****** ******
      ****** ****** ****** ****** ****** ****** ****** ****** ****** ******
   7  ****** ****** ****** ****** ****** ****** ****** ****** ****** ******
      ****** ****** ****** ****** ****** ****** ****** ****** ****** ******
      ****** ****** ****** ****** ****** ****** ****** ****** ****** ******
   8  ****** ****** ****** ****** ****** ****** ****** ****** ****** ******
      ****** ****** ****** ****** ****** ****** ****** ****** ****** ******
      ****** ****** ****** ****** ****** ****** ****** ****** ****** ******
   9  ****** ****** ****** ****** ****** ****** ****** ****** ****** ******
      ****** ****** ****** ****** ****** ****** ****** ****** ****** ******
      ****** ****** ****** ****** ****** ****** ****** ****** ****** ******
  10  ****** ****** ****** ****** ****** ****** ****** ****** ****** ******
      ****** ****** ****** ****** ****** ****** ****** ****** ****** ******
      ****** ****** ****** ****** ****** ****** ****** ****** ****** ******
  11  ****** ****** ****** ****** ****** ****** ****** ****** ****** ******
      ****** ****** ****** ****** ****** ****** ****** ****** ****** ******
      ****** ****** ****** ****** ****** ****** ****** ****** ****** ******
  12  ****** ****** ****** ****** ****** ****** ****** ****** ****** ******
      ****** ****** ****** ****** ****** ****** ****** ****** ****** ******
      ****** ****** ****** ****** ****** ****** ****** ****** ****** ******
  13  ****** ****** ****** ****** ****** ****** ****** ****** ****** ******
      ****** ****** ****** ****** ****** ****** ****** ****** ****** ******
      ****** ****** ****** ****** ****** ****** ****** ****** ****** ******
  14  ****** ****** ****** ****** ****** ****** ****** ****** ****** ******
      ****** ****** ****** ****** ****** ****** ****** ****** ****** ******
      ****** ****** ****** ****** ****** ****** ****** ****** ****** ******
  15  ****** ****** ****** ****** ****** ****** ****** ****** ****** ******
      ****** ****** ****** ****** ****** ****** ****** ****** ****** ******
      ****** ****** ****** ****** ****** ****** ****** ****** ****** ******
  16  ****** ****** ****** ****** ****** ****** ****** ****** ****** ******
      ****** ****** ****** ****** ****** ****** ****** ****** ****** ******
      ****** ****** ****** ****** ****** ****** ****** ****** ****** ******
  17  ****** ****** ****** ****** ****** ****** ****** ****** ****** ******
      ****** ****** ****** ****** ****** ****** ****** ****** ****** ******
      ****** ****** ****** ****** ****** ****** ****** ****** ****** ******
  18  ****** ****** ****** ****** ****** ****** ****** ****** ****** ******
      ****** ****** ****** ****** ****** ****** ****** ****** ****** ******
      ****** ****** ****** ****** ****** ****** ****** ****** ****** ******
  19  ****** ****** ****** ****** ****** ****** ****** ****** ****** ******
      ****** ****** ****** ****** ****** ****** ****** ****** ****** ******
      ****** ****** ****** ****** ****** ****** ****** ****** ****** ******
  20  ****** ****** ****** ****** ****** ****** ****** ****** ****** ******
      ****** ****** ****** ****** ****** ****** ****** ****** ****** ******
      ****** ****** ****** ****** ****** ****** ****** ****** ****** ******
  21  ****** ****** ****** ****** ****** ****** ****** ****** ****** ******
      ****** ****** ****** ****** ****** ****** ****** ****** ****** ******
      ****** ****** ****** ****** ****** ****** ****** ****** ****** ******
  22  ****** ****** ****** ****** ****** ****** ****** ****** ****** ******
      ****** ****** ****** ****** ****** ****** ****** ****** ****** ******
      ****** ****** ****** ****** ****** ****** ****** ****** ****** ******
  23  ****** ****** ****** ****** ****** ****** ****** ****** ****** ******
      ****** ****** ****** ****** ****** ****** ****** ****** ****** ******
      ****** ****** ****** ****** ****** ****** ****** ****** ****** ******
  24  ****** ****** ****** ****** ****** ****** ****** ****** ****** ******
      ****** ****** ****** ****** ****** ****** ****** ****** ****** ******
      ****** ****** ****** ****** ****** ****** ****** ****** ****** ******
  25  ****** ****** ****** ****** ****** ****** ****** ****** ****** ******
      ****** ****** ****** ****** ****** ****** ****** ****** ****** ******
      ****** ****** ****** ****** ****** ****** ****** ****** ****** ******

 HEAD WILL BE SAVED ON UNIT   51 AT END OF TIME STEP    1, STRESS PERIOD    2
1
  VOLUMETRIC BUDGET FOR ENTIRE MODEL AT END OF TIME STEP    1, STRESS PERIOD   2
  ------------------------------------------------------------------------------

     CUMULATIVE VOLUMES      L**3       RATES FOR THIS TIME STEP      L**3/T
     ------------------                 ------------------------

           IN:                                      IN:
           ---                                      ---
             STORAGE =    22004197.6143               STORAGE =       50887.7149
       CONSTANT HEAD =     2603624.7498         CONSTANT HEAD =       16307.5597
               WELLS =           0.0000                 WELLS =           0.0000
            RECHARGE =     6292800.0000              RECHARGE =       55200.0000
      STREAM LEAKAGE =      843801.8046        STREAM LEAKAGE =        5440.5124

            TOTAL IN =    31744424.1686              TOTAL IN =      127835.7870

          OUT:                                     OUT:
          ----                                     ----
             STORAGE =           0.0000               STORAGE =           0.0000
       CONSTANT HEAD =           0.0000         CONSTANT HEAD =           0.0000
               WELLS =     5387841.6075                 WELLS =       29441.7574
            RECHARGE =           0.0000              RECHARGE =           0.0000
      STREAM LEAKAGE =    26356583.8298        STREAM LEAKAGE =       98394.0403

           TOTAL OUT =    31744425.4373             TOTAL OUT =      127835.7977

            IN - OUT =          -1.2687              IN - OUT =      -1.0717E-02

 PERCENT DISCREPANCY =          -0.00     PERCENT DISCREPANCY =          -0.00






         TIME SUMMARY AT END OF TIME STEP    1 IN STRESS PERIOD    2
                    SECONDS     MINUTES      HOURS       DAYS        YEARS
                    -----------------------------------------------------------
   TIME STEP LENGTH 7.86240E+06 1.31040E+05  2184.0      91.000     0.24914    
 STRESS PERIOD TIME 7.86240E+06 1.31040E+05  2184.0      91.000     0.24914    
         TOTAL TIME 1.58112E+07 2.63520E+05  4392.0      183.00     0.50103    
1
1
                            STRESS PERIOD NO.    3, LENGTH =   91.00000    
                            -----------------------------------------------

                              NUMBER OF TIME STEPS =     1

                               MULTIPLIER FOR DELT =     1.500

                            INITIAL TIME STEP SIZE =   91.00000    

 WELL NO.  LAYER   ROW   COL   STRESS RATE         
 --------------------------------------------------
      1      1     19     11     -0.1013E+05
      2      1     15     28      -7561.    
      3      1     15      7      -2227.    
      4      1     12     26      -9522.    

      4 WELLS

                 RECHARGE =   0.00000    

 REUSING STREAM SEGMENT DATA FROM LAST STRESS PERIOD
 
 SOLVING FOR HEAD 


     7 CALLS TO PCG ROUTINE FOR TIME STEP   1 IN STRESS PERIOD    3
    27 TOTAL ITERATIONS

 OUTPUT CONTROL FOR STRESS PERIOD    3   TIME STEP    1
    SAVE BUDGET
    SAVE HEAD FOR ALL LAYERS
    PRINT HEAD FOR ALL LAYERS
 UBDSV2 SAVING "STREAMFLOW OUT  " ON UNIT  50 AT TIME STEP  1, STRESS PERIOD   3



 STREAM LISTING     PERIOD      3   STEP        1

 LAYER ROW COL. STREAM  RCH.  FLOW INTO     FLOW TO   FLOW OUT OF   OVRLND.     DIRECT     STREAM       STREAM     STREAM     STREAM   STREAMBED  STREAMBED
                SEG.NO.  NO.  STRM. RCH.    AQUIFER    STRM. RCH.    RUNOFF     PRECIP       ET          HEAD       DEPTH      WIDTH   CONDCTNC.   GRADIENT

   1   13    1     1     1    1.0000E+05 -2.7068E+03   1.0271E+05  0.000E+00  0.000E+00  0.000E+00  4.84072E+01  1.458E-01  2.000E+01  2.000E+04 -1.353E-01
   1   13    2     1     2    1.0271E+05 -3.8074E+03   1.0651E+05  0.000E+00  0.000E+00  0.000E+00  4.79327E+01  1.486E-01  2.000E+01  2.000E+04 -1.904E-01
   1   14    3     1     3    1.0651E+05 -6.0891E+02   1.0712E+05  0.000E+00  0.000E+00  0.000E+00  4.74573E+01  1.505E-01  2.000E+01  2.000E+04 -3.045E-02
   1   15    4     1     4    1.0712E+05 -5.3588E+02   1.0766E+05  0.000E+00  0.000E+00  0.000E+00  4.69805E+01  1.510E-01  2.000E+01  2.000E+04 -2.679E-02
   1   16    5     1     5    1.0766E+05 -1.9684E+03   1.0963E+05  0.000E+00  0.000E+00  0.000E+00  4.65043E+01  1.520E-01  2.000E+01  2.000E+04 -9.842E-02
   1   16    6     1     6    1.0963E+05 -8.9558E+02   1.1052E+05  0.000E+00  0.000E+00  0.000E+00  4.60282E+01  1.532E-01  2.000E+01  2.000E+04 -4.478E-02
   1   16    7     1     7    1.1052E+05 -6.9300E+01   1.1059E+05  0.000E+00  0.000E+00  0.000E+00  4.55514E+01  1.536E-01  2.000E+01  2.000E+04 -3.465E-03
   1   16    8     1     8    1.1059E+05 -6.1307E+02   1.1121E+05  0.000E+00  0.000E+00  0.000E+00  4.50744E+01  1.539E-01  2.000E+01  2.000E+04 -3.065E-02
   1   16    9     1     9    1.1121E+05 -5.9606E+02   1.1180E+05  0.000E+00  0.000E+00  0.000E+00  4.45976E+01  1.544E-01  2.000E+01  2.000E+04 -2.980E-02
   1   16   10     1    10    1.1180E+05 -3.8511E+02   1.1219E+05  0.000E+00  0.000E+00  0.000E+00  4.41207E+01  1.548E-01  2.000E+01  2.000E+04 -1.926E-02
   1   16   11     1    11    1.1219E+05 -2.1378E+02   1.1240E+05  0.000E+00  0.000E+00  0.000E+00  4.36437E+01  1.551E-01  2.000E+01  2.000E+04 -1.069E-02
   1   16   12     1    12    1.1240E+05 -1.1602E+03   1.1356E+05  0.000E+00  0.000E+00  0.000E+00  4.31670E+01  1.556E-01  2.000E+01  2.000E+04 -5.801E-02
   1   15   13     1    13    1.1356E+05 -1.9846E+03   1.1554E+05  0.000E+00  0.000E+00  0.000E+00  4.26910E+01  1.569E-01  2.000E+01  2.000E+04 -9.923E-02
   1   14   14     1    14    1.1554E+05 -2.6220E+03   1.1817E+05  0.000E+00  0.000E+00  0.000E+00  4.22156E+01  1.588E-01  2.000E+01  2.000E+04 -1.311E-01
   1   13   15     1    15    1.1817E+05 -3.1379E+03   1.2130E+05  0.000E+00  0.000E+00  0.000E+00  4.17407E+01  1.612E-01  2.000E+01  2.000E+04 -1.569E-01
   1   12   16     1    16    1.2130E+05 -4.0868E+03   1.2539E+05  0.000E+00  0.000E+00  0.000E+00  4.12663E+01  1.641E-01  2.000E+01  2.000E+04 -2.043E-01
   1   12   17     1    17    1.2539E+05 -2.6076E+03   1.2800E+05  0.000E+00  0.000E+00  0.000E+00  4.07917E+01  1.667E-01  2.000E+01  2.000E+04 -1.304E-01
   1   12   18     1    18    1.2800E+05 -2.4728E+03   1.3047E+05  0.000E+00  0.000E+00  0.000E+00  4.03164E+01  1.687E-01  2.000E+01  2.000E+04 -1.236E-01
   1   12   19     1    19    1.3047E+05 -3.1814E+03   1.3365E+05  0.000E+00  0.000E+00  0.000E+00  3.98414E+01  1.709E-01  2.000E+01  2.000E+04 -1.591E-01
   1   13   20     1    20    1.3365E+05 -2.3272E+03   1.3598E+05  0.000E+00  0.000E+00  0.000E+00  3.93662E+01  1.730E-01  2.000E+01  2.000E+04 -1.164E-01
   1   14   21     1    21    1.3598E+05 -2.1960E+03   1.3818E+05  0.000E+00  0.000E+00  0.000E+00  3.88907E+01  1.748E-01  2.000E+01  2.000E+04 -1.098E-01
   1   14   22     1    22    1.3818E+05  4.8263E+03   1.3335E+05  0.000E+00  0.000E+00  0.000E+00  3.84124E+01  1.738E-01  2.000E+01  2.000E+04  2.413E-01
   1    9   30     2     1    5.0000E+04 -2.3156E+02   5.0232E+04  0.000E+00  0.000E+00  0.000E+00  4.02410E+01  1.160E-01  2.000E+01  2.000E+04 -1.158E-02
   1    9   29     2     2    5.0232E+04 -5.2360E+02   5.0755E+04  0.000E+00  0.000E+00  0.000E+00  3.99916E+01  1.166E-01  2.000E+01  2.000E+04 -2.618E-02
   1    9   28     2     3    5.0755E+04 -8.0855E+02   5.1564E+04  0.000E+00  0.000E+00  0.000E+00  3.97425E+01  1.175E-01  2.000E+01  2.000E+04 -4.043E-02
   1    9   27     2     4    5.1564E+04 -2.5022E+03   5.4066E+04  0.000E+00  0.000E+00  0.000E+00  3.94947E+01  1.197E-01  2.000E+01  2.000E+04 -1.251E-01
   1   10   26     2     5    5.4066E+04  1.8279E+02   5.3883E+04  0.000E+00  0.000E+00  0.000E+00  3.92463E+01  1.213E-01  2.000E+01  2.000E+04  9.140E-03
   1   11   25     2     6    5.3883E+04  1.5036E+03   5.2380E+04  0.000E+00  0.000E+00  0.000E+00  3.89952E+01  1.202E-01  2.000E+01  2.000E+04  7.518E-02
   1   12   24     2     7    5.2380E+04 -1.2979E+02   5.2509E+04  0.000E+00  0.000E+00  0.000E+00  3.87442E+01  1.192E-01  2.000E+01  2.000E+04 -6.490E-03
   1   13   23     2     8    5.2509E+04 -2.3646E+02   5.2746E+04  0.000E+00  0.000E+00  0.000E+00  3.84945E+01  1.195E-01  2.000E+01  2.000E+04 -1.182E-02
   1   14   22     2     9    5.2746E+04  1.4511E+03   5.1295E+04  0.000E+00  0.000E+00  0.000E+00  3.82437E+01  1.187E-01  2.000E+01  2.000E+04  7.255E-02
   1   14   22     3     1    1.8465E+05 -8.7931E+03   1.9344E+05  0.000E+00  0.000E+00  0.000E+00  3.77314E+01  1.759E-01  2.000E+01  2.000E+04 -4.397E-01
   1   15   23     3     2    1.9344E+05 -6.3735E+02   1.9408E+05  0.000E+00  0.000E+00  0.000E+00  3.68452E+01  1.785E-01  2.000E+01  2.000E+04 -3.187E-02
   1   15   24     3     3    1.9408E+05 -3.0321E+02   1.9438E+05  0.000E+00  0.000E+00  0.000E+00  3.59565E+01  1.788E-01  2.000E+01  2.000E+04 -1.516E-02
   1   15   25     3     4    1.9438E+05 -2.3363E+02   1.9461E+05  0.000E+00  0.000E+00  0.000E+00  3.50678E+01  1.789E-01  2.000E+01  2.000E+04 -1.168E-02
   1   15   26     3     5    1.9461E+05  9.1117E+01   1.9452E+05  0.000E+00  0.000E+00  0.000E+00  3.41790E+01  1.790E-01  2.000E+01  2.000E+04  4.556E-03
   1   16   27     3     6    1.9452E+05  2.9357E+02   1.9423E+05  0.000E+00  0.000E+00  0.000E+00  3.32900E+01  1.788E-01  2.000E+01  2.000E+04  1.468E-02
   1   17   28     3     7    1.9423E+05  1.2454E+03   1.9298E+05  0.000E+00  0.000E+00  0.000E+00  3.24006E+01  1.784E-01  2.000E+01  2.000E+04  6.227E-02
   1   18   29     3     8    1.9298E+05 -2.7186E+03   1.9570E+05  0.000E+00  0.000E+00  0.000E+00  3.15122E+01  1.788E-01  2.000E+01  2.000E+04 -1.359E-01
   1   18   30     3     9    1.9570E+05 -2.6412E+03   1.9834E+05  0.000E+00  0.000E+00  0.000E+00  3.06247E+01  1.803E-01  2.000E+01  2.000E+04 -1.321E-01



1
              HEAD IN LAYER   1 AT END OF TIME STEP   1 IN STRESS PERIOD    3
  ---------------------------------------------------------------------------

          1      2      3      4      5      6      7      8      9     10
         11     12     13     14     15     16     17     18     19     20
         21     22     23     24     25     26     27     28     29     30
 .........................................................................
   1  ****** ****** ****** ****** ****** ****** ****** ****** ****** ******
      ****** ****** ****** ****** ****** ****** ****** ****** ****** ******
      ****** ****** ****** ****** ****** ****** ****** ****** ****** ******
   2  ****** ****** ****** ****** ****** ****** ****** ****** ****** ******
      ****** ****** ****** ****** ****** ****** ****** ****** ****** ******
      ****** ****** ****** ****** ****** ****** ****** ****** ****** ******
   3  ****** ****** ****** ****** ****** ****** ****** ****** ****** ******
      ****** ****** ****** ****** ****** ****** ****** ****** ****** ******
      ****** ****** ****** ****** ****** ****** ****** ****** ****** ******
   4  ****** ****** ****** ****** ****** ****** ****** ****** ****** ******
      ****** ****** ****** ****** ****** ****** ****** ****** ****** ******
      ****** ****** ****** ****** ****** ****** ****** ****** ****** ******
   5  ****** ****** ****** ****** ****** ****** ****** ****** ****** ******
      ****** ****** ****** ****** ****** ****** ****** ****** ****** ******
      ****** ****** ****** ****** ****** ****** ****** ****** ****** ******
   6  ****** ****** ****** ****** ****** ****** ****** ****** ****** ******
      ****** ****** ****** ****** ****** ****** ****** ****** ****** ******
      ****** ****** ****** ****** ****** ****** ****** ****** ****** ******
   7  ****** ****** ****** ****** ****** ****** ****** ****** ****** ******
      ****** ****** ****** ****** ****** ****** ****** ****** ****** ******
      ****** ****** ****** ****** ****** ****** ****** ****** ****** ******
   8  ****** ****** ****** ****** ****** ****** ****** ****** ****** ******
      ****** ****** ****** ****** ****** ****** ****** ****** ****** ******
      ****** ****** ****** ****** ****** ****** ****** ****** ****** ******
   9  ****** ****** ****** ****** ****** ****** ****** ****** ****** ******
      ****** ****** ****** ****** ****** ****** ****** ****** ****** ******
      ****** ****** ****** ****** ****** ****** ****** ****** ****** ******
  10  ****** ****** ****** ****** ****** ****** ****** ****** ****** ******
      ****** ****** ****** ****** ****** ****** ****** ****** ****** ******
      ****** ****** ****** ****** ****** ****** ****** ****** ****** ******
  11  ****** ****** ****** ****** ****** ****** ****** ****** ****** ******
      ****** ****** ****** ****** ****** ****** ****** ****** ****** ******
      ****** ****** ****** ****** ****** ****** ****** ****** ****** ******
  12  ****** ****** ****** ****** ****** ****** ****** ****** ****** ******
      ****** ****** ****** ****** ****** ****** ****** ****** ****** ******
      ****** ****** ****** ****** ****** ****** ****** ****** ****** ******
  13  ****** ****** ****** ****** ****** ****** ****** ****** ****** ******
      ****** ****** ****** ****** ****** ****** ****** ****** ****** ******
      ****** ****** ****** ****** ****** ****** ****** ****** ****** ******
  14  ****** ****** ****** ****** ****** ****** ****** ****** ****** ******
      ****** ****** ****** ****** ****** ****** ****** ****** ****** ******
      ****** ****** ****** ****** ****** ****** ****** ****** ****** ******
  15  ****** ****** ****** ****** ****** ****** ****** ****** ****** ******
      ****** ****** ****** ****** ****** ****** ****** ****** ****** ******
      ****** ****** ****** ****** ****** ****** ****** ****** ****** ******
  16  ****** ****** ****** ****** ****** ****** ****** ****** ****** ******
      ****** ****** ****** ****** ****** ****** ****** ****** ****** ******
      ****** ****** ****** ****** ****** ****** ****** ****** ****** ******
  17  ****** ****** ****** ****** ****** ****** ****** ****** ****** ******
      ****** ****** ****** ****** ****** ****** ****** ****** ****** ******
      ****** ****** ****** ****** ****** ****** ****** ****** ****** ******
  18  ****** ****** ****** ****** ****** ****** ****** ****** ****** ******
      ****** ****** ****** ****** ****** ****** ****** ****** ****** ******
      ****** ****** ****** ****** ****** ****** ****** ****** ****** ******
  19  ****** ****** ****** ****** ****** ****** ****** ****** ****** ******
      ****** ****** ****** ****** ****** ****** ****** ****** ****** ******
      ****** ****** ****** ****** ****** ****** ****** ****** ****** ******
  20  ****** ****** ****** ****** ****** ****** ****** ****** ****** ******
      ****** ****** ****** ****** ****** ****** ****** ****** ****** ******
      ****** ****** ****** ****** ****** ****** ****** ****** ****** ******
  21  ****** ****** ****** ****** ****** ****** ****** ****** ****** ******
      ****** ****** ****** ****** ****** ****** ****** ****** ****** ******
      ****** ****** ****** ****** ****** ****** ****** ****** ****** ******
  22  ****** ****** ****** ****** ****** ****** ****** ****** ****** ******
      ****** ****** ****** ****** ****** ****** ****** ****** ****** ******
      ****** ****** ****** ****** ****** ****** ****** ****** ****** ******
  23  ****** ****** ****** ****** ****** ****** ****** ****** ****** ******
      ****** ****** ****** ****** ****** ****** ****** ****** ****** ******
      ****** ****** ****** ****** ****** ****** ****** ****** ****** ******
  24  ****** ****** ****** ****** ****** ****** ****** ****** ****** ******
      ****** ****** ****** ****** ****** ****** ****** ****** ****** ******
      ****** ****** ****** ****** ****** ****** ****** ****** ****** ******
  25  ****** ****** ****** ****** ****** ****** ****** ****** ****** ******
      ****** ****** ****** ****** ****** ****** ****** ****** ****** ******
      ****** ****** ****** ****** ****** ****** ****** ****** ****** ******

 HEAD WILL BE SAVED ON UNIT   51 AT END OF TIME STEP    1, STRESS PERIOD    3
1
  VOLUMETRIC BUDGET FOR ENTIRE MODEL AT END OF TIME STEP    1, STRESS PERIOD   3
  ------------------------------------------------------------------------------

     CUMULATIVE VOLUMES      L**3       RATES FOR THIS TIME STEP      L**3/T
     ------------------                 ------------------------

           IN:                                      IN:
           ---                                      ---
             STORAGE =    26845051.0724               STORAGE =       53196.1918
       CONSTANT HEAD =     4841096.6149         CONSTANT HEAD =       24587.6029
               WELLS =           0.0000                 WELLS =           0.0000
            RECHARGE =     6292800.0000              RECHARGE =           0.0000
      STREAM LEAKAGE =     1716844.9447        STREAM LEAKAGE =        9593.8807

            TOTAL IN =    39695792.6320              TOTAL IN =       87377.6754

          OUT:                                     OUT:
          ----                                     ----
             STORAGE =           0.0000               STORAGE =           0.0000
       CONSTANT HEAD =           0.0000         CONSTANT HEAD =           0.0000
               WELLS =     8067041.5326                 WELLS =       29441.7574
            RECHARGE =           0.0000              RECHARGE =           0.0000
      STREAM LEAKAGE =    31628753.0649        STREAM LEAKAGE =       57935.9257

           TOTAL OUT =    39695794.5975             TOTAL OUT =       87377.6831

            IN - OUT =          -1.9654              IN - OUT =      -7.6563E-03

 PERCENT DISCREPANCY =          -0.00     PERCENT DISCREPANCY =          -0.00






         TIME SUMMARY AT END OF TIME STEP    1 IN STRESS PERIOD    3
                    SECONDS     MINUTES      HOURS       DAYS        YEARS
                    -----------------------------------------------------------
   TIME STEP LENGTH 7.86240E+06 1.31040E+05  2184.0      91.000     0.24914    
 STRESS PERIOD TIME 7.86240E+06 1.31040E+05  2184.0      91.000     0.24914    
         TOTAL TIME 2.36736E+07 3.94560E+05  6576.0      274.00     0.75017    
1
1
                            STRESS PERIOD NO.    4, LENGTH =   91.00000    
                            -----------------------------------------------

                              NUMBER OF TIME STEPS =     1

                               MULTIPLIER FOR DELT =     1.500

                            INITIAL TIME STEP SIZE =   91.00000    

 WELL NO.  LAYER   ROW   COL   STRESS RATE         
 --------------------------------------------------
      1      1     19     11     -0.1013E+05
      2      1     15     28      -7561.    
      3      1     15      7      -2227.    
      4      1     12     26      -9522.    

      4 WELLS

                 RECHARGE =  1.000000E-03

 REUSING STREAM SEGMENT DATA FROM LAST STRESS PERIOD
 
 SOLVING FOR HEAD 


     6 CALLS TO PCG ROUTINE FOR TIME STEP   1 IN STRESS PERIOD    4
    23 TOTAL ITERATIONS

 OUTPUT CONTROL FOR STRESS PERIOD    4   TIME STEP    1
    SAVE BUDGET
    SAVE HEAD FOR ALL LAYERS
    PRINT HEAD FOR ALL LAYERS
 UBDSV2 SAVING "STREAMFLOW OUT  " ON UNIT  50 AT TIME STEP  1, STRESS PERIOD   4



 STREAM LISTING     PERIOD      4   STEP        1

 LAYER ROW COL. STREAM  RCH.  FLOW INTO     FLOW TO   FLOW OUT OF   OVRLND.     DIRECT     STREAM       STREAM     STREAM     STREAM   STREAMBED  STREAMBED
                SEG.NO.  NO.  STRM. RCH.    AQUIFER    STRM. RCH.    RUNOFF     PRECIP       ET          HEAD       DEPTH      WIDTH   CONDCTNC.   GRADIENT

   1   13    1     1     1    1.0000E+05 -2.4731E+03   1.0247E+05  0.000E+00  0.000E+00  0.000E+00  4.84071E+01  1.457E-01  2.000E+01  2.000E+04 -1.237E-01
   1   13    2     1     2    1.0247E+05 -3.5349E+03   1.0601E+05  0.000E+00  0.000E+00  0.000E+00  4.79324E+01  1.483E-01  2.000E+01  2.000E+04 -1.767E-01
   1   14    3     1     3    1.0601E+05 -5.7535E+02   1.0658E+05  0.000E+00  0.000E+00  0.000E+00  4.74569E+01  1.500E-01  2.000E+01  2.000E+04 -2.877E-02
   1   15    4     1     4    1.0658E+05 -4.8971E+02   1.0707E+05  0.000E+00  0.000E+00  0.000E+00  4.69800E+01  1.505E-01  2.000E+01  2.000E+04 -2.449E-02
   1   16    5     1     5    1.0707E+05 -1.6283E+03   1.0870E+05  0.000E+00  0.000E+00  0.000E+00  4.65037E+01  1.514E-01  2.000E+01  2.000E+04 -8.142E-02
   1   16    6     1     6    1.0870E+05 -7.2385E+02   1.0943E+05  0.000E+00  0.000E+00  0.000E+00  4.60274E+01  1.524E-01  2.000E+01  2.000E+04 -3.619E-02
   1   16    7     1     7    1.0943E+05  9.1025E+01   1.0933E+05  0.000E+00  0.000E+00  0.000E+00  4.55504E+01  1.526E-01  2.000E+01  2.000E+04  4.551E-03
   1   16    8     1     8    1.0933E+05 -4.5819E+02   1.0979E+05  0.000E+00  0.000E+00  0.000E+00  4.50733E+01  1.528E-01  2.000E+01  2.000E+04 -2.291E-02
   1   16    9     1     9    1.0979E+05 -4.4583E+02   1.1024E+05  0.000E+00  0.000E+00  0.000E+00  4.45964E+01  1.532E-01  2.000E+01  2.000E+04 -2.229E-02
   1   16   10     1    10    1.1024E+05 -2.4014E+02   1.1048E+05  0.000E+00  0.000E+00  0.000E+00  4.41194E+01  1.535E-01  2.000E+01  2.000E+04 -1.201E-02
   1   16   11     1    11    1.1048E+05 -7.0245E+01   1.1055E+05  0.000E+00  0.000E+00  0.000E+00  4.36422E+01  1.536E-01  2.000E+01  2.000E+04 -3.512E-03
   1   16   12     1    12    1.1055E+05 -8.7343E+02   1.1142E+05  0.000E+00  0.000E+00  0.000E+00  4.31654E+01  1.540E-01  2.000E+01  2.000E+04 -4.367E-02
   1   15   13     1    13    1.1142E+05 -1.7355E+03   1.1316E+05  0.000E+00  0.000E+00  0.000E+00  4.26892E+01  1.551E-01  2.000E+01  2.000E+04 -8.677E-02
   1   14   14     1    14    1.1316E+05 -2.3631E+03   1.1552E+05  0.000E+00  0.000E+00  0.000E+00  4.22136E+01  1.568E-01  2.000E+01  2.000E+04 -1.182E-01
   1   13   15     1    15    1.1552E+05 -2.8649E+03   1.1839E+05  0.000E+00  0.000E+00  0.000E+00  4.17384E+01  1.589E-01  2.000E+01  2.000E+04 -1.432E-01
   1   12   16     1    16    1.1839E+05 -3.7339E+03   1.2212E+05  0.000E+00  0.000E+00  0.000E+00  4.12639E+01  1.616E-01  2.000E+01  2.000E+04 -1.867E-01
   1   12   17     1    17    1.2212E+05 -2.3967E+03   1.2452E+05  0.000E+00  0.000E+00  0.000E+00  4.07890E+01  1.640E-01  2.000E+01  2.000E+04 -1.198E-01
   1   12   18     1    18    1.2452E+05 -2.2774E+03   1.2679E+05  0.000E+00  0.000E+00  0.000E+00  4.03136E+01  1.659E-01  2.000E+01  2.000E+04 -1.139E-01
   1   12   19     1    19    1.2679E+05 -2.9417E+03   1.2974E+05  0.000E+00  0.000E+00  0.000E+00  3.98384E+01  1.680E-01  2.000E+01  2.000E+04 -1.471E-01
   1   13   20     1    20    1.2974E+05 -2.1695E+03   1.3190E+05  0.000E+00  0.000E+00  0.000E+00  3.93631E+01  1.700E-01  2.000E+01  2.000E+04 -1.085E-01
   1   14   21     1    21    1.3190E+05 -1.9710E+03   1.3388E+05  0.000E+00  0.000E+00  0.000E+00  3.88875E+01  1.716E-01  2.000E+01  2.000E+04 -9.855E-02
   1   14   22     1    22    1.3388E+05  4.8585E+03   1.2902E+05  0.000E+00  0.000E+00  0.000E+00  3.84091E+01  1.704E-01  2.000E+01  2.000E+04  2.429E-01
   1    9   30     2     1    5.0000E+04 -1.4327E+02   5.0143E+04  0.000E+00  0.000E+00  0.000E+00  4.02410E+01  1.160E-01  2.000E+01  2.000E+04 -7.163E-03
   1    9   29     2     2    5.0143E+04 -4.2947E+02   5.0573E+04  0.000E+00  0.000E+00  0.000E+00  3.99914E+01  1.164E-01  2.000E+01  2.000E+04 -2.147E-02
   1    9   28     2     3    5.0573E+04 -6.9706E+02   5.1270E+04  0.000E+00  0.000E+00  0.000E+00  3.97421E+01  1.171E-01  2.000E+01  2.000E+04 -3.485E-02
   1    9   27     2     4    5.1270E+04 -2.2536E+03   5.3523E+04  0.000E+00  0.000E+00  0.000E+00  3.94942E+01  1.192E-01  2.000E+01  2.000E+04 -1.127E-01
   1   10   26     2     5    5.3523E+04  3.3020E+02   5.3193E+04  0.000E+00  0.000E+00  0.000E+00  3.92455E+01  1.205E-01  2.000E+01  2.000E+04  1.651E-02
   1   11   25     2     6    5.3193E+04  1.6128E+03   5.1580E+04  0.000E+00  0.000E+00  0.000E+00  3.89942E+01  1.192E-01  2.000E+01  2.000E+04  8.064E-02
   1   12   24     2     7    5.1580E+04 -4.0732E+01   5.1621E+04  0.000E+00  0.000E+00  0.000E+00  3.87431E+01  1.181E-01  2.000E+01  2.000E+04 -2.037E-03
   1   13   23     2     8    5.1621E+04 -2.6318E+02   5.1884E+04  0.000E+00  0.000E+00  0.000E+00  3.84933E+01  1.183E-01  2.000E+01  2.000E+04 -1.316E-02
   1   14   22     2     9    5.1884E+04  1.5253E+03   5.0359E+04  0.000E+00  0.000E+00  0.000E+00  3.82424E+01  1.174E-01  2.000E+01  2.000E+04  7.627E-02
   1   14   22     3     1    1.7938E+05 -8.7536E+03   1.8813E+05  0.000E+00  0.000E+00  0.000E+00  3.77285E+01  1.729E-01  2.000E+01  2.000E+04 -4.377E-01
   1   15   23     3     2    1.8813E+05 -6.1405E+02   1.8874E+05  0.000E+00  0.000E+00  0.000E+00  3.68422E+01  1.755E-01  2.000E+01  2.000E+04 -3.070E-02
   1   15   24     3     3    1.8874E+05 -3.0203E+02   1.8905E+05  0.000E+00  0.000E+00  0.000E+00  3.59536E+01  1.758E-01  2.000E+01  2.000E+04 -1.510E-02
   1   15   25     3     4    1.8905E+05 -2.3108E+02   1.8928E+05  0.000E+00  0.000E+00  0.000E+00  3.50648E+01  1.760E-01  2.000E+01  2.000E+04 -1.155E-02
   1   15   26     3     5    1.8928E+05  8.7959E+01   1.8919E+05  0.000E+00  0.000E+00  0.000E+00  3.41760E+01  1.760E-01  2.000E+01  2.000E+04  4.398E-03
   1   16   27     3     6    1.8919E+05  2.9758E+02   1.8889E+05  0.000E+00  0.000E+00  0.000E+00  3.32870E+01  1.759E-01  2.000E+01  2.000E+04  1.488E-02
   1   17   28     3     7    1.8889E+05  1.3255E+03   1.8757E+05  0.000E+00  0.000E+00  0.000E+00  3.23977E+01  1.754E-01  2.000E+01  2.000E+04  6.628E-02
   1   18   29     3     8    1.8757E+05 -2.4994E+03   1.9007E+05  0.000E+00  0.000E+00  0.000E+00  3.15091E+01  1.758E-01  2.000E+01  2.000E+04 -1.250E-01
   1   18   30     3     9    1.9007E+05 -2.5280E+03   1.9259E+05  0.000E+00  0.000E+00  0.000E+00  3.06216E+01  1.772E-01  2.000E+01  2.000E+04 -1.264E-01



1
              HEAD IN LAYER   1 AT END OF TIME STEP   1 IN STRESS PERIOD    4
  ---------------------------------------------------------------------------

          1      2      3      4      5      6      7      8      9     10
         11     12     13     14     15     16     17     18     19     20
         21     22     23     24     25     26     27     28     29     30
 .........................................................................
   1  ****** ****** ****** ****** ****** ****** ****** ****** ****** ******
      ****** ****** ****** ****** ****** ****** ****** ****** ****** ******
      ****** ****** ****** ****** ****** ****** ****** ****** ****** ******
   2  ****** ****** ****** ****** ****** ****** ****** ****** ****** ******
      ****** ****** ****** ****** ****** ****** ****** ****** ****** ******
      ****** ****** ****** ****** ****** ****** ****** ****** ****** ******
   3  ****** ****** ****** ****** ****** ****** ****** ****** ****** ******
      ****** ****** ****** ****** ****** ****** ****** ****** ****** ******
      ****** ****** ****** ****** ****** ****** ****** ****** ****** ******
   4  ****** ****** ****** ****** ****** ****** ****** ****** ****** ******
      ****** ****** ****** ****** ****** ****** ****** ****** ****** ******
      ****** ****** ****** ****** ****** ****** ****** ****** ****** ******
   5  ****** ****** ****** ****** ****** ****** ****** ****** ****** ******
      ****** ****** ****** ****** ****** ****** ****** ****** ****** ******
      ****** ****** ****** ****** ****** ****** ****** ****** ****** ******
   6  ****** ****** ****** ****** ****** ****** ****** ****** ****** ******
      ****** ****** ****** ****** ****** ****** ****** ****** ****** ******
      ****** ****** ****** ****** ****** ****** ****** ****** ****** ******
   7  ****** ****** ****** ****** ****** ****** ****** ****** ****** ******
      ****** ****** ****** ****** ****** ****** ****** ****** ****** ******
      ****** ****** ****** ****** ****** ****** ****** ****** ****** ******
   8  ****** ****** ****** ****** ****** ****** ****** ****** ****** ******
      ****** ****** ****** ****** ****** ****** ****** ****** ****** ******
      ****** ****** ****** ****** ****** ****** ****** ****** ****** ******
   9  ****** ****** ****** ****** ****** ****** ****** ****** ****** ******
      ****** ****** ****** ****** ****** ****** ****** ****** ****** ******
      ****** ****** ****** ****** ****** ****** ****** ****** ****** ******
  10  ****** ****** ****** ****** ****** ****** ****** ****** ****** ******
      ****** ****** ****** ****** ****** ****** ****** ****** ****** ******
      ****** ****** ****** ****** ****** ****** ****** ****** ****** ******
  11  ****** ****** ****** ****** ****** ****** ****** ****** ****** ******
      ****** ****** ****** ****** ****** ****** ****** ****** ****** ******
      ****** ****** ****** ****** ****** ****** ****** ****** ****** ******
  12  ****** ****** ****** ****** ****** ****** ****** ****** ****** ******
      ****** ****** ****** ****** ****** ****** ****** ****** ****** ******
      ****** ****** ****** ****** ****** ****** ****** ****** ****** ******
  13  ****** ****** ****** ****** ****** ****** ****** ****** ****** ******
      ****** ****** ****** ****** ****** ****** ****** ****** ****** ******
      ****** ****** ****** ****** ****** ****** ****** ****** ****** ******
  14  ****** ****** ****** ****** ****** ****** ****** ****** ****** ******
      ****** ****** ****** ****** ****** ****** ****** ****** ****** ******
      ****** ****** ****** ****** ****** ****** ****** ****** ****** ******
  15  ****** ****** ****** ****** ****** ****** ****** ****** ****** ******
      ****** ****** ****** ****** ****** ****** ****** ****** ****** ******
      ****** ****** ****** ****** ****** ****** ****** ****** ****** ******
  16  ****** ****** ****** ****** ****** ****** ****** ****** ****** ******
      ****** ****** ****** ****** ****** ****** ****** ****** ****** ******
      ****** ****** ****** ****** ****** ****** ****** ****** ****** ******
  17  ****** ****** ****** ****** ****** ****** ****** ****** ****** ******
      ****** ****** ****** ****** ****** ****** ****** ****** ****** ******
      ****** ****** ****** ****** ****** ****** ****** ****** ****** ******
  18  ****** ****** ****** ****** ****** ****** ****** ****** ****** ******
      ****** ****** ****** ****** ****** ****** ****** ****** ****** ******
      ****** ****** ****** ****** ****** ****** ****** ****** ****** ******
  19  ****** ****** ****** ****** ****** ****** ****** ****** ****** ******
      ****** ****** ****** ****** ****** ****** ****** ****** ****** ******
      ****** ****** ****** ****** ****** ****** ****** ****** ****** ******
  20  ****** ****** ****** ****** ****** ****** ****** ****** ****** ******
      ****** ****** ****** ****** ****** ****** ****** ****** ****** ******
      ****** ****** ****** ****** ****** ****** ****** ****** ****** ******
  21  ****** ****** ****** ****** ****** ****** ****** ****** ****** ******
      ****** ****** ****** ****** ****** ****** ****** ****** ****** ******
      ****** ****** ****** ****** ****** ****** ****** ****** ****** ******
  22  ****** ****** ****** ****** ****** ****** ****** ****** ****** ******
      ****** ****** ****** ****** ****** ****** ****** ****** ****** ******
      ****** ****** ****** ****** ****** ****** ****** ****** ****** ******
  23  ****** ****** ****** ****** ****** ****** ****** ****** ****** ******
      ****** ****** ****** ****** ****** ****** ****** ****** ****** ******
      ****** ****** ****** ****** ****** ****** ****** ****** ****** ******
  24  ****** ****** ****** ****** ****** ****** ****** ****** ****** ******
      ****** ****** ****** ****** ****** ****** ****** ****** ****** ******
      ****** ****** ****** ****** ****** ****** ****** ****** ****** ******
  25  ****** ****** ****** ****** ****** ****** ****** ****** ****** ******
      ****** ****** ****** ****** ****** ****** ****** ****** ****** ******
      ****** ****** ****** ****** ****** ****** ****** ****** ****** ******

 HEAD WILL BE SAVED ON UNIT   51 AT END OF TIME STEP    1, STRESS PERIOD    4
1
  VOLUMETRIC BUDGET FOR ENTIRE MODEL AT END OF TIME STEP    1, STRESS PERIOD   4
  ------------------------------------------------------------------------------

     CUMULATIVE VOLUMES      L**3       RATES FOR THIS TIME STEP      L**3/T
     ------------------                 ------------------------

           IN:                                      IN:
           ---                                      ---
             STORAGE =    28430324.6242               STORAGE =       17420.5885
       CONSTANT HEAD =     7299840.1114         CONSTANT HEAD =       27019.1593
               WELLS =           0.0000                 WELLS =           0.0000
            RECHARGE =     8804400.0000              RECHARGE =       27600.0000
      STREAM LEAKAGE =     2638579.5681        STREAM LEAKAGE =       10128.9519

            TOTAL IN =    47173144.3038              TOTAL IN =       82168.6997

          OUT:                                     OUT:
          ----                                     ----
             STORAGE =         438.1047               STORAGE =           4.8143
       CONSTANT HEAD =           0.0000         CONSTANT HEAD =           0.0000
               WELLS =    10746241.4576                 WELLS =       29441.7574
            RECHARGE =           0.0000              RECHARGE =           0.0000
      STREAM LEAKAGE =    36426466.7822        STREAM LEAKAGE =       52722.1288

           TOTAL OUT =    47173146.3445             TOTAL OUT =       82168.7005

            IN - OUT =          -2.0408              IN - OUT =      -8.2762E-04

 PERCENT DISCREPANCY =          -0.00     PERCENT DISCREPANCY =          -0.00






         TIME SUMMARY AT END OF TIME STEP    1 IN STRESS PERIOD    4
                    SECONDS     MINUTES      HOURS       DAYS        YEARS
                    -----------------------------------------------------------
   TIME STEP LENGTH 7.86240E+06 1.31040E+05  2184.0      91.000     0.24914    
 STRESS PERIOD TIME 7.86240E+06 1.31040E+05  2184.0      91.000     0.24914    
         TOTAL TIME 3.15360E+07 5.25600E+05  8760.0      365.00     0.99932    
1
1
                            STRESS PERIOD NO.    5, LENGTH =   92.00000    
                            -----------------------------------------------

                              NUMBER OF TIME STEPS =     1

                               MULTIPLIER FOR DELT =     1.500

                            INITIAL TIME STEP SIZE =   92.00000    

 WELL NO.  LAYER   ROW   COL   STRESS RATE         
 --------------------------------------------------
      1      1     19     11     -0.1013E+05
      2      1     15     28      -7561.    
      3      1     15      7      -2227.    
      4      1     12     26      -9522.    

      4 WELLS

                 RECHARGE =  5.000000E-04

 REUSING STREAM SEGMENT DATA FROM LAST STRESS PERIOD
 
 SOLVING FOR HEAD 


     7 CALLS TO PCG ROUTINE FOR TIME STEP   1 IN STRESS PERIOD    5
    26 TOTAL ITERATIONS

 OUTPUT CONTROL FOR STRESS PERIOD    5   TIME STEP    1
    SAVE BUDGET
    SAVE HEAD FOR ALL LAYERS
    PRINT HEAD FOR ALL LAYERS
 UBDSV2 SAVING "STREAMFLOW OUT  " ON UNIT  50 AT TIME STEP  1, STRESS PERIOD   5



 STREAM LISTING     PERIOD      5   STEP        1

 LAYER ROW COL. STREAM  RCH.  FLOW INTO     FLOW TO   FLOW OUT OF   OVRLND.     DIRECT     STREAM       STREAM     STREAM     STREAM   STREAMBED  STREAMBED
                SEG.NO.  NO.  STRM. RCH.    AQUIFER    STRM. RCH.    RUNOFF     PRECIP       ET          HEAD       DEPTH      WIDTH   CONDCTNC.   GRADIENT

   1   13    1     1     1    1.0000E+05 -2.0632E+03   1.0206E+05  0.000E+00  0.000E+00  0.000E+00  4.84069E+01  1.455E-01  2.000E+01  2.000E+04 -1.032E-01
   1   13    2     1     2    1.0206E+05 -3.0710E+03   1.0513E+05  0.000E+00  0.000E+00  0.000E+00  4.79318E+01  1.478E-01  2.000E+01  2.000E+04 -1.535E-01
   1   14    3     1     3    1.0513E+05 -4.5104E+02   1.0559E+05  0.000E+00  0.000E+00  0.000E+00  4.74561E+01  1.493E-01  2.000E+01  2.000E+04 -2.255E-02
   1   15    4     1     4    1.0559E+05 -3.5752E+02   1.0594E+05  0.000E+00  0.000E+00  0.000E+00  4.69791E+01  1.496E-01  2.000E+01  2.000E+04 -1.788E-02
   1   16    5     1     5    1.0594E+05 -1.1798E+03   1.0712E+05  0.000E+00  0.000E+00  0.000E+00  4.65025E+01  1.502E-01  2.000E+01  2.000E+04 -5.899E-02
   1   16    6     1     6    1.0712E+05 -4.6185E+02   1.0758E+05  0.000E+00  0.000E+00  0.000E+00  4.60259E+01  1.509E-01  2.000E+01  2.000E+04 -2.309E-02
   1   16    7     1     7    1.0758E+05  3.4198E+02   1.0724E+05  0.000E+00  0.000E+00  0.000E+00  4.55487E+01  1.510E-01  2.000E+01  2.000E+04  1.710E-02
   1   16    8     1     8    1.0724E+05 -2.1160E+02   1.0745E+05  0.000E+00  0.000E+00  0.000E+00  4.50714E+01  1.509E-01  2.000E+01  2.000E+04 -1.058E-02
   1   16    9     1     9    1.0745E+05 -2.0313E+02   1.0766E+05  0.000E+00  0.000E+00  0.000E+00  4.45943E+01  1.511E-01  2.000E+01  2.000E+04 -1.016E-02
   1   16   10     1    10    1.0766E+05 -1.8306E+00   1.0766E+05  0.000E+00  0.000E+00  0.000E+00  4.41171E+01  1.512E-01  2.000E+01  2.000E+04 -9.153E-05
   1   16   11     1    11    1.0766E+05  1.6769E+02   1.0749E+05  0.000E+00  0.000E+00  0.000E+00  4.36398E+01  1.511E-01  2.000E+01  2.000E+04  8.385E-03
   1   16   12     1    12    1.0749E+05 -4.5204E+02   1.0794E+05  0.000E+00  0.000E+00  0.000E+00  4.31626E+01  1.513E-01  2.000E+01  2.000E+04 -2.260E-02
   1   15   13     1    13    1.0794E+05 -1.3008E+03   1.0924E+05  0.000E+00  0.000E+00  0.000E+00  4.26861E+01  1.520E-01  2.000E+01  2.000E+04 -6.504E-02
   1   14   14     1    14    1.0924E+05 -1.9070E+03   1.1115E+05  0.000E+00  0.000E+00  0.000E+00  4.22101E+01  1.533E-01  2.000E+01  2.000E+04 -9.535E-02
   1   13   15     1    15    1.1115E+05 -2.3969E+03   1.1355E+05  0.000E+00  0.000E+00  0.000E+00  4.17347E+01  1.551E-01  2.000E+01  2.000E+04 -1.198E-01
   1   12   16     1    16    1.1355E+05 -3.2288E+03   1.1678E+05  0.000E+00  0.000E+00  0.000E+00  4.12597E+01  1.574E-01  2.000E+01  2.000E+04 -1.614E-01
   1   12   17     1    17    1.1678E+05 -2.0557E+03   1.1883E+05  0.000E+00  0.000E+00  0.000E+00  4.07846E+01  1.596E-01  2.000E+01  2.000E+04 -1.028E-01
   1   12   18     1    18    1.1883E+05 -1.9526E+03   1.2079E+05  0.000E+00  0.000E+00  0.000E+00  4.03089E+01  1.612E-01  2.000E+01  2.000E+04 -9.763E-02
   1   12   19     1    19    1.2079E+05 -2.5496E+03   1.2333E+05  0.000E+00  0.000E+00  0.000E+00  3.98335E+01  1.630E-01  2.000E+01  2.000E+04 -1.275E-01
   1   13   20     1    20    1.2333E+05 -1.8218E+03   1.2516E+05  0.000E+00  0.000E+00  0.000E+00  3.93580E+01  1.648E-01  2.000E+01  2.000E+04 -9.109E-02
   1   14   21     1    21    1.2516E+05 -1.5952E+03   1.2675E+05  0.000E+00  0.000E+00  0.000E+00  3.88820E+01  1.661E-01  2.000E+01  2.000E+04 -7.976E-02
   1   14   22     1    22    1.2675E+05  4.9372E+03   1.2181E+05  0.000E+00  0.000E+00  0.000E+00  3.84034E+01  1.648E-01  2.000E+01  2.000E+04  2.469E-01
   1    9   30     2     1    5.0000E+04  8.4187E+01   4.9916E+04  0.000E+00  0.000E+00  0.000E+00  4.02408E+01  1.158E-01  2.000E+01  2.000E+04  4.209E-03
   1    9   29     2     2    4.9916E+04 -1.9897E+02   5.0115E+04  0.000E+00  0.000E+00  0.000E+00  3.99909E+01  1.159E-01  2.000E+01  2.000E+04 -9.948E-03
   1    9   28     2     3    5.0115E+04 -4.5599E+02   5.0571E+04  0.000E+00  0.000E+00  0.000E+00  3.97413E+01  1.163E-01  2.000E+01  2.000E+04 -2.280E-02
   1    9   27     2     4    5.0571E+04 -1.8779E+03   5.2449E+04  0.000E+00  0.000E+00  0.000E+00  3.94930E+01  1.180E-01  2.000E+01  2.000E+04 -9.390E-02
   1   10   26     2     5    5.2449E+04  6.6062E+02   5.1788E+04  0.000E+00  0.000E+00  0.000E+00  3.92438E+01  1.188E-01  2.000E+01  2.000E+04  3.303E-02
   1   11   25     2     6    5.1788E+04  1.9166E+03   4.9871E+04  0.000E+00  0.000E+00  0.000E+00  3.89920E+01  1.170E-01  2.000E+01  2.000E+04  9.583E-02
   1   12   24     2     7    4.9871E+04  2.3585E+02   4.9636E+04  0.000E+00  0.000E+00  0.000E+00  3.87405E+01  1.155E-01  2.000E+01  2.000E+04  1.179E-02
   1   13   23     2     8    4.9636E+04 -1.9580E+02   4.9831E+04  0.000E+00  0.000E+00  0.000E+00  3.84905E+01  1.155E-01  2.000E+01  2.000E+04 -9.790E-03
   1   14   22     2     9    4.9831E+04  1.6578E+03   4.8174E+04  0.000E+00  0.000E+00  0.000E+00  3.82395E+01  1.145E-01  2.000E+01  2.000E+04  8.289E-02
   1   14   22     3     1    1.6999E+05 -8.6698E+03   1.7866E+05  0.000E+00  0.000E+00  0.000E+00  3.77231E+01  1.675E-01  2.000E+01  2.000E+04 -4.335E-01
   1   15   23     3     2    1.7866E+05 -5.1533E+02   1.7917E+05  0.000E+00  0.000E+00  0.000E+00  3.68368E+01  1.702E-01  2.000E+01  2.000E+04 -2.577E-02
   1   15   24     3     3    1.7917E+05 -2.2970E+02   1.7940E+05  0.000E+00  0.000E+00  0.000E+00  3.59482E+01  1.704E-01  2.000E+01  2.000E+04 -1.149E-02
   1   15   25     3     4    1.7940E+05 -1.5912E+02   1.7956E+05  0.000E+00  0.000E+00  0.000E+00  3.50594E+01  1.705E-01  2.000E+01  2.000E+04 -7.956E-03
   1   15   26     3     5    1.7956E+05  1.6163E+02   1.7940E+05  0.000E+00  0.000E+00  0.000E+00  3.41705E+01  1.705E-01  2.000E+01  2.000E+04  8.081E-03
   1   16   27     3     6    1.7940E+05  3.8928E+02   1.7901E+05  0.000E+00  0.000E+00  0.000E+00  3.32814E+01  1.703E-01  2.000E+01  2.000E+04  1.946E-02
   1   17   28     3     7    1.7901E+05  1.5980E+03   1.7741E+05  0.000E+00  0.000E+00  0.000E+00  3.23920E+01  1.698E-01  2.000E+01  2.000E+04  7.990E-02
   1   18   29     3     8    1.7741E+05 -2.1232E+03   1.7954E+05  0.000E+00  0.000E+00  0.000E+00  3.15033E+01  1.699E-01  2.000E+01  2.000E+04 -1.062E-01
   1   18   30     3     9    1.7954E+05 -2.2682E+03   1.8180E+05  0.000E+00  0.000E+00  0.000E+00  3.06156E+01  1.712E-01  2.000E+01  2.000E+04 -1.134E-01



1
              HEAD IN LAYER   1 AT END OF TIME STEP   1 IN STRESS PERIOD    5
  ---------------------------------------------------------------------------

          1      2      3      4      5      6      7      8      9     10
         11     12     13     14     15     16     17     18     19     20
         21     22     23     24     25     26     27     28     29     30
 .........................................................................
   1  ****** ****** ****** ****** ****** ****** ****** ****** ****** ******
      ****** ****** ****** ****** ****** ****** ****** ****** ****** ******
      ****** ****** ****** ****** ****** ****** ****** ****** ****** ******
   2  ****** ****** ****** ****** ****** ****** ****** ****** ****** ******
      ****** ****** ****** ****** ****** ****** ****** ****** ****** ******
      ****** ****** ****** ****** ****** ****** ****** ****** ****** ******
   3  ****** ****** ****** ****** ****** ****** ****** ****** ****** ******
      ****** ****** ****** ****** ****** ****** ****** ****** ****** ******
      ****** ****** ****** ****** ****** ****** ****** ****** ****** ******
   4  ****** ****** ****** ****** ****** ****** ****** ****** ****** ******
      ****** ****** ****** ****** ****** ****** ****** ****** ****** ******
      ****** ****** ****** ****** ****** ****** ****** ****** ****** ******
   5  ****** ****** ****** ****** ****** ****** ****** ****** ****** ******
      ****** ****** ****** ****** ****** ****** ****** ****** ****** ******
      ****** ****** ****** ****** ****** ****** ****** ****** ****** ******
   6  ****** ****** ****** ****** ****** ****** ****** ****** ****** ******
      ****** ****** ****** ****** ****** ****** ****** ****** ****** ******
      ****** ****** ****** ****** ****** ****** ****** ****** ****** ******
   7  ****** ****** ****** ****** ****** ****** ****** ****** ****** ******
      ****** ****** ****** ****** ****** ****** ****** ****** ****** ******
      ****** ****** ****** ****** ****** ****** ****** ****** ****** ******
   8  ****** ****** ****** ****** ****** ****** ****** ****** ****** ******
      ****** ****** ****** ****** ****** ****** ****** ****** ****** ******
      ****** ****** ****** ****** ****** ****** ****** ****** ****** ******
   9  ****** ****** ****** ****** ****** ****** ****** ****** ****** ******
      ****** ****** ****** ****** ****** ****** ****** ****** ****** ******
      ****** ****** ****** ****** ****** ****** ****** ****** ****** ******
  10  ****** ****** ****** ****** ****** ****** ****** ****** ****** ******
      ****** ****** ****** ****** ****** ****** ****** ****** ****** ******
      ****** ****** ****** ****** ****** ****** ****** ****** ****** ******
  11  ****** ****** ****** ****** ****** ****** ****** ****** ****** ******
      ****** ****** ****** ****** ****** ****** ****** ****** ****** ******
      ****** ****** ****** ****** ****** ****** ****** ****** ****** ******
  12  ****** ****** ****** ****** ****** ****** ****** ****** ****** ******
      ****** ****** ****** ****** ****** ****** ****** ****** ****** ******
      ****** ****** ****** ****** ****** ****** ****** ****** ****** ******
  13  ****** ****** ****** ****** ****** ****** ****** ****** ****** ******
      ****** ****** ****** ****** ****** ****** ****** ****** ****** ******
      ****** ****** ****** ****** ****** ****** ****** ****** ****** ******
  14  ****** ****** ****** ****** ****** ****** ****** ****** ****** ******
      ****** ****** ****** ****** ****** ****** ****** ****** ****** ******
      ****** ****** ****** ****** ****** ****** ****** ****** ****** ******
  15  ****** ****** ****** ****** ****** ****** ****** ****** ****** ******
      ****** ****** ****** ****** ****** ****** ****** ****** ****** ******
      ****** ****** ****** ****** ****** ****** ****** ****** ****** ******
  16  ****** ****** ****** ****** ****** ****** ****** ****** ****** ******
      ****** ****** ****** ****** ****** ****** ****** ****** ****** ******
      ****** ****** ****** ****** ****** ****** ****** ****** ****** ******
  17  ****** ****** ****** ****** ****** ****** ****** ****** ****** ******
      ****** ****** ****** ****** ****** ****** ****** ****** ****** ******
      ****** ****** ****** ****** ****** ****** ****** ****** ****** ******
  18  ****** ****** ****** ****** ****** ****** ****** ****** ****** ******
      ****** ****** ****** ****** ****** ****** ****** ****** ****** ******
      ****** ****** ****** ****** ****** ****** ****** ****** ****** ******
  19  ****** ****** ****** ****** ****** ****** ****** ****** ****** ******
      ****** ****** ****** ****** ****** ****** ****** ****** ****** ******
      ****** ****** ****** ****** ****** ****** ****** ****** ****** ******
  20  ****** ****** ****** ****** ****** ****** ****** ****** ****** ******
      ****** ****** ****** ****** ****** ****** ****** ****** ****** ******
      ****** ****** ****** ****** ****** ****** ****** ****** ****** ******
  21  ****** ****** ****** ****** ****** ****** ****** ****** ****** ******
      ****** ****** ****** ****** ****** ****** ****** ****** ****** ******
      ****** ****** ****** ****** ****** ****** ****** ****** ****** ******
  22  ****** ****** ****** ****** ****** ****** ****** ****** ****** ******
      ****** ****** ****** ****** ****** ****** ****** ****** ****** ******
      ****** ****** ****** ****** ****** ****** ****** ****** ****** ******
  23  ****** ****** ****** ****** ****** ****** ****** ****** ****** ******
      ****** ****** ****** ****** ****** ****** ****** ****** ****** ******
      ****** ****** ****** ****** ****** ****** ****** ****** ****** ******
  24  ****** ****** ****** ****** ****** ****** ****** ****** ****** ******
      ****** ****** ****** ****** ****** ****** ****** ****** ****** ******
      ****** ****** ****** ****** ****** ****** ****** ****** ****** ******
  25  ****** ****** ****** ****** ****** ****** ****** ****** ****** ******
      ****** ****** ****** ****** ****** ****** ****** ****** ****** ******
      ****** ****** ****** ****** ****** ****** ****** ****** ****** ******

 HEAD WILL BE SAVED ON UNIT   51 AT END OF TIME STEP    1, STRESS PERIOD    5
1
  VOLUMETRIC BUDGET FOR ENTIRE MODEL AT END OF TIME STEP    1, STRESS PERIOD   5
  ------------------------------------------------------------------------------

     CUMULATIVE VOLUMES      L**3       RATES FOR THIS TIME STEP      L**3/T
     ------------------                 ------------------------

           IN:                                      IN:
           ---                                      ---
             STORAGE =    30050544.5387               STORAGE =       17611.0860
       CONSTANT HEAD =    10044666.1346         CONSTANT HEAD =       29835.0655
               WELLS =           0.0000                 WELLS =           0.0000
            RECHARGE =    10074000.0000              RECHARGE =       13800.0000
      STREAM LEAKAGE =     3756461.4885        STREAM LEAKAGE =       12150.8904

            TOTAL IN =    53925672.1618              TOTAL IN =       73397.0419

          OUT:                                     OUT:
          ----                                     ----
             STORAGE =         438.1047               STORAGE =           0.0000
       CONSTANT HEAD =           0.0000         CONSTANT HEAD =           0.0000
               WELLS =    13454883.1401                 WELLS =       29441.7574
            RECHARGE =           0.0000              RECHARGE =           0.0000
      STREAM LEAKAGE =    40470353.2444        STREAM LEAKAGE =       43955.2876

           TOTAL OUT =    53925674.4892             TOTAL OUT =       73397.0451

            IN - OUT =          -2.3273              IN - OUT =      -3.1149E-03

 PERCENT DISCREPANCY =          -0.00     PERCENT DISCREPANCY =          -0.00






         TIME SUMMARY AT END OF TIME STEP    1 IN STRESS PERIOD    5
                    SECONDS     MINUTES      HOURS       DAYS        YEARS
                    -----------------------------------------------------------
   TIME STEP LENGTH 7.94880E+06 1.32480E+05  2208.0      92.000     0.25188    
 STRESS PERIOD TIME 7.94880E+06 1.32480E+05  2208.0      92.000     0.25188    
         TOTAL TIME 3.94848E+07 6.58080E+05  10968.      457.00      1.2512    
1
1
                            STRESS PERIOD NO.    6, LENGTH =   91.00000    
                            -----------------------------------------------

                              NUMBER OF TIME STEPS =     1

                               MULTIPLIER FOR DELT =     1.500

                            INITIAL TIME STEP SIZE =   91.00000    

 WELL NO.  LAYER   ROW   COL   STRESS RATE         
 --------------------------------------------------
      1      1     19     11     -0.1013E+05
      2      1     15     28      -7561.    
      3      1     15      7      -2227.    
      4      1     12     26      -9522.    

      4 WELLS

                 RECHARGE =  2.000000E-03

 REUSING STREAM SEGMENT DATA FROM LAST STRESS PERIOD
 
 SOLVING FOR HEAD 


     7 CALLS TO PCG ROUTINE FOR TIME STEP   1 IN STRESS PERIOD    6
    26 TOTAL ITERATIONS

 OUTPUT CONTROL FOR STRESS PERIOD    6   TIME STEP    1
    SAVE BUDGET
    SAVE HEAD FOR ALL LAYERS
    PRINT HEAD FOR ALL LAYERS
 UBDSV2 SAVING "STREAMFLOW OUT  " ON UNIT  50 AT TIME STEP  1, STRESS PERIOD   6



 STREAM LISTING     PERIOD      6   STEP        1

 LAYER ROW COL. STREAM  RCH.  FLOW INTO     FLOW TO   FLOW OUT OF   OVRLND.     DIRECT     STREAM       STREAM     STREAM     STREAM   STREAMBED  STREAMBED
                SEG.NO.  NO.  STRM. RCH.    AQUIFER    STRM. RCH.    RUNOFF     PRECIP       ET          HEAD       DEPTH      WIDTH   CONDCTNC.   GRADIENT

   1   13    1     1     1    1.0000E+05 -2.3841E+03   1.0238E+05  0.000E+00  0.000E+00  0.000E+00  4.84070E+01  1.457E-01  2.000E+01  2.000E+04 -1.192E-01
   1   13    2     1     2    1.0238E+05 -3.4223E+03   1.0581E+05  0.000E+00  0.000E+00  0.000E+00  4.79323E+01  1.482E-01  2.000E+01  2.000E+04 -1.711E-01
   1   14    3     1     3    1.0581E+05 -6.0541E+02   1.0641E+05  0.000E+00  0.000E+00  0.000E+00  4.74567E+01  1.499E-01  2.000E+01  2.000E+04 -3.027E-02
   1   15    4     1     4    1.0641E+05 -5.2261E+02   1.0693E+05  0.000E+00  0.000E+00  0.000E+00  4.69799E+01  1.504E-01  2.000E+01  2.000E+04 -2.613E-02
   1   16    5     1     5    1.0693E+05 -1.6682E+03   1.0860E+05  0.000E+00  0.000E+00  0.000E+00  4.65036E+01  1.513E-01  2.000E+01  2.000E+04 -8.341E-02
   1   16    6     1     6    1.0860E+05 -7.4904E+02   1.0935E+05  0.000E+00  0.000E+00  0.000E+00  4.60273E+01  1.523E-01  2.000E+01  2.000E+04 -3.745E-02
   1   16    7     1     7    1.0935E+05  6.9593E+01   1.0928E+05  0.000E+00  0.000E+00  0.000E+00  4.55503E+01  1.526E-01  2.000E+01  2.000E+04  3.480E-03
   1   16    8     1     8    1.0928E+05 -4.7982E+02   1.0976E+05  0.000E+00  0.000E+00  0.000E+00  4.50732E+01  1.528E-01  2.000E+01  2.000E+04 -2.399E-02
   1   16    9     1     9    1.0976E+05 -4.7133E+02   1.1023E+05  0.000E+00  0.000E+00  0.000E+00  4.45963E+01  1.532E-01  2.000E+01  2.000E+04 -2.357E-02
   1   16   10     1    10    1.1023E+05 -2.7208E+02   1.1051E+05  0.000E+00  0.000E+00  0.000E+00  4.41194E+01  1.535E-01  2.000E+01  2.000E+04 -1.360E-02
   1   16   11     1    11    1.1051E+05 -1.0621E+02   1.1061E+05  0.000E+00  0.000E+00  0.000E+00  4.36423E+01  1.536E-01  2.000E+01  2.000E+04 -5.311E-03
   1   16   12     1    12    1.1061E+05 -8.9629E+02   1.1151E+05  0.000E+00  0.000E+00  0.000E+00  4.31654E+01  1.540E-01  2.000E+01  2.000E+04 -4.481E-02
   1   15   13     1    13    1.1151E+05 -1.7595E+03   1.1327E+05  0.000E+00  0.000E+00  0.000E+00  4.26892E+01  1.552E-01  2.000E+01  2.000E+04 -8.797E-02
   1   14   14     1    14    1.1327E+05 -2.3641E+03   1.1563E+05  0.000E+00  0.000E+00  0.000E+00  4.22137E+01  1.569E-01  2.000E+01  2.000E+04 -1.182E-01
   1   13   15     1    15    1.1563E+05 -2.8377E+03   1.1847E+05  0.000E+00  0.000E+00  0.000E+00  4.17385E+01  1.590E-01  2.000E+01  2.000E+04 -1.419E-01
   1   12   16     1    16    1.1847E+05 -3.6284E+03   1.2210E+05  0.000E+00  0.000E+00  0.000E+00  4.12639E+01  1.616E-01  2.000E+01  2.000E+04 -1.814E-01
   1   12   17     1    17    1.2210E+05 -2.3780E+03   1.2448E+05  0.000E+00  0.000E+00  0.000E+00  4.07890E+01  1.640E-01  2.000E+01  2.000E+04 -1.189E-01
   1   12   18     1    18    1.2448E+05 -2.2779E+03   1.2675E+05  0.000E+00  0.000E+00  0.000E+00  4.03136E+01  1.659E-01  2.000E+01  2.000E+04 -1.139E-01
   1   12   19     1    19    1.2675E+05 -2.9543E+03   1.2971E+05  0.000E+00  0.000E+00  0.000E+00  3.98384E+01  1.679E-01  2.000E+01  2.000E+04 -1.477E-01
   1   13   20     1    20    1.2971E+05 -2.2489E+03   1.3196E+05  0.000E+00  0.000E+00  0.000E+00  3.93631E+01  1.700E-01  2.000E+01  2.000E+04 -1.124E-01
   1   14   21     1    21    1.3196E+05 -2.0096E+03   1.3397E+05  0.000E+00  0.000E+00  0.000E+00  3.88875E+01  1.716E-01  2.000E+01  2.000E+04 -1.005E-01
   1   14   22     1    22    1.3397E+05  4.8271E+03   1.2914E+05  0.000E+00  0.000E+00  0.000E+00  3.84092E+01  1.705E-01  2.000E+01  2.000E+04  2.414E-01
   1    9   30     2     1    5.0000E+04 -2.8281E+02   5.0283E+04  0.000E+00  0.000E+00  0.000E+00  4.02411E+01  1.161E-01  2.000E+01  2.000E+04 -1.414E-02
   1    9   29     2     2    5.0283E+04 -5.6185E+02   5.0845E+04  0.000E+00  0.000E+00  0.000E+00  3.99916E+01  1.166E-01  2.000E+01  2.000E+04 -2.809E-02
   1    9   28     2     3    5.0845E+04 -8.1279E+02   5.1657E+04  0.000E+00  0.000E+00  0.000E+00  3.97426E+01  1.176E-01  2.000E+01  2.000E+04 -4.064E-02
   1    9   27     2     4    5.1657E+04 -2.3324E+03   5.3990E+04  0.000E+00  0.000E+00  0.000E+00  3.94947E+01  1.197E-01  2.000E+01  2.000E+04 -1.166E-01
   1   10   26     2     5    5.3990E+04  1.8409E+02   5.3806E+04  0.000E+00  0.000E+00  0.000E+00  3.92462E+01  1.212E-01  2.000E+01  2.000E+04  9.204E-03
   1   11   25     2     6    5.3806E+04  1.4555E+03   5.2350E+04  0.000E+00  0.000E+00  0.000E+00  3.89951E+01  1.201E-01  2.000E+01  2.000E+04  7.278E-02
   1   12   24     2     7    5.2350E+04 -1.8017E+02   5.2530E+04  0.000E+00  0.000E+00  0.000E+00  3.87442E+01  1.192E-01  2.000E+01  2.000E+04 -9.008E-03
   1   13   23     2     8    5.2530E+04 -3.3454E+02   5.2865E+04  0.000E+00  0.000E+00  0.000E+00  3.84946E+01  1.196E-01  2.000E+01  2.000E+04 -1.673E-02
   1   14   22     2     9    5.2865E+04  1.5193E+03   5.1346E+04  0.000E+00  0.000E+00  0.000E+00  3.82438E+01  1.188E-01  2.000E+01  2.000E+04  7.597E-02
   1   14   22     3     1    1.8048E+05 -8.7740E+03   1.8926E+05  0.000E+00  0.000E+00  0.000E+00  3.77291E+01  1.735E-01  2.000E+01  2.000E+04 -4.387E-01
   1   15   23     3     2    1.8926E+05 -6.5298E+02   1.8991E+05  0.000E+00  0.000E+00  0.000E+00  3.68429E+01  1.762E-01  2.000E+01  2.000E+04 -3.265E-02
   1   15   24     3     3    1.8991E+05 -3.5192E+02   1.9026E+05  0.000E+00  0.000E+00  0.000E+00  3.59542E+01  1.765E-01  2.000E+01  2.000E+04 -1.760E-02
   1   15   25     3     4    1.9026E+05 -2.8574E+02   1.9055E+05  0.000E+00  0.000E+00  0.000E+00  3.50655E+01  1.766E-01  2.000E+01  2.000E+04 -1.429E-02
   1   15   26     3     5    1.9055E+05  1.0337E+01   1.9054E+05  0.000E+00  0.000E+00  0.000E+00  3.41767E+01  1.767E-01  2.000E+01  2.000E+04  5.169E-04
   1   16   27     3     6    1.9054E+05  2.2035E+02   1.9032E+05  0.000E+00  0.000E+00  0.000E+00  3.32878E+01  1.767E-01  2.000E+01  2.000E+04  1.102E-02
   1   17   28     3     7    1.9032E+05  1.1345E+03   1.8918E+05  0.000E+00  0.000E+00  0.000E+00  3.23985E+01  1.763E-01  2.000E+01  2.000E+04  5.672E-02
   1   18   29     3     8    1.8918E+05 -2.5660E+03   1.9175E+05  0.000E+00  0.000E+00  0.000E+00  3.15100E+01  1.767E-01  2.000E+01  2.000E+04 -1.283E-01
   1   18   30     3     9    1.9175E+05 -2.6263E+03   1.9438E+05  0.000E+00  0.000E+00  0.000E+00  3.06226E+01  1.781E-01  2.000E+01  2.000E+04 -1.313E-01



1
              HEAD IN LAYER   1 AT END OF TIME STEP   1 IN STRESS PERIOD    6
  ---------------------------------------------------------------------------

          1      2      3      4      5      6      7      8      9     10
         11     12     13     14     15     16     17     18     19     20
         21     22     23     24     25     26     27     28     29     30
 .........................................................................
   1  ****** ****** ****** ****** ****** ****** ****** ****** ****** ******
      ****** ****** ****** ****** ****** ****** ****** ****** ****** ******
      ****** ****** ****** ****** ****** ****** ****** ****** ****** ******
   2  ****** ****** ****** ****** ****** ****** ****** ****** ****** ******
      ****** ****** ****** ****** ****** ****** ****** ****** ****** ******
      ****** ****** ****** ****** ****** ****** ****** ****** ****** ******
   3  ****** ****** ****** ****** ****** ****** ****** ****** ****** ******
      ****** ****** ****** ****** ****** ****** ****** ****** ****** ******
      ****** ****** ****** ****** ****** ****** ****** ****** ****** ******
   4  ****** ****** ****** ****** ****** ****** ****** ****** ****** ******
      ****** ****** ****** ****** ****** ****** ****** ****** ****** ******
      ****** ****** ****** ****** ****** ****** ****** ****** ****** ******
   5  ****** ****** ****** ****** ****** ****** ****** ****** ****** ******
      ****** ****** ****** ****** ****** ****** ****** ****** ****** ******
      ****** ****** ****** ****** ****** ****** ****** ****** ****** ******
   6  ****** ****** ****** ****** ****** ****** ****** ****** ****** ******
      ****** ****** ****** ****** ****** ****** ****** ****** ****** ******
      ****** ****** ****** ****** ****** ****** ****** ****** ****** ******
   7  ****** ****** ****** ****** ****** ****** ****** ****** ****** ******
      ****** ****** ****** ****** ****** ****** ****** ****** ****** ******
      ****** ****** ****** ****** ****** ****** ****** ****** ****** ******
   8  ****** ****** ****** ****** ****** ****** ****** ****** ****** ******
      ****** ****** ****** ****** ****** ****** ****** ****** ****** ******
      ****** ****** ****** ****** ****** ****** ****** ****** ****** ******
   9  ****** ****** ****** ****** ****** ****** ****** ****** ****** ******
      ****** ****** ****** ****** ****** ****** ****** ****** ****** ******
      ****** ****** ****** ****** ****** ****** ****** ****** ****** ******
  10  ****** ****** ****** ****** ****** ****** ****** ****** ****** ******
      ****** ****** ****** ****** ****** ****** ****** ****** ****** ******
      ****** ****** ****** ****** ****** ****** ****** ****** ****** ******
  11  ****** ****** ****** ****** ****** ****** ****** ****** ****** ******
      ****** ****** ****** ****** ****** ****** ****** ****** ****** ******
      ****** ****** ****** ****** ****** ****** ****** ****** ****** ******
  12  ****** ****** ****** ****** ****** ****** ****** ****** ****** ******
      ****** ****** ****** ****** ****** ****** ****** ****** ****** ******
      ****** ****** ****** ****** ****** ****** ****** ****** ****** ******
  13  ****** ****** ****** ****** ****** ****** ****** ****** ****** ******
      ****** ****** ****** ****** ****** ****** ****** ****** ****** ******
      ****** ****** ****** ****** ****** ****** ****** ****** ****** ******
  14  ****** ****** ****** ****** ****** ****** ****** ****** ****** ******
      ****** ****** ****** ****** ****** ****** ****** ****** ****** ******
      ****** ****** ****** ****** ****** ****** ****** ****** ****** ******
  15  ****** ****** ****** ****** ****** ****** ****** ****** ****** ******
      ****** ****** ****** ****** ****** ****** ****** ****** ****** ******
      ****** ****** ****** ****** ****** ****** ****** ****** ****** ******
  16  ****** ****** ****** ****** ****** ****** ****** ****** ****** ******
      ****** ****** ****** ****** ****** ****** ****** ****** ****** ******
      ****** ****** ****** ****** ****** ****** ****** ****** ****** ******
  17  ****** ****** ****** ****** ****** ****** ****** ****** ****** ******
      ****** ****** ****** ****** ****** ****** ****** ****** ****** ******
      ****** ****** ****** ****** ****** ****** ****** ****** ****** ******
  18  ****** ****** ****** ****** ****** ****** ****** ****** ****** ******
      ****** ****** ****** ****** ****** ****** ****** ****** ****** ******
      ****** ****** ****** ****** ****** ****** ****** ****** ****** ******
  19  ****** ****** ****** ****** ****** ****** ****** ****** ****** ******
      ****** ****** ****** ****** ****** ****** ****** ****** ****** ******
      ****** ****** ****** ****** ****** ****** ****** ****** ****** ******
  20  ****** ****** ****** ****** ****** ****** ****** ****** ****** ******
      ****** ****** ****** ****** ****** ****** ****** ****** ****** ******
      ****** ****** ****** ****** ****** ****** ****** ****** ****** ******
  21  ****** ****** ****** ****** ****** ****** ****** ****** ****** ******
      ****** ****** ****** ****** ****** ****** ****** ****** ****** ******
      ****** ****** ****** ****** ****** ****** ****** ****** ****** ******
  22  ****** ****** ****** ****** ****** ****** ****** ****** ****** ******
      ****** ****** ****** ****** ****** ****** ****** ****** ****** ******
      ****** ****** ****** ****** ****** ****** ****** ****** ****** ******
  23  ****** ****** ****** ****** ****** ****** ****** ****** ****** ******
      ****** ****** ****** ****** ****** ****** ****** ****** ****** ******
      ****** ****** ****** ****** ****** ****** ****** ****** ****** ******
  24  ****** ****** ****** ****** ****** ****** ****** ****** ****** ******
      ****** ****** ****** ****** ****** ****** ****** ****** ****** ******
      ****** ****** ****** ****** ****** ****** ****** ****** ****** ******
  25  ****** ****** ****** ****** ****** ****** ****** ****** ****** ******
      ****** ****** ****** ****** ****** ****** ****** ****** ****** ******
      ****** ****** ****** ****** ****** ****** ****** ****** ****** ******

 HEAD WILL BE SAVED ON UNIT   51 AT END OF TIME STEP    1, STRESS PERIOD    6
1
  VOLUMETRIC BUDGET FOR ENTIRE MODEL AT END OF TIME STEP    1, STRESS PERIOD   6
  ------------------------------------------------------------------------------

     CUMULATIVE VOLUMES      L**3       RATES FOR THIS TIME STEP      L**3/T
     ------------------                 ------------------------

           IN:                                      IN:
           ---                                      ---
             STORAGE =    30050544.5387               STORAGE =           0.0000
       CONSTANT HEAD =    12580026.9099         CONSTANT HEAD =       27861.1074
               WELLS =           0.0000                 WELLS =           0.0000
            RECHARGE =    15097200.0000              RECHARGE =       55200.0000
      STREAM LEAKAGE =     4613754.3675        STREAM LEAKAGE =        9420.8009

            TOTAL IN =    62341525.8161              TOTAL IN =       92481.9083

          OUT:                                     OUT:
          ----                                     ----
             STORAGE =      841534.9628               STORAGE =        9242.8226
       CONSTANT HEAD =           0.0000         CONSTANT HEAD =           0.0000
               WELLS =    16134083.0652                 WELLS =       29441.7574
            RECHARGE =           0.0000              RECHARGE =           0.0000
      STREAM LEAKAGE =    45365909.8512        STREAM LEAKAGE =       53797.3254

           TOTAL OUT =    62341527.8792             TOTAL OUT =       92481.9054

            IN - OUT =          -2.0631              IN - OUT =       2.9040E-03

 PERCENT DISCREPANCY =          -0.00     PERCENT DISCREPANCY =           0.00






         TIME SUMMARY AT END OF TIME STEP    1 IN STRESS PERIOD    6
                    SECONDS     MINUTES      HOURS       DAYS        YEARS
                    -----------------------------------------------------------
   TIME STEP LENGTH 7.86240E+06 1.31040E+05  2184.0      91.000     0.24914    
 STRESS PERIOD TIME 7.86240E+06 1.31040E+05  2184.0      91.000     0.24914    
         TOTAL TIME 4.73472E+07 7.89120E+05  13152.      548.00      1.5003    
1
1
                            STRESS PERIOD NO.    7, LENGTH =   91.00000    
                            -----------------------------------------------

                              NUMBER OF TIME STEPS =     1

                               MULTIPLIER FOR DELT =     1.500

                            INITIAL TIME STEP SIZE =   91.00000    

 WELL NO.  LAYER   ROW   COL   STRESS RATE         
 --------------------------------------------------
      1      1     19     11     -0.1013E+05
      2      1     15     28      -7561.    
      3      1     15      7      -2227.    
      4      1     12     26      -9522.    

      4 WELLS

                 RECHARGE =   0.00000    

 REUSING STREAM SEGMENT DATA FROM LAST STRESS PERIOD
 
 SOLVING FOR HEAD 


     7 CALLS TO PCG ROUTINE FOR TIME STEP   1 IN STRESS PERIOD    7
    26 TOTAL ITERATIONS

 OUTPUT CONTROL FOR STRESS PERIOD    7   TIME STEP    1
    SAVE BUDGET
    SAVE HEAD FOR ALL LAYERS
    PRINT HEAD FOR ALL LAYERS
 UBDSV2 SAVING "STREAMFLOW OUT  " ON UNIT  50 AT TIME STEP  1, STRESS PERIOD   7



 STREAM LISTING     PERIOD      7   STEP        1

 LAYER ROW COL. STREAM  RCH.  FLOW INTO     FLOW TO   FLOW OUT OF   OVRLND.     DIRECT     STREAM       STREAM     STREAM     STREAM   STREAMBED  STREAMBED
                SEG.NO.  NO.  STRM. RCH.    AQUIFER    STRM. RCH.    RUNOFF     PRECIP       ET          HEAD       DEPTH      WIDTH   CONDCTNC.   GRADIENT

   1   13    1     1     1    1.0000E+05 -1.7241E+03   1.0172E+05  0.000E+00  0.000E+00  0.000E+00  4.84068E+01  1.454E-01  2.000E+01  2.000E+04 -8.620E-02
   1   13    2     1     2    1.0172E+05 -2.6838E+03   1.0441E+05  0.000E+00  0.000E+00  0.000E+00  4.79314E+01  1.473E-01  2.000E+01  2.000E+04 -1.342E-01
   1   14    3     1     3    1.0441E+05 -3.5364E+02   1.0476E+05  0.000E+00  0.000E+00  0.000E+00  4.74554E+01  1.486E-01  2.000E+01  2.000E+04 -1.768E-02
   1   15    4     1     4    1.0476E+05 -2.5964E+02   1.0502E+05  0.000E+00  0.000E+00  0.000E+00  4.69784E+01  1.489E-01  2.000E+01  2.000E+04 -1.298E-02
   1   16    5     1     5    1.0502E+05 -9.1141E+02   1.0593E+05  0.000E+00  0.000E+00  0.000E+00  4.65016E+01  1.494E-01  2.000E+01  2.000E+04 -4.557E-02
   1   16    6     1     6    1.0593E+05 -2.9307E+02   1.0623E+05  0.000E+00  0.000E+00  0.000E+00  4.60249E+01  1.499E-01  2.000E+01  2.000E+04 -1.465E-02
   1   16    7     1     7    1.0623E+05  5.0691E+02   1.0572E+05  0.000E+00  0.000E+00  0.000E+00  4.55475E+01  1.498E-01  2.000E+01  2.000E+04  2.535E-02
   1   16    8     1     8    1.0572E+05 -4.8638E+01   1.0577E+05  0.000E+00  0.000E+00  0.000E+00  4.50700E+01  1.496E-01  2.000E+01  2.000E+04 -2.432E-03
   1   16    9     1     9    1.0577E+05 -4.3462E+01   1.0581E+05  0.000E+00  0.000E+00  0.000E+00  4.45928E+01  1.496E-01  2.000E+01  2.000E+04 -2.173E-03
   1   16   10     1    10    1.0581E+05  1.5318E+02   1.0566E+05  0.000E+00  0.000E+00  0.000E+00  4.41155E+01  1.496E-01  2.000E+01  2.000E+04  7.659E-03
   1   16   11     1    11    1.0566E+05  3.2016E+02   1.0534E+05  0.000E+00  0.000E+00  0.000E+00  4.36380E+01  1.494E-01  2.000E+01  2.000E+04  1.601E-02
   1   16   12     1    12    1.0534E+05 -1.8082E+02   1.0552E+05  0.000E+00  0.000E+00  0.000E+00  4.31607E+01  1.493E-01  2.000E+01  2.000E+04 -9.041E-03
   1   15   13     1    13    1.0552E+05 -9.9481E+02   1.0651E+05  0.000E+00  0.000E+00  0.000E+00  4.26839E+01  1.498E-01  2.000E+01  2.000E+04 -4.974E-02
   1   14   14     1    14    1.0651E+05 -1.5738E+03   1.0809E+05  0.000E+00  0.000E+00  0.000E+00  4.22077E+01  1.509E-01  2.000E+01  2.000E+04 -7.869E-02
   1   13   15     1    15    1.0809E+05 -2.0473E+03   1.1013E+05  0.000E+00  0.000E+00  0.000E+00  4.17320E+01  1.524E-01  2.000E+01  2.000E+04 -1.024E-01
   1   12   16     1    16    1.1013E+05 -2.8476E+03   1.1298E+05  0.000E+00  0.000E+00  0.000E+00  4.12567E+01  1.545E-01  2.000E+01  2.000E+04 -1.424E-01
   1   12   17     1    17    1.1298E+05 -1.8082E+03   1.1479E+05  0.000E+00  0.000E+00  0.000E+00  4.07814E+01  1.564E-01  2.000E+01  2.000E+04 -9.041E-02
   1   12   18     1    18    1.1479E+05 -1.7214E+03   1.1651E+05  0.000E+00  0.000E+00  0.000E+00  4.03056E+01  1.578E-01  2.000E+01  2.000E+04 -8.607E-02
   1   12   19     1    19    1.1651E+05 -2.2746E+03   1.1879E+05  0.000E+00  0.000E+00  0.000E+00  3.98299E+01  1.595E-01  2.000E+01  2.000E+04 -1.137E-01
   1   13   20     1    20    1.1879E+05 -1.5832E+03   1.2037E+05  0.000E+00  0.000E+00  0.000E+00  3.93542E+01  1.610E-01  2.000E+01  2.000E+04 -7.916E-02
   1   14   21     1    21    1.2037E+05 -1.3509E+03   1.2172E+05  0.000E+00  0.000E+00  0.000E+00  3.88781E+01  1.622E-01  2.000E+01  2.000E+04 -6.755E-02
   1   14   22     1    22    1.2172E+05  4.9871E+03   1.1673E+05  0.000E+00  0.000E+00  0.000E+00  3.83994E+01  1.607E-01  2.000E+01  2.000E+04  2.494E-01
   1    9   30     2     1    5.0000E+04  2.2866E+02   4.9771E+04  0.000E+00  0.000E+00  0.000E+00  4.02407E+01  1.157E-01  2.000E+01  2.000E+04  1.143E-02
   1    9   29     2     2    4.9771E+04 -5.2313E+01   4.9824E+04  0.000E+00  0.000E+00  0.000E+00  3.99906E+01  1.156E-01  2.000E+01  2.000E+04 -2.616E-03
   1    9   28     2     3    4.9824E+04 -3.0230E+02   5.0126E+04  0.000E+00  0.000E+00  0.000E+00  3.97408E+01  1.158E-01  2.000E+01  2.000E+04 -1.512E-02
   1    9   27     2     4    5.0126E+04 -1.6406E+03   5.1767E+04  0.000E+00  0.000E+00  0.000E+00  3.94922E+01  1.172E-01  2.000E+01  2.000E+04 -8.203E-02
   1   10   26     2     5    5.1767E+04  8.7894E+02   5.0888E+04  0.000E+00  0.000E+00  0.000E+00  3.92427E+01  1.177E-01  2.000E+01  2.000E+04  4.395E-02
   1   11   25     2     6    5.0888E+04  2.1221E+03   4.8766E+04  0.000E+00  0.000E+00  0.000E+00  3.89906E+01  1.156E-01  2.000E+01  2.000E+04  1.061E-01
   1   12   24     2     7    4.8766E+04  4.2721E+02   4.8338E+04  0.000E+00  0.000E+00  0.000E+00  3.87388E+01  1.138E-01  2.000E+01  2.000E+04  2.136E-02
   1   13   23     2     8    4.8338E+04 -1.4332E+02   4.8482E+04  0.000E+00  0.000E+00  0.000E+00  3.84886E+01  1.136E-01  2.000E+01  2.000E+04 -7.166E-03
   1   14   22     2     9    4.8482E+04  1.7495E+03   4.6732E+04  0.000E+00  0.000E+00  0.000E+00  3.82375E+01  1.125E-01  2.000E+01  2.000E+04  8.748E-02
   1   14   22     3     1    1.6347E+05 -8.6148E+03   1.7208E+05  0.000E+00  0.000E+00  0.000E+00  3.77193E+01  1.637E-01  2.000E+01  2.000E+04 -4.307E-01
   1   15   23     3     2    1.7208E+05 -4.4718E+02   1.7253E+05  0.000E+00  0.000E+00  0.000E+00  3.68330E+01  1.664E-01  2.000E+01  2.000E+04 -2.236E-02
   1   15   24     3     3    1.7253E+05 -1.7872E+02   1.7271E+05  0.000E+00  0.000E+00  0.000E+00  3.59443E+01  1.666E-01  2.000E+01  2.000E+04 -8.936E-03
   1   15   25     3     4    1.7271E+05 -1.0943E+02   1.7282E+05  0.000E+00  0.000E+00  0.000E+00  3.50555E+01  1.666E-01  2.000E+01  2.000E+04 -5.471E-03
   1   15   26     3     5    1.7282E+05  2.1132E+02   1.7260E+05  0.000E+00  0.000E+00  0.000E+00  3.41666E+01  1.666E-01  2.000E+01  2.000E+04  1.057E-02
   1   16   27     3     6    1.7260E+05  4.5220E+02   1.7215E+05  0.000E+00  0.000E+00  0.000E+00  3.32775E+01  1.664E-01  2.000E+01  2.000E+04  2.261E-02
   1   17   28     3     7    1.7215E+05  1.7743E+03   1.7038E+05  0.000E+00  0.000E+00  0.000E+00  3.23880E+01  1.658E-01  2.000E+01  2.000E+04  8.871E-02
   1   18   29     3     8    1.7038E+05 -1.8836E+03   1.7226E+05  0.000E+00  0.000E+00  0.000E+00  3.14991E+01  1.658E-01  2.000E+01  2.000E+04 -9.418E-02
   1   18   30     3     9    1.7226E+05 -2.1001E+03   1.7436E+05  0.000E+00  0.000E+00  0.000E+00  3.06114E+01  1.670E-01  2.000E+01  2.000E+04 -1.050E-01



1
              HEAD IN LAYER   1 AT END OF TIME STEP   1 IN STRESS PERIOD    7
  ---------------------------------------------------------------------------

          1      2      3      4      5      6      7      8      9     10
         11     12     13     14     15     16     17     18     19     20
         21     22     23     24     25     26     27     28     29     30
 .........................................................................
   1  ****** ****** ****** ****** ****** ****** ****** ****** ****** ******
      ****** ****** ****** ****** ****** ****** ****** ****** ****** ******
      ****** ****** ****** ****** ****** ****** ****** ****** ****** ******
   2  ****** ****** ****** ****** ****** ****** ****** ****** ****** ******
      ****** ****** ****** ****** ****** ****** ****** ****** ****** ******
      ****** ****** ****** ****** ****** ****** ****** ****** ****** ******
   3  ****** ****** ****** ****** ****** ****** ****** ****** ****** ******
      ****** ****** ****** ****** ****** ****** ****** ****** ****** ******
      ****** ****** ****** ****** ****** ****** ****** ****** ****** ******
   4  ****** ****** ****** ****** ****** ****** ****** ****** ****** ******
      ****** ****** ****** ****** ****** ****** ****** ****** ****** ******
      ****** ****** ****** ****** ****** ****** ****** ****** ****** ******
   5  ****** ****** ****** ****** ****** ****** ****** ****** ****** ******
      ****** ****** ****** ****** ****** ****** ****** ****** ****** ******
      ****** ****** ****** ****** ****** ****** ****** ****** ****** ******
   6  ****** ****** ****** ****** ****** ****** ****** ****** ****** ******
      ****** ****** ****** ****** ****** ****** ****** ****** ****** ******
      ****** ****** ****** ****** ****** ****** ****** ****** ****** ******
   7  ****** ****** ****** ****** ****** ****** ****** ****** ****** ******
      ****** ****** ****** ****** ****** ****** ****** ****** ****** ******
      ****** ****** ****** ****** ****** ****** ****** ****** ****** ******
   8  ****** ****** ****** ****** ****** ****** ****** ****** ****** ******
      ****** ****** ****** ****** ****** ****** ****** ****** ****** ******
      ****** ****** ****** ****** ****** ****** ****** ****** ****** ******
   9  ****** ****** ****** ****** ****** ****** ****** ****** ****** ******
      ****** ****** ****** ****** ****** ****** ****** ****** ****** ******
      ****** ****** ****** ****** ****** ****** ****** ****** ****** ******
  10  ****** ****** ****** ****** ****** ****** ****** ****** ****** ******
      ****** ****** ****** ****** ****** ****** ****** ****** ****** ******
      ****** ****** ****** ****** ****** ****** ****** ****** ****** ******
  11  ****** ****** ****** ****** ****** ****** ****** ****** ****** ******
      ****** ****** ****** ****** ****** ****** ****** ****** ****** ******
      ****** ****** ****** ****** ****** ****** ****** ****** ****** ******
  12  ****** ****** ****** ****** ****** ****** ****** ****** ****** ******
      ****** ****** ****** ****** ****** ****** ****** ****** ****** ******
      ****** ****** ****** ****** ****** ****** ****** ****** ****** ******
  13  ****** ****** ****** ****** ****** ****** ****** ****** ****** ******
      ****** ****** ****** ****** ****** ****** ****** ****** ****** ******
      ****** ****** ****** ****** ****** ****** ****** ****** ****** ******
  14  ****** ****** ****** ****** ****** ****** ****** ****** ****** ******
      ****** ****** ****** ****** ****** ****** ****** ****** ****** ******
      ****** ****** ****** ****** ****** ****** ****** ****** ****** ******
  15  ****** ****** ****** ****** ****** ****** ****** ****** ****** ******
      ****** ****** ****** ****** ****** ****** ****** ****** ****** ******
      ****** ****** ****** ****** ****** ****** ****** ****** ****** ******
  16  ****** ****** ****** ****** ****** ****** ****** ****** ****** ******
      ****** ****** ****** ****** ****** ****** ****** ****** ****** ******
      ****** ****** ****** ****** ****** ****** ****** ****** ****** ******
  17  ****** ****** ****** ****** ****** ****** ****** ****** ****** ******
      ****** ****** ****** ****** ****** ****** ****** ****** ****** ******
      ****** ****** ****** ****** ****** ****** ****** ****** ****** ******
  18  ****** ****** ****** ****** ****** ****** ****** ****** ****** ******
      ****** ****** ****** ****** ****** ****** ****** ****** ****** ******
      ****** ****** ****** ****** ****** ****** ****** ****** ****** ******
  19  ****** ****** ****** ****** ****** ****** ****** ****** ****** ******
      ****** ****** ****** ****** ****** ****** ****** ****** ****** ******
      ****** ****** ****** ****** ****** ****** ****** ****** ****** ******
  20  ****** ****** ****** ****** ****** ****** ****** ****** ****** ******
      ****** ****** ****** ****** ****** ****** ****** ****** ****** ******
      ****** ****** ****** ****** ****** ****** ****** ****** ****** ******
  21  ****** ****** ****** ****** ****** ****** ****** ****** ****** ******
      ****** ****** ****** ****** ****** ****** ****** ****** ****** ******
      ****** ****** ****** ****** ****** ****** ****** ****** ****** ******
  22  ****** ****** ****** ****** ****** ****** ****** ****** ****** ******
      ****** ****** ****** ****** ****** ****** ****** ****** ****** ******
      ****** ****** ****** ****** ****** ****** ****** ****** ****** ******
  23  ****** ****** ****** ****** ****** ****** ****** ****** ****** ******
      ****** ****** ****** ****** ****** ****** ****** ****** ****** ******
      ****** ****** ****** ****** ****** ****** ****** ****** ****** ******
  24  ****** ****** ****** ****** ****** ****** ****** ****** ****** ******
      ****** ****** ****** ****** ****** ****** ****** ****** ****** ******
      ****** ****** ****** ****** ****** ****** ****** ****** ****** ******
  25  ****** ****** ****** ****** ****** ****** ****** ****** ****** ******
      ****** ****** ****** ****** ****** ****** ****** ****** ****** ******
      ****** ****** ****** ****** ****** ****** ****** ****** ****** ******

 HEAD WILL BE SAVED ON UNIT   51 AT END OF TIME STEP    1, STRESS PERIOD    7
1
  VOLUMETRIC BUDGET FOR ENTIRE MODEL AT END OF TIME STEP    1, STRESS PERIOD   7
  ------------------------------------------------------------------------------

     CUMULATIVE VOLUMES      L**3       RATES FOR THIS TIME STEP      L**3/T
     ------------------                 ------------------------

           IN:                                      IN:
           ---                                      ---
             STORAGE =    32057900.9794               STORAGE =       22058.8620
       CONSTANT HEAD =    15468732.0448         CONSTANT HEAD =       31744.0125
               WELLS =           0.0000                 WELLS =           0.0000
            RECHARGE =    15097200.0000              RECHARGE =           0.0000
      STREAM LEAKAGE =     5870608.1625        STREAM LEAKAGE =       13811.5802

            TOTAL IN =    68494441.1867              TOTAL IN =       67614.4546

          OUT:                                     OUT:
          ----                                     ----
             STORAGE =      841534.9628               STORAGE =           0.0000
       CONSTANT HEAD =           0.0000         CONSTANT HEAD =           0.0000
               WELLS =    18813282.9902                 WELLS =       29441.7574
            RECHARGE =           0.0000              RECHARGE =           0.0000
      STREAM LEAKAGE =    48839625.7976        STREAM LEAKAGE =       38172.7027

           TOTAL OUT =    68494443.7506             TOTAL OUT =       67614.4601

            IN - OUT =          -2.5638              IN - OUT =      -5.5028E-03

 PERCENT DISCREPANCY =          -0.00     PERCENT DISCREPANCY =          -0.00






         TIME SUMMARY AT END OF TIME STEP    1 IN STRESS PERIOD    7
                    SECONDS     MINUTES      HOURS       DAYS        YEARS
                    -----------------------------------------------------------
   TIME STEP LENGTH 7.86240E+06 1.31040E+05  2184.0      91.000     0.24914    
 STRESS PERIOD TIME 7.86240E+06 1.31040E+05  2184.0      91.000     0.24914    
         TOTAL TIME 5.52096E+07 9.20160E+05  15336.      639.00      1.7495    
1
1
                            STRESS PERIOD NO.    8, LENGTH =   91.00000    
                            -----------------------------------------------

                              NUMBER OF TIME STEPS =     1

                               MULTIPLIER FOR DELT =     1.500

                            INITIAL TIME STEP SIZE =   91.00000    

 WELL NO.  LAYER   ROW   COL   STRESS RATE         
 --------------------------------------------------
      1      1     19     11     -0.1013E+05
      2      1     15     28      -7561.    
      3      1     15      7      -2227.    
      4      1     12     26      -9522.    

      4 WELLS

                 RECHARGE =  1.000000E-03

 REUSING STREAM SEGMENT DATA FROM LAST STRESS PERIOD
 
 SOLVING FOR HEAD 


     6 CALLS TO PCG ROUTINE FOR TIME STEP   1 IN STRESS PERIOD    8
    22 TOTAL ITERATIONS

 OUTPUT CONTROL FOR STRESS PERIOD    8   TIME STEP    1
    SAVE BUDGET
    SAVE HEAD FOR ALL LAYERS
    PRINT HEAD FOR ALL LAYERS
 UBDSV2 SAVING "STREAMFLOW OUT  " ON UNIT  50 AT TIME STEP  1, STRESS PERIOD   8



 STREAM LISTING     PERIOD      8   STEP        1

 LAYER ROW COL. STREAM  RCH.  FLOW INTO     FLOW TO   FLOW OUT OF   OVRLND.     DIRECT     STREAM       STREAM     STREAM     STREAM   STREAMBED  STREAMBED
                SEG.NO.  NO.  STRM. RCH.    AQUIFER    STRM. RCH.    RUNOFF     PRECIP       ET          HEAD       DEPTH      WIDTH   CONDCTNC.   GRADIENT

   1   13    1     1     1    1.0000E+05 -1.8026E+03   1.0180E+05  0.000E+00  0.000E+00  0.000E+00  4.84068E+01  1.454E-01  2.000E+01  2.000E+04 -9.013E-02
   1   13    2     1     2    1.0180E+05 -2.7625E+03   1.0457E+05  0.000E+00  0.000E+00  0.000E+00  4.79315E+01  1.474E-01  2.000E+01  2.000E+04 -1.381E-01
   1   14    3     1     3    1.0457E+05 -4.1808E+02   1.0498E+05  0.000E+00  0.000E+00  0.000E+00  4.74556E+01  1.488E-01  2.000E+01  2.000E+04 -2.090E-02
   1   15    4     1     4    1.0498E+05 -3.2843E+02   1.0531E+05  0.000E+00  0.000E+00  0.000E+00  4.69786E+01  1.491E-01  2.000E+01  2.000E+04 -1.642E-02
   1   16    5     1     5    1.0531E+05 -1.0838E+03   1.0640E+05  0.000E+00  0.000E+00  0.000E+00  4.65019E+01  1.497E-01  2.000E+01  2.000E+04 -5.419E-02
   1   16    6     1     6    1.0640E+05 -3.9952E+02   1.0679E+05  0.000E+00  0.000E+00  0.000E+00  4.60253E+01  1.503E-01  2.000E+01  2.000E+04 -1.998E-02
   1   16    7     1     7    1.0679E+05  4.0531E+02   1.0639E+05  0.000E+00  0.000E+00  0.000E+00  4.55480E+01  1.503E-01  2.000E+01  2.000E+04  2.027E-02
   1   16    8     1     8    1.0639E+05 -1.4950E+02   1.0654E+05  0.000E+00  0.000E+00  0.000E+00  4.50706E+01  1.502E-01  2.000E+01  2.000E+04 -7.475E-03
   1   16    9     1     9    1.0654E+05 -1.4557E+02   1.0668E+05  0.000E+00  0.000E+00  0.000E+00  4.45935E+01  1.503E-01  2.000E+01  2.000E+04 -7.278E-03
   1   16   10     1    10    1.0668E+05  4.8501E+01   1.0664E+05  0.000E+00  0.000E+00  0.000E+00  4.41163E+01  1.504E-01  2.000E+01  2.000E+04  2.425E-03
   1   16   11     1    11    1.0664E+05  2.1238E+02   1.0642E+05  0.000E+00  0.000E+00  0.000E+00  4.36389E+01  1.502E-01  2.000E+01  2.000E+04  1.062E-02
   1   16   12     1    12    1.0642E+05 -3.4266E+02   1.0677E+05  0.000E+00  0.000E+00  0.000E+00  4.31617E+01  1.503E-01  2.000E+01  2.000E+04 -1.713E-02
   1   15   13     1    13    1.0677E+05 -1.1650E+03   1.0793E+05  0.000E+00  0.000E+00  0.000E+00  4.26850E+01  1.509E-01  2.000E+01  2.000E+04 -5.825E-02
   1   14   14     1    14    1.0793E+05 -1.7380E+03   1.0967E+05  0.000E+00  0.000E+00  0.000E+00  4.22090E+01  1.522E-01  2.000E+01  2.000E+04 -8.690E-02
   1   13   15     1    15    1.0967E+05 -2.1996E+03   1.1187E+05  0.000E+00  0.000E+00  0.000E+00  4.17334E+01  1.538E-01  2.000E+01  2.000E+04 -1.100E-01
   1   12   16     1    16    1.1187E+05 -2.9633E+03   1.1483E+05  0.000E+00  0.000E+00  0.000E+00  4.12582E+01  1.559E-01  2.000E+01  2.000E+04 -1.482E-01
   1   12   17     1    17    1.1483E+05 -1.9220E+03   1.1675E+05  0.000E+00  0.000E+00  0.000E+00  4.07830E+01  1.580E-01  2.000E+01  2.000E+04 -9.610E-02
   1   12   18     1    18    1.1675E+05 -1.8416E+03   1.1860E+05  0.000E+00  0.000E+00  0.000E+00  4.03072E+01  1.595E-01  2.000E+01  2.000E+04 -9.208E-02
   1   12   19     1    19    1.1860E+05 -2.4262E+03   1.2102E+05  0.000E+00  0.000E+00  0.000E+00  3.98317E+01  1.612E-01  2.000E+01  2.000E+04 -1.213E-01
   1   13   20     1    20    1.2102E+05 -1.7628E+03   1.2278E+05  0.000E+00  0.000E+00  0.000E+00  3.93561E+01  1.629E-01  2.000E+01  2.000E+04 -8.814E-02
   1   14   21     1    21    1.2278E+05 -1.5105E+03   1.2430E+05  0.000E+00  0.000E+00  0.000E+00  3.88801E+01  1.642E-01  2.000E+01  2.000E+04 -7.552E-02
   1   14   22     1    22    1.2430E+05  4.9382E+03   1.1936E+05  0.000E+00  0.000E+00  0.000E+00  3.84015E+01  1.628E-01  2.000E+01  2.000E+04  2.469E-01
   1    9   30     2     1    5.0000E+04  6.4609E+01   4.9935E+04  0.000E+00  0.000E+00  0.000E+00  4.02408E+01  1.158E-01  2.000E+01  2.000E+04  3.230E-03
   1    9   29     2     2    4.9935E+04 -2.1362E+02   5.0149E+04  0.000E+00  0.000E+00  0.000E+00  3.99909E+01  1.159E-01  2.000E+01  2.000E+04 -1.068E-02
   1    9   28     2     3    5.0149E+04 -4.5819E+02   5.0607E+04  0.000E+00  0.000E+00  0.000E+00  3.97414E+01  1.164E-01  2.000E+01  2.000E+04 -2.291E-02
   1    9   27     2     4    5.0607E+04 -1.8207E+03   5.2428E+04  0.000E+00  0.000E+00  0.000E+00  3.94930E+01  1.180E-01  2.000E+01  2.000E+04 -9.104E-02
   1   10   26     2     5    5.2428E+04  6.7216E+02   5.1756E+04  0.000E+00  0.000E+00  0.000E+00  3.92438E+01  1.188E-01  2.000E+01  2.000E+04  3.361E-02
   1   11   25     2     6    5.1756E+04  1.9170E+03   4.9839E+04  0.000E+00  0.000E+00  0.000E+00  3.89920E+01  1.170E-01  2.000E+01  2.000E+04  9.585E-02
   1   12   24     2     7    4.9839E+04  2.4104E+02   4.9598E+04  0.000E+00  0.000E+00  0.000E+00  3.87405E+01  1.155E-01  2.000E+01  2.000E+04  1.205E-02
   1   13   23     2     8    4.9598E+04 -2.1777E+02   4.9816E+04  0.000E+00  0.000E+00  0.000E+00  3.84905E+01  1.155E-01  2.000E+01  2.000E+04 -1.089E-02
   1   14   22     2     9    4.9816E+04  1.6971E+03   4.8118E+04  0.000E+00  0.000E+00  0.000E+00  3.82394E+01  1.144E-01  2.000E+01  2.000E+04  8.486E-02
   1   14   22     3     1    1.6748E+05 -8.6586E+03   1.7613E+05  0.000E+00  0.000E+00  0.000E+00  3.77216E+01  1.661E-01  2.000E+01  2.000E+04 -4.329E-01
   1   15   23     3     2    1.7613E+05 -5.1157E+02   1.7665E+05  0.000E+00  0.000E+00  0.000E+00  3.68354E+01  1.687E-01  2.000E+01  2.000E+04 -2.558E-02
   1   15   24     3     3    1.7665E+05 -2.3936E+02   1.7689E+05  0.000E+00  0.000E+00  0.000E+00  3.59467E+01  1.689E-01  2.000E+01  2.000E+04 -1.197E-02
   1   15   25     3     4    1.7689E+05 -1.7179E+02   1.7706E+05  0.000E+00  0.000E+00  0.000E+00  3.50579E+01  1.691E-01  2.000E+01  2.000E+04 -8.590E-03
   1   15   26     3     5    1.7706E+05  1.3658E+02   1.7692E+05  0.000E+00  0.000E+00  0.000E+00  3.41691E+01  1.691E-01  2.000E+01  2.000E+04  6.829E-03
   1   16   27     3     6    1.7692E+05  3.7021E+02   1.7655E+05  0.000E+00  0.000E+00  0.000E+00  3.32800E+01  1.689E-01  2.000E+01  2.000E+04  1.851E-02
   1   17   28     3     7    1.7655E+05  1.5700E+03   1.7498E+05  0.000E+00  0.000E+00  0.000E+00  3.23906E+01  1.684E-01  2.000E+01  2.000E+04  7.850E-02
   1   18   29     3     8    1.7498E+05 -2.0503E+03   1.7703E+05  0.000E+00  0.000E+00  0.000E+00  3.15018E+01  1.685E-01  2.000E+01  2.000E+04 -1.025E-01
   1   18   30     3     9    1.7703E+05 -2.2475E+03   1.7928E+05  0.000E+00  0.000E+00  0.000E+00  3.06142E+01  1.697E-01  2.000E+01  2.000E+04 -1.124E-01



1
              HEAD IN LAYER   1 AT END OF TIME STEP   1 IN STRESS PERIOD    8
  ---------------------------------------------------------------------------

          1      2      3      4      5      6      7      8      9     10
         11     12     13     14     15     16     17     18     19     20
         21     22     23     24     25     26     27     28     29     30
 .........................................................................
   1  ****** ****** ****** ****** ****** ****** ****** ****** ****** ******
      ****** ****** ****** ****** ****** ****** ****** ****** ****** ******
      ****** ****** ****** ****** ****** ****** ****** ****** ****** ******
   2  ****** ****** ****** ****** ****** ****** ****** ****** ****** ******
      ****** ****** ****** ****** ****** ****** ****** ****** ****** ******
      ****** ****** ****** ****** ****** ****** ****** ****** ****** ******
   3  ****** ****** ****** ****** ****** ****** ****** ****** ****** ******
      ****** ****** ****** ****** ****** ****** ****** ****** ****** ******
      ****** ****** ****** ****** ****** ****** ****** ****** ****** ******
   4  ****** ****** ****** ****** ****** ****** ****** ****** ****** ******
      ****** ****** ****** ****** ****** ****** ****** ****** ****** ******
      ****** ****** ****** ****** ****** ****** ****** ****** ****** ******
   5  ****** ****** ****** ****** ****** ****** ****** ****** ****** ******
      ****** ****** ****** ****** ****** ****** ****** ****** ****** ******
      ****** ****** ****** ****** ****** ****** ****** ****** ****** ******
   6  ****** ****** ****** ****** ****** ****** ****** ****** ****** ******
      ****** ****** ****** ****** ****** ****** ****** ****** ****** ******
      ****** ****** ****** ****** ****** ****** ****** ****** ****** ******
   7  ****** ****** ****** ****** ****** ****** ****** ****** ****** ******
      ****** ****** ****** ****** ****** ****** ****** ****** ****** ******
      ****** ****** ****** ****** ****** ****** ****** ****** ****** ******
   8  ****** ****** ****** ****** ****** ****** ****** ****** ****** ******
      ****** ****** ****** ****** ****** ****** ****** ****** ****** ******
      ****** ****** ****** ****** ****** ****** ****** ****** ****** ******
   9  ****** ****** ****** ****** ****** ****** ****** ****** ****** ******
      ****** ****** ****** ****** ****** ****** ****** ****** ****** ******
      ****** ****** ****** ****** ****** ****** ****** ****** ****** ******
  10  ****** ****** ****** ****** ****** ****** ****** ****** ****** ******
      ****** ****** ****** ****** ****** ****** ****** ****** ****** ******
      ****** ****** ****** ****** ****** ****** ****** ****** ****** ******
  11  ****** ****** ****** ****** ****** ****** ****** ****** ****** ******
      ****** ****** ****** ****** ****** ****** ****** ****** ****** ******
      ****** ****** ****** ****** ****** ****** ****** ****** ****** ******
  12  ****** ****** ****** ****** ****** ****** ****** ****** ****** ******
      ****** ****** ****** ****** ****** ****** ****** ****** ****** ******
      ****** ****** ****** ****** ****** ****** ****** ****** ****** ******
  13  ****** ****** ****** ****** ****** ****** ****** ****** ****** ******
      ****** ****** ****** ****** ****** ****** ****** ****** ****** ******
      ****** ****** ****** ****** ****** ****** ****** ****** ****** ******
  14  ****** ****** ****** ****** ****** ****** ****** ****** ****** ******
      ****** ****** ****** ****** ****** ****** ****** ****** ****** ******
      ****** ****** ****** ****** ****** ****** ****** ****** ****** ******
  15  ****** ****** ****** ****** ****** ****** ****** ****** ****** ******
      ****** ****** ****** ****** ****** ****** ****** ****** ****** ******
      ****** ****** ****** ****** ****** ****** ****** ****** ****** ******
  16  ****** ****** ****** ****** ****** ****** ****** ****** ****** ******
      ****** ****** ****** ****** ****** ****** ****** ****** ****** ******
      ****** ****** ****** ****** ****** ****** ****** ****** ****** ******
  17  ****** ****** ****** ****** ****** ****** ****** ****** ****** ******
      ****** ****** ****** ****** ****** ****** ****** ****** ****** ******
      ****** ****** ****** ****** ****** ****** ****** ****** ****** ******
  18  ****** ****** ****** ****** ****** ****** ****** ****** ****** ******
      ****** ****** ****** ****** ****** ****** ****** ****** ****** ******
      ****** ****** ****** ****** ****** ****** ****** ****** ****** ******
  19  ****** ****** ****** ****** ****** ****** ****** ****** ****** ******
      ****** ****** ****** ****** ****** ****** ****** ****** ****** ******
      ****** ****** ****** ****** ****** ****** ****** ****** ****** ******
  20  ****** ****** ****** ****** ****** ****** ****** ****** ****** ******
      ****** ****** ****** ****** ****** ****** ****** ****** ****** ******
      ****** ****** ****** ****** ****** ****** ****** ****** ****** ******
  21  ****** ****** ****** ****** ****** ****** ****** ****** ****** ******
      ****** ****** ****** ****** ****** ****** ****** ****** ****** ******
      ****** ****** ****** ****** ****** ****** ****** ****** ****** ******
  22  ****** ****** ****** ****** ****** ****** ****** ****** ****** ******
      ****** ****** ****** ****** ****** ****** ****** ****** ****** ******
      ****** ****** ****** ****** ****** ****** ****** ****** ****** ******
  23  ****** ****** ****** ****** ****** ****** ****** ****** ****** ******
      ****** ****** ****** ****** ****** ****** ****** ****** ****** ******
      ****** ****** ****** ****** ****** ****** ****** ****** ****** ******
  24  ****** ****** ****** ****** ****** ****** ****** ****** ****** ******
      ****** ****** ****** ****** ****** ****** ****** ****** ****** ******
      ****** ****** ****** ****** ****** ****** ****** ****** ****** ******
  25  ****** ****** ****** ****** ****** ****** ****** ****** ****** ******
      ****** ****** ****** ****** ****** ****** ****** ****** ****** ******
      ****** ****** ****** ****** ****** ****** ****** ****** ****** ******

 HEAD WILL BE SAVED ON UNIT   51 AT END OF TIME STEP    1, STRESS PERIOD    8
1
  VOLUMETRIC BUDGET FOR ENTIRE MODEL AT END OF TIME STEP    1, STRESS PERIOD   8
  ------------------------------------------------------------------------------

     CUMULATIVE VOLUMES      L**3       RATES FOR THIS TIME STEP      L**3/T
     ------------------                 ------------------------

           IN:                                      IN:
           ---                                      ---
             STORAGE =    32177125.0797               STORAGE =        1310.1549
       CONSTANT HEAD =    18327990.5031         CONSTANT HEAD =       31420.4226
               WELLS =           0.0000                 WELLS =           0.0000
            RECHARGE =    17608800.0000              RECHARGE =       27600.0000
      STREAM LEAKAGE =     6987463.0725        STREAM LEAKAGE =       12273.1309

            TOTAL IN =    75101378.6553              TOTAL IN =       72603.7084

          OUT:                                     OUT:
          ----                                     ----
             STORAGE =      988128.7452               STORAGE =        1610.9207
       CONSTANT HEAD =           0.0000         CONSTANT HEAD =           0.0000
               WELLS =    21492482.9153                 WELLS =       29441.7574
            RECHARGE =           0.0000              RECHARGE =           0.0000
      STREAM LEAKAGE =    52620768.7896        STREAM LEAKAGE =       41551.0219

           TOTAL OUT =    75101380.4500             TOTAL OUT =       72603.7000

            IN - OUT =          -1.7947              IN - OUT =       8.4520E-03

 PERCENT DISCREPANCY =          -0.00     PERCENT DISCREPANCY =           0.00






         TIME SUMMARY AT END OF TIME STEP    1 IN STRESS PERIOD    8
                    SECONDS     MINUTES      HOURS       DAYS        YEARS
                    -----------------------------------------------------------
   TIME STEP LENGTH 7.86240E+06 1.31040E+05  2184.0      91.000     0.24914    
 STRESS PERIOD TIME 7.86240E+06 1.31040E+05  2184.0      91.000     0.24914    
         TOTAL TIME 6.30720E+07 1.05120E+06  17520.      730.00      1.9986    
1
1
                            STRESS PERIOD NO.    9, LENGTH =   92.00000    
                            -----------------------------------------------

                              NUMBER OF TIME STEPS =     1

                               MULTIPLIER FOR DELT =     1.500

                            INITIAL TIME STEP SIZE =   92.00000    

 WELL NO.  LAYER   ROW   COL   STRESS RATE         
 --------------------------------------------------
      1      1     19     11     -0.1013E+05
      2      1     15     28      -7561.    
      3      1     15      7      -2227.    
      4      1     12     26      -9522.    

      4 WELLS

                 RECHARGE =  5.000000E-04

 REUSING STREAM SEGMENT DATA FROM LAST STRESS PERIOD
 
 SOLVING FOR HEAD 


     6 CALLS TO PCG ROUTINE FOR TIME STEP   1 IN STRESS PERIOD    9
    23 TOTAL ITERATIONS

 OUTPUT CONTROL FOR STRESS PERIOD    9   TIME STEP    1
    SAVE BUDGET
    SAVE HEAD FOR ALL LAYERS
    PRINT HEAD FOR ALL LAYERS
 UBDSV2 SAVING "STREAMFLOW OUT  " ON UNIT  50 AT TIME STEP  1, STRESS PERIOD   9



 STREAM LISTING     PERIOD      9   STEP        1

 LAYER ROW COL. STREAM  RCH.  FLOW INTO     FLOW TO   FLOW OUT OF   OVRLND.     DIRECT     STREAM       STREAM     STREAM     STREAM   STREAMBED  STREAMBED
                SEG.NO.  NO.  STRM. RCH.    AQUIFER    STRM. RCH.    RUNOFF     PRECIP       ET          HEAD       DEPTH      WIDTH   CONDCTNC.   GRADIENT

   1   13    1     1     1    1.0000E+05 -1.5921E+03   1.0159E+05  0.000E+00  0.000E+00  0.000E+00  4.84067E+01  1.453E-01  2.000E+01  2.000E+04 -7.961E-02
   1   13    2     1     2    1.0159E+05 -2.5242E+03   1.0412E+05  0.000E+00  0.000E+00  0.000E+00  4.79312E+01  1.471E-01  2.000E+01  2.000E+04 -1.262E-01
   1   14    3     1     3    1.0412E+05 -3.4771E+02   1.0446E+05  0.000E+00  0.000E+00  0.000E+00  4.74552E+01  1.483E-01  2.000E+01  2.000E+04 -1.739E-02
   1   15    4     1     4    1.0446E+05 -2.5686E+02   1.0472E+05  0.000E+00  0.000E+00  0.000E+00  4.69781E+01  1.486E-01  2.000E+01  2.000E+04 -1.284E-02
   1   16    5     1     5    1.0472E+05 -8.9096E+02   1.0561E+05  0.000E+00  0.000E+00  0.000E+00  4.65014E+01  1.491E-01  2.000E+01  2.000E+04 -4.455E-02
   1   16    6     1     6    1.0561E+05 -2.7955E+02   1.0589E+05  0.000E+00  0.000E+00  0.000E+00  4.60246E+01  1.496E-01  2.000E+01  2.000E+04 -1.398E-02
   1   16    7     1     7    1.0589E+05  5.2146E+02   1.0537E+05  0.000E+00  0.000E+00  0.000E+00  4.55472E+01  1.495E-01  2.000E+01  2.000E+04  2.607E-02
   1   16    8     1     8    1.0537E+05 -3.4934E+01   1.0540E+05  0.000E+00  0.000E+00  0.000E+00  4.50697E+01  1.493E-01  2.000E+01  2.000E+04 -1.747E-03
   1   16    9     1     9    1.0540E+05 -3.2636E+01   1.0544E+05  0.000E+00  0.000E+00  0.000E+00  4.45925E+01  1.493E-01  2.000E+01  2.000E+04 -1.632E-03
   1   16   10     1    10    1.0544E+05  1.5942E+02   1.0528E+05  0.000E+00  0.000E+00  0.000E+00  4.41152E+01  1.493E-01  2.000E+01  2.000E+04  7.971E-03
   1   16   11     1    11    1.0528E+05  3.2231E+02   1.0496E+05  0.000E+00  0.000E+00  0.000E+00  4.36377E+01  1.490E-01  2.000E+01  2.000E+04  1.612E-02
   1   16   12     1    12    1.0496E+05 -1.5498E+02   1.0511E+05  0.000E+00  0.000E+00  0.000E+00  4.31603E+01  1.490E-01  2.000E+01  2.000E+04 -7.749E-03
   1   15   13     1    13    1.0511E+05 -9.5711E+02   1.0607E+05  0.000E+00  0.000E+00  0.000E+00  4.26835E+01  1.495E-01  2.000E+01  2.000E+04 -4.786E-02
   1   14   14     1    14    1.0607E+05 -1.5175E+03   1.0759E+05  0.000E+00  0.000E+00  0.000E+00  4.22073E+01  1.505E-01  2.000E+01  2.000E+04 -7.588E-02
   1   13   15     1    15    1.0759E+05 -1.9739E+03   1.0956E+05  0.000E+00  0.000E+00  0.000E+00  4.17315E+01  1.520E-01  2.000E+01  2.000E+04 -9.870E-02
   1   12   16     1    16    1.0956E+05 -2.7307E+03   1.1229E+05  0.000E+00  0.000E+00  0.000E+00  4.12562E+01  1.539E-01  2.000E+01  2.000E+04 -1.365E-01
   1   12   17     1    17    1.1229E+05 -1.7616E+03   1.1405E+05  0.000E+00  0.000E+00  0.000E+00  4.07808E+01  1.558E-01  2.000E+01  2.000E+04 -8.808E-02
   1   12   18     1    18    1.1405E+05 -1.6884E+03   1.1574E+05  0.000E+00  0.000E+00  0.000E+00  4.03049E+01  1.572E-01  2.000E+01  2.000E+04 -8.442E-02
   1   12   19     1    19    1.1574E+05 -2.2418E+03   1.1798E+05  0.000E+00  0.000E+00  0.000E+00  3.98293E+01  1.588E-01  2.000E+01  2.000E+04 -1.121E-01
   1   13   20     1    20    1.1798E+05 -1.5905E+03   1.1957E+05  0.000E+00  0.000E+00  0.000E+00  3.93536E+01  1.604E-01  2.000E+01  2.000E+04 -7.953E-02
   1   14   21     1    21    1.1957E+05 -1.3397E+03   1.2091E+05  0.000E+00  0.000E+00  0.000E+00  3.88775E+01  1.616E-01  2.000E+01  2.000E+04 -6.699E-02
   1   14   22     1    22    1.2091E+05  4.9771E+03   1.1593E+05  0.000E+00  0.000E+00  0.000E+00  3.83987E+01  1.601E-01  2.000E+01  2.000E+04  2.489E-01
   1    9   30     2     1    5.0000E+04  1.8726E+02   4.9813E+04  0.000E+00  0.000E+00  0.000E+00  4.02407E+01  1.157E-01  2.000E+01  2.000E+04  9.363E-03
   1    9   29     2     2    4.9813E+04 -9.0799E+01   4.9904E+04  0.000E+00  0.000E+00  0.000E+00  3.99907E+01  1.157E-01  2.000E+01  2.000E+04 -4.540E-03
   1    9   28     2     3    4.9904E+04 -3.3359E+02   5.0237E+04  0.000E+00  0.000E+00  0.000E+00  3.97410E+01  1.160E-01  2.000E+01  2.000E+04 -1.668E-02
   1    9   27     2     4    5.0237E+04 -1.6459E+03   5.1883E+04  0.000E+00  0.000E+00  0.000E+00  3.94923E+01  1.173E-01  2.000E+01  2.000E+04 -8.230E-02
   1   10   26     2     5    5.1883E+04  8.4442E+02   5.1039E+04  0.000E+00  0.000E+00  0.000E+00  3.92429E+01  1.179E-01  2.000E+01  2.000E+04  4.222E-02
   1   11   25     2     6    5.1039E+04  2.0819E+03   4.8957E+04  0.000E+00  0.000E+00  0.000E+00  3.89909E+01  1.159E-01  2.000E+01  2.000E+04  1.041E-01
   1   12   24     2     7    4.8957E+04  3.9254E+02   4.8564E+04  0.000E+00  0.000E+00  0.000E+00  3.87391E+01  1.141E-01  2.000E+01  2.000E+04  1.963E-02
   1   13   23     2     8    4.8564E+04 -1.7087E+02   4.8735E+04  0.000E+00  0.000E+00  0.000E+00  3.84890E+01  1.140E-01  2.000E+01  2.000E+04 -8.544E-03
   1   14   22     2     9    4.8735E+04  1.7596E+03   4.6976E+04  0.000E+00  0.000E+00  0.000E+00  3.82379E+01  1.129E-01  2.000E+01  2.000E+04  8.798E-02
   1   14   22     3     1    1.6291E+05 -8.6183E+03   1.7153E+05  0.000E+00  0.000E+00  0.000E+00  3.77190E+01  1.634E-01  2.000E+01  2.000E+04 -4.309E-01
   1   15   23     3     2    1.7153E+05 -4.5918E+02   1.7199E+05  0.000E+00  0.000E+00  0.000E+00  3.68327E+01  1.661E-01  2.000E+01  2.000E+04 -2.296E-02
   1   15   24     3     3    1.7199E+05 -1.9648E+02   1.7218E+05  0.000E+00  0.000E+00  0.000E+00  3.59440E+01  1.662E-01  2.000E+01  2.000E+04 -9.824E-03
   1   15   25     3     4    1.7218E+05 -1.2864E+02   1.7231E+05  0.000E+00  0.000E+00  0.000E+00  3.50552E+01  1.663E-01  2.000E+01  2.000E+04 -6.432E-03
   1   15   26     3     5    1.7231E+05  1.8409E+02   1.7213E+05  0.000E+00  0.000E+00  0.000E+00  3.41663E+01  1.663E-01  2.000E+01  2.000E+04  9.205E-03
   1   16   27     3     6    1.7213E+05  4.2606E+02   1.7170E+05  0.000E+00  0.000E+00  0.000E+00  3.32773E+01  1.661E-01  2.000E+01  2.000E+04  2.130E-02
   1   17   28     3     7    1.7170E+05  1.7230E+03   1.6998E+05  0.000E+00  0.000E+00  0.000E+00  3.23877E+01  1.655E-01  2.000E+01  2.000E+04  8.615E-02
   1   18   29     3     8    1.6998E+05 -1.8754E+03   1.7186E+05  0.000E+00  0.000E+00  0.000E+00  3.14989E+01  1.656E-01  2.000E+01  2.000E+04 -9.377E-02
   1   18   30     3     9    1.7186E+05 -2.1159E+03   1.7397E+05  0.000E+00  0.000E+00  0.000E+00  3.06112E+01  1.667E-01  2.000E+01  2.000E+04 -1.058E-01



1
              HEAD IN LAYER   1 AT END OF TIME STEP   1 IN STRESS PERIOD    9
  ---------------------------------------------------------------------------

          1      2      3      4      5      6      7      8      9     10
         11     12     13     14     15     16     17     18     19     20
         21     22     23     24     25     26     27     28     29     30
 .........................................................................
   1  ****** ****** ****** ****** ****** ****** ****** ****** ****** ******
      ****** ****** ****** ****** ****** ****** ****** ****** ****** ******
      ****** ****** ****** ****** ****** ****** ****** ****** ****** ******
   2  ****** ****** ****** ****** ****** ****** ****** ****** ****** ******
      ****** ****** ****** ****** ****** ****** ****** ****** ****** ******
      ****** ****** ****** ****** ****** ****** ****** ****** ****** ******
   3  ****** ****** ****** ****** ****** ****** ****** ****** ****** ******
      ****** ****** ****** ****** ****** ****** ****** ****** ****** ******
      ****** ****** ****** ****** ****** ****** ****** ****** ****** ******
   4  ****** ****** ****** ****** ****** ****** ****** ****** ****** ******
      ****** ****** ****** ****** ****** ****** ****** ****** ****** ******
      ****** ****** ****** ****** ****** ****** ****** ****** ****** ******
   5  ****** ****** ****** ****** ****** ****** ****** ****** ****** ******
      ****** ****** ****** ****** ****** ****** ****** ****** ****** ******
      ****** ****** ****** ****** ****** ****** ****** ****** ****** ******
   6  ****** ****** ****** ****** ****** ****** ****** ****** ****** ******
      ****** ****** ****** ****** ****** ****** ****** ****** ****** ******
      ****** ****** ****** ****** ****** ****** ****** ****** ****** ******
   7  ****** ****** ****** ****** ****** ****** ****** ****** ****** ******
      ****** ****** ****** ****** ****** ****** ****** ****** ****** ******
      ****** ****** ****** ****** ****** ****** ****** ****** ****** ******
   8  ****** ****** ****** ****** ****** ****** ****** ****** ****** ******
      ****** ****** ****** ****** ****** ****** ****** ****** ****** ******
      ****** ****** ****** ****** ****** ****** ****** ****** ****** ******
   9  ****** ****** ****** ****** ****** ****** ****** ****** ****** ******
      ****** ****** ****** ****** ****** ****** ****** ****** ****** ******
      ****** ****** ****** ****** ****** ****** ****** ****** ****** ******
  10  ****** ****** ****** ****** ****** ****** ****** ****** ****** ******
      ****** ****** ****** ****** ****** ****** ****** ****** ****** ******
      ****** ****** ****** ****** ****** ****** ****** ****** ****** ******
  11  ****** ****** ****** ****** ****** ****** ****** ****** ****** ******
      ****** ****** ****** ****** ****** ****** ****** ****** ****** ******
      ****** ****** ****** ****** ****** ****** ****** ****** ****** ******
  12  ****** ****** ****** ****** ****** ****** ****** ****** ****** ******
      ****** ****** ****** ****** ****** ****** ****** ****** ****** ******
      ****** ****** ****** ****** ****** ****** ****** ****** ****** ******
  13  ****** ****** ****** ****** ****** ****** ****** ****** ****** ******
      ****** ****** ****** ****** ****** ****** ****** ****** ****** ******
      ****** ****** ****** ****** ****** ****** ****** ****** ****** ******
  14  ****** ****** ****** ****** ****** ****** ****** ****** ****** ******
      ****** ****** ****** ****** ****** ****** ****** ****** ****** ******
      ****** ****** ****** ****** ****** ****** ****** ****** ****** ******
  15  ****** ****** ****** ****** ****** ****** ****** ****** ****** ******
      ****** ****** ****** ****** ****** ****** ****** ****** ****** ******
      ****** ****** ****** ****** ****** ****** ****** ****** ****** ******
  16  ****** ****** ****** ****** ****** ****** ****** ****** ****** ******
      ****** ****** ****** ****** ****** ****** ****** ****** ****** ******
      ****** ****** ****** ****** ****** ****** ****** ****** ****** ******
  17  ****** ****** ****** ****** ****** ****** ****** ****** ****** ******
      ****** ****** ****** ****** ****** ****** ****** ****** ****** ******
      ****** ****** ****** ****** ****** ****** ****** ****** ****** ******
  18  ****** ****** ****** ****** ****** ****** ****** ****** ****** ******
      ****** ****** ****** ****** ****** ****** ****** ****** ****** ******
      ****** ****** ****** ****** ****** ****** ****** ****** ****** ******
  19  ****** ****** ****** ****** ****** ****** ****** ****** ****** ******
      ****** ****** ****** ****** ****** ****** ****** ****** ****** ******
      ****** ****** ****** ****** ****** ****** ****** ****** ****** ******
  20  ****** ****** ****** ****** ****** ****** ****** ****** ****** ******
      ****** ****** ****** ****** ****** ****** ****** ****** ****** ******
      ****** ****** ****** ****** ****** ****** ****** ****** ****** ******
  21  ****** ****** ****** ****** ****** ****** ****** ****** ****** ******
      ****** ****** ****** ****** ****** ****** ****** ****** ****** ******
      ****** ****** ****** ****** ****** ****** ****** ****** ****** ******
  22  ****** ****** ****** ****** ****** ****** ****** ****** ****** ******
      ****** ****** ****** ****** ****** ****** ****** ****** ****** ******
      ****** ****** ****** ****** ****** ****** ****** ****** ****** ******
  23  ****** ****** ****** ****** ****** ****** ****** ****** ****** ******
      ****** ****** ****** ****** ****** ****** ****** ****** ****** ******
      ****** ****** ****** ****** ****** ****** ****** ****** ****** ******
  24  ****** ****** ****** ****** ****** ****** ****** ****** ****** ******
      ****** ****** ****** ****** ****** ****** ****** ****** ****** ******
      ****** ****** ****** ****** ****** ****** ****** ****** ****** ******
  25  ****** ****** ****** ****** ****** ****** ****** ****** ****** ******
      ****** ****** ****** ****** ****** ****** ****** ****** ****** ******
      ****** ****** ****** ****** ****** ****** ****** ****** ****** ******

 HEAD WILL BE SAVED ON UNIT   51 AT END OF TIME STEP    1, STRESS PERIOD    9
1
  VOLUMETRIC BUDGET FOR ENTIRE MODEL AT END OF TIME STEP    1, STRESS PERIOD   9
  ------------------------------------------------------------------------------

     CUMULATIVE VOLUMES      L**3       RATES FOR THIS TIME STEP      L**3/T
     ------------------                 ------------------------

           IN:                                      IN:
           ---                                      ---
             STORAGE =    32825382.7252               STORAGE =        7046.2788
       CONSTANT HEAD =    21324124.4207         CONSTANT HEAD =       32566.6730
               WELLS =           0.0000                 WELLS =           0.0000
            RECHARGE =    18878400.0000              RECHARGE =       13800.0000
      STREAM LEAKAGE =     8236740.8223        STREAM LEAKAGE =       13579.1060

            TOTAL IN =    81264647.9682              TOTAL IN =       66992.0577

          OUT:                                     OUT:
          ----                                     ----
             STORAGE =      988128.7452               STORAGE =           0.0000
       CONSTANT HEAD =           0.0000         CONSTANT HEAD =           0.0000
               WELLS =    24201124.5977                 WELLS =       29441.7574
            RECHARGE =           0.0000              RECHARGE =           0.0000
      STREAM LEAKAGE =    56075396.4895        STREAM LEAKAGE =       37550.3011

           TOTAL OUT =    81264649.8324             TOTAL OUT =       66992.0585

            IN - OUT =          -1.8643              IN - OUT =      -7.5620E-04

 PERCENT DISCREPANCY =          -0.00     PERCENT DISCREPANCY =          -0.00






         TIME SUMMARY AT END OF TIME STEP    1 IN STRESS PERIOD    9
                    SECONDS     MINUTES      HOURS       DAYS        YEARS
                    -----------------------------------------------------------
   TIME STEP LENGTH 7.94880E+06 1.32480E+05  2208.0      92.000     0.25188    
 STRESS PERIOD TIME 7.94880E+06 1.32480E+05  2208.0      92.000     0.25188    
         TOTAL TIME 7.10208E+07 1.18368E+06  19728.      822.00      2.2505    
1
1
                            STRESS PERIOD NO.   10, LENGTH =   91.00000    
                            -----------------------------------------------

                              NUMBER OF TIME STEPS =     1

                               MULTIPLIER FOR DELT =     1.500

                            INITIAL TIME STEP SIZE =   91.00000    

 WELL NO.  LAYER   ROW   COL   STRESS RATE         
 --------------------------------------------------
      1      1     19     11     -0.1013E+05
      2      1     15     28      -7561.    
      3      1     15      7      -2227.    
      4      1     12     26      -9522.    

      4 WELLS

                 RECHARGE =  2.000000E-03

 REUSING STREAM SEGMENT DATA FROM LAST STRESS PERIOD
 
 SOLVING FOR HEAD 


     7 CALLS TO PCG ROUTINE FOR TIME STEP   1 IN STRESS PERIOD   10
    26 TOTAL ITERATIONS

 OUTPUT CONTROL FOR STRESS PERIOD   10   TIME STEP    1
    SAVE BUDGET
    SAVE HEAD FOR ALL LAYERS
    PRINT HEAD FOR ALL LAYERS
 UBDSV2 SAVING "STREAMFLOW OUT  " ON UNIT  50 AT TIME STEP  1, STRESS PERIOD  10



 STREAM LISTING     PERIOD     10   STEP        1

 LAYER ROW COL. STREAM  RCH.  FLOW INTO     FLOW TO   FLOW OUT OF   OVRLND.     DIRECT     STREAM       STREAM     STREAM     STREAM   STREAMBED  STREAMBED
                SEG.NO.  NO.  STRM. RCH.    AQUIFER    STRM. RCH.    RUNOFF     PRECIP       ET          HEAD       DEPTH      WIDTH   CONDCTNC.   GRADIENT

   1   13    1     1     1    1.0000E+05 -2.0476E+03   1.0205E+05  0.000E+00  0.000E+00  0.000E+00  4.84069E+01  1.455E-01  2.000E+01  2.000E+04 -1.024E-01
   1   13    2     1     2    1.0205E+05 -3.0291E+03   1.0508E+05  0.000E+00  0.000E+00  0.000E+00  4.79318E+01  1.477E-01  2.000E+01  2.000E+04 -1.515E-01
   1   14    3     1     3    1.0508E+05 -5.3463E+02   1.0561E+05  0.000E+00  0.000E+00  0.000E+00  4.74561E+01  1.492E-01  2.000E+01  2.000E+04 -2.673E-02
   1   15    4     1     4    1.0561E+05 -4.5656E+02   1.0607E+05  0.000E+00  0.000E+00  0.000E+00  4.69792E+01  1.497E-01  2.000E+01  2.000E+04 -2.283E-02
   1   16    5     1     5    1.0607E+05 -1.5099E+03   1.0758E+05  0.000E+00  0.000E+00  0.000E+00  4.65028E+01  1.505E-01  2.000E+01  2.000E+04 -7.549E-02
   1   16    6     1     6    1.0758E+05 -6.4194E+02   1.0822E+05  0.000E+00  0.000E+00  0.000E+00  4.60264E+01  1.514E-01  2.000E+01  2.000E+04 -3.210E-02
   1   16    7     1     7    1.0822E+05  1.7681E+02   1.0804E+05  0.000E+00  0.000E+00  0.000E+00  4.55493E+01  1.516E-01  2.000E+01  2.000E+04  8.841E-03
   1   16    8     1     8    1.0804E+05 -3.7415E+02   1.0842E+05  0.000E+00  0.000E+00  0.000E+00  4.50721E+01  1.517E-01  2.000E+01  2.000E+04 -1.871E-02
   1   16    9     1     9    1.0842E+05 -3.7032E+02   1.0879E+05  0.000E+00  0.000E+00  0.000E+00  4.45952E+01  1.520E-01  2.000E+01  2.000E+04 -1.852E-02
   1   16   10     1    10    1.0879E+05 -1.7841E+02   1.0897E+05  0.000E+00  0.000E+00  0.000E+00  4.41181E+01  1.522E-01  2.000E+01  2.000E+04 -8.920E-03
   1   16   11     1    11    1.0897E+05 -1.8936E+01   1.0898E+05  0.000E+00  0.000E+00  0.000E+00  4.36409E+01  1.523E-01  2.000E+01  2.000E+04 -9.468E-04
   1   16   12     1    12    1.0898E+05 -7.2488E+02   1.0971E+05  0.000E+00  0.000E+00  0.000E+00  4.31640E+01  1.526E-01  2.000E+01  2.000E+04 -3.624E-02
   1   15   13     1    13    1.0971E+05 -1.5448E+03   1.1125E+05  0.000E+00  0.000E+00  0.000E+00  4.26877E+01  1.536E-01  2.000E+01  2.000E+04 -7.724E-02
   1   14   14     1    14    1.1125E+05 -2.1129E+03   1.1337E+05  0.000E+00  0.000E+00  0.000E+00  4.22119E+01  1.551E-01  2.000E+01  2.000E+04 -1.056E-01
   1   13   15     1    15    1.1337E+05 -2.5598E+03   1.1593E+05  0.000E+00  0.000E+00  0.000E+00  4.17366E+01  1.570E-01  2.000E+01  2.000E+04 -1.280E-01
   1   12   16     1    16    1.1593E+05 -3.2960E+03   1.1922E+05  0.000E+00  0.000E+00  0.000E+00  4.12617E+01  1.594E-01  2.000E+01  2.000E+04 -1.648E-01
   1   12   17     1    17    1.1922E+05 -2.1889E+03   1.2141E+05  0.000E+00  0.000E+00  0.000E+00  4.07866E+01  1.616E-01  2.000E+01  2.000E+04 -1.094E-01
   1   12   18     1    18    1.2141E+05 -2.1113E+03   1.2352E+05  0.000E+00  0.000E+00  0.000E+00  4.03111E+01  1.634E-01  2.000E+01  2.000E+04 -1.056E-01
   1   12   19     1    19    1.2352E+05 -2.7622E+03   1.2629E+05  0.000E+00  0.000E+00  0.000E+00  3.98358E+01  1.653E-01  2.000E+01  2.000E+04 -1.381E-01
   1   13   20     1    20    1.2629E+05 -2.1128E+03   1.2840E+05  0.000E+00  0.000E+00  0.000E+00  3.93604E+01  1.672E-01  2.000E+01  2.000E+04 -1.056E-01
   1   14   21     1    21    1.2840E+05 -1.8654E+03   1.3026E+05  0.000E+00  0.000E+00  0.000E+00  3.88847E+01  1.688E-01  2.000E+01  2.000E+04 -9.327E-02
   1   14   22     1    22    1.3026E+05  4.8478E+03   1.2542E+05  0.000E+00  0.000E+00  0.000E+00  3.84063E+01  1.676E-01  2.000E+01  2.000E+04  2.424E-01
   1    9   30     2     1    5.0000E+04 -2.2743E+02   5.0227E+04  0.000E+00  0.000E+00  0.000E+00  4.02410E+01  1.160E-01  2.000E+01  2.000E+04 -1.137E-02
   1    9   29     2     2    5.0227E+04 -5.0323E+02   5.0731E+04  0.000E+00  0.000E+00  0.000E+00  3.99915E+01  1.165E-01  2.000E+01  2.000E+04 -2.516E-02
   1    9   28     2     3    5.0731E+04 -7.4529E+02   5.1476E+04  0.000E+00  0.000E+00  0.000E+00  3.97424E+01  1.174E-01  2.000E+01  2.000E+04 -3.726E-02
   1    9   27     2     4    5.1476E+04 -2.2000E+03   5.3676E+04  0.000E+00  0.000E+00  0.000E+00  3.94944E+01  1.194E-01  2.000E+01  2.000E+04 -1.100E-01
   1   10   26     2     5    5.3676E+04  2.9049E+02   5.3385E+04  0.000E+00  0.000E+00  0.000E+00  3.92457E+01  1.207E-01  2.000E+01  2.000E+04  1.452E-02
   1   11   25     2     6    5.3385E+04  1.5526E+03   5.1833E+04  0.000E+00  0.000E+00  0.000E+00  3.89945E+01  1.195E-01  2.000E+01  2.000E+04  7.763E-02
   1   12   24     2     7    5.1833E+04 -8.6502E+01   5.1919E+04  0.000E+00  0.000E+00  0.000E+00  3.87435E+01  1.185E-01  2.000E+01  2.000E+04 -4.325E-03
   1   13   23     2     8    5.1919E+04 -3.1967E+02   5.2239E+04  0.000E+00  0.000E+00  0.000E+00  3.84937E+01  1.187E-01  2.000E+01  2.000E+04 -1.598E-02
   1   14   22     2     9    5.2239E+04  1.5800E+03   5.0659E+04  0.000E+00  0.000E+00  0.000E+00  3.82429E+01  1.179E-01  2.000E+01  2.000E+04  7.900E-02
   1   14   22     3     1    1.7607E+05 -8.7453E+03   1.8482E+05  0.000E+00  0.000E+00  0.000E+00  3.77266E+01  1.710E-01  2.000E+01  2.000E+04 -4.373E-01
   1   15   23     3     2    1.8482E+05 -6.2181E+02   1.8544E+05  0.000E+00  0.000E+00  0.000E+00  3.68404E+01  1.737E-01  2.000E+01  2.000E+04 -3.109E-02
   1   15   24     3     3    1.8544E+05 -3.3372E+02   1.8578E+05  0.000E+00  0.000E+00  0.000E+00  3.59517E+01  1.740E-01  2.000E+01  2.000E+04 -1.669E-02
   1   15   25     3     4    1.8578E+05 -2.6929E+02   1.8605E+05  0.000E+00  0.000E+00  0.000E+00  3.50630E+01  1.741E-01  2.000E+01  2.000E+04 -1.346E-02
   1   15   26     3     5    1.8605E+05  2.1803E+01   1.8602E+05  0.000E+00  0.000E+00  0.000E+00  3.41742E+01  1.742E-01  2.000E+01  2.000E+04  1.090E-03
   1   16   27     3     6    1.8602E+05  2.4012E+02   1.8578E+05  0.000E+00  0.000E+00  0.000E+00  3.32852E+01  1.741E-01  2.000E+01  2.000E+04  1.201E-02
   1   17   28     3     7    1.8578E+05  1.2021E+03   1.8458E+05  0.000E+00  0.000E+00  0.000E+00  3.23959E+01  1.737E-01  2.000E+01  2.000E+04  6.010E-02
   1   18   29     3     8    1.8458E+05 -2.4273E+03   1.8701E+05  0.000E+00  0.000E+00  0.000E+00  3.15074E+01  1.741E-01  2.000E+01  2.000E+04 -1.214E-01
   1   18   30     3     9    1.8701E+05 -2.5416E+03   1.8955E+05  0.000E+00  0.000E+00  0.000E+00  3.06199E+01  1.755E-01  2.000E+01  2.000E+04 -1.271E-01



1
              HEAD IN LAYER   1 AT END OF TIME STEP   1 IN STRESS PERIOD   10
  ---------------------------------------------------------------------------

          1      2      3      4      5      6      7      8      9     10
         11     12     13     14     15     16     17     18     19     20
         21     22     23     24     25     26     27     28     29     30
 .........................................................................
   1  ****** ****** ****** ****** ****** ****** ****** ****** ****** ******
      ****** ****** ****** ****** ****** ****** ****** ****** ****** ******
      ****** ****** ****** ****** ****** ****** ****** ****** ****** ******
   2  ****** ****** ****** ****** ****** ****** ****** ****** ****** ******
      ****** ****** ****** ****** ****** ****** ****** ****** ****** ******
      ****** ****** ****** ****** ****** ****** ****** ****** ****** ******
   3  ****** ****** ****** ****** ****** ****** ****** ****** ****** ******
      ****** ****** ****** ****** ****** ****** ****** ****** ****** ******
      ****** ****** ****** ****** ****** ****** ****** ****** ****** ******
   4  ****** ****** ****** ****** ****** ****** ****** ****** ****** ******
      ****** ****** ****** ****** ****** ****** ****** ****** ****** ******
      ****** ****** ****** ****** ****** ****** ****** ****** ****** ******
   5  ****** ****** ****** ****** ****** ****** ****** ****** ****** ******
      ****** ****** ****** ****** ****** ****** ****** ****** ****** ******
      ****** ****** ****** ****** ****** ****** ****** ****** ****** ******
   6  ****** ****** ****** ****** ****** ****** ****** ****** ****** ******
      ****** ****** ****** ****** ****** ****** ****** ****** ****** ******
      ****** ****** ****** ****** ****** ****** ****** ****** ****** ******
   7  ****** ****** ****** ****** ****** ****** ****** ****** ****** ******
      ****** ****** ****** ****** ****** ****** ****** ****** ****** ******
      ****** ****** ****** ****** ****** ****** ****** ****** ****** ******
   8  ****** ****** ****** ****** ****** ****** ****** ****** ****** ******
      ****** ****** ****** ****** ****** ****** ****** ****** ****** ******
      ****** ****** ****** ****** ****** ****** ****** ****** ****** ******
   9  ****** ****** ****** ****** ****** ****** ****** ****** ****** ******
      ****** ****** ****** ****** ****** ****** ****** ****** ****** ******
      ****** ****** ****** ****** ****** ****** ****** ****** ****** ******
  10  ****** ****** ****** ****** ****** ****** ****** ****** ****** ******
      ****** ****** ****** ****** ****** ****** ****** ****** ****** ******
      ****** ****** ****** ****** ****** ****** ****** ****** ****** ******
  11  ****** ****** ****** ****** ****** ****** ****** ****** ****** ******
      ****** ****** ****** ****** ****** ****** ****** ****** ****** ******
      ****** ****** ****** ****** ****** ****** ****** ****** ****** ******
  12  ****** ****** ****** ****** ****** ****** ****** ****** ****** ******
      ****** ****** ****** ****** ****** ****** ****** ****** ****** ******
      ****** ****** ****** ****** ****** ****** ****** ****** ****** ******
  13  ****** ****** ****** ****** ****** ****** ****** ****** ****** ******
      ****** ****** ****** ****** ****** ****** ****** ****** ****** ******
      ****** ****** ****** ****** ****** ****** ****** ****** ****** ******
  14  ****** ****** ****** ****** ****** ****** ****** ****** ****** ******
      ****** ****** ****** ****** ****** ****** ****** ****** ****** ******
      ****** ****** ****** ****** ****** ****** ****** ****** ****** ******
  15  ****** ****** ****** ****** ****** ****** ****** ****** ****** ******
      ****** ****** ****** ****** ****** ****** ****** ****** ****** ******
      ****** ****** ****** ****** ****** ****** ****** ****** ****** ******
  16  ****** ****** ****** ****** ****** ****** ****** ****** ****** ******
      ****** ****** ****** ****** ****** ****** ****** ****** ****** ******
      ****** ****** ****** ****** ****** ****** ****** ****** ****** ******
  17  ****** ****** ****** ****** ****** ****** ****** ****** ****** ******
      ****** ****** ****** ****** ****** ****** ****** ****** ****** ******
      ****** ****** ****** ****** ****** ****** ****** ****** ****** ******
  18  ****** ****** ****** ****** ****** ****** ****** ****** ****** ******
      ****** ****** ****** ****** ****** ****** ****** ****** ****** ******
      ****** ****** ****** ****** ****** ****** ****** ****** ****** ******
  19  ****** ****** ****** ****** ****** ****** ****** ****** ****** ******
      ****** ****** ****** ****** ****** ****** ****** ****** ****** ******
      ****** ****** ****** ****** ****** ****** ****** ****** ****** ******
  20  ****** ****** ****** ****** ****** ****** ****** ****** ****** ******
      ****** ****** ****** ****** ****** ****** ****** ****** ****** ******
      ****** ****** ****** ****** ****** ****** ****** ****** ****** ******
  21  ****** ****** ****** ****** ****** ****** ****** ****** ****** ******
      ****** ****** ****** ****** ****** ****** ****** ****** ****** ******
      ****** ****** ****** ****** ****** ****** ****** ****** ****** ******
  22  ****** ****** ****** ****** ****** ****** ****** ****** ****** ******
      ****** ****** ****** ****** ****** ****** ****** ****** ****** ******
      ****** ****** ****** ****** ****** ****** ****** ****** ****** ******
  23  ****** ****** ****** ****** ****** ****** ****** ****** ****** ******
      ****** ****** ****** ****** ****** ****** ****** ****** ****** ******
      ****** ****** ****** ****** ****** ****** ****** ****** ****** ******
  24  ****** ****** ****** ****** ****** ****** ****** ****** ****** ******
      ****** ****** ****** ****** ****** ****** ****** ****** ****** ******
      ****** ****** ****** ****** ****** ****** ****** ****** ****** ******
  25  ****** ****** ****** ****** ****** ****** ****** ****** ****** ******
      ****** ****** ****** ****** ****** ****** ****** ****** ****** ******
      ****** ****** ****** ****** ****** ****** ****** ****** ****** ******

 HEAD WILL BE SAVED ON UNIT   51 AT END OF TIME STEP    1, STRESS PERIOD   10
1
  VOLUMETRIC BUDGET FOR ENTIRE MODEL AT END OF TIME STEP    1, STRESS PERIOD  10
  ------------------------------------------------------------------------------

     CUMULATIVE VOLUMES      L**3       RATES FOR THIS TIME STEP      L**3/T
     ------------------                 ------------------------

           IN:                                      IN:
           ---                                      ---
             STORAGE =    32825382.7252               STORAGE =           0.0000
       CONSTANT HEAD =    24017659.7043         CONSTANT HEAD =       29599.2888
               WELLS =           0.0000                 WELLS =           0.0000
            RECHARGE =    23901600.0000              RECHARGE =       55200.0000
      STREAM LEAKAGE =     9138706.6388        STREAM LEAKAGE =        9911.7123

            TOTAL IN =    89883349.0684              TOTAL IN =       94711.0011

          OUT:                                     OUT:
          ----                                     ----
             STORAGE =     2426614.6643               STORAGE =       15807.5376
       CONSTANT HEAD =           0.0000         CONSTANT HEAD =           0.0000
               WELLS =    26880324.5228                 WELLS =       29441.7574
            RECHARGE =           0.0000              RECHARGE =           0.0000
      STREAM LEAKAGE =    60576411.4370        STREAM LEAKAGE =       49461.7027

           TOTAL OUT =    89883350.6241             TOTAL OUT =       94710.9977

            IN - OUT =          -1.5557              IN - OUT =       3.3906E-03

 PERCENT DISCREPANCY =          -0.00     PERCENT DISCREPANCY =           0.00






         TIME SUMMARY AT END OF TIME STEP    1 IN STRESS PERIOD   10
                    SECONDS     MINUTES      HOURS       DAYS        YEARS
                    -----------------------------------------------------------
   TIME STEP LENGTH 7.86240E+06 1.31040E+05  2184.0      91.000     0.24914    
 STRESS PERIOD TIME 7.86240E+06 1.31040E+05  2184.0      91.000     0.24914    
         TOTAL TIME 7.88832E+07 1.31472E+06  21912.      913.00      2.4997    
1
1
                            STRESS PERIOD NO.   11, LENGTH =   91.00000    
                            -----------------------------------------------

                              NUMBER OF TIME STEPS =     1

                               MULTIPLIER FOR DELT =     1.500

                            INITIAL TIME STEP SIZE =   91.00000    

 WELL NO.  LAYER   ROW   COL   STRESS RATE         
 --------------------------------------------------
      1      1     19     11     -0.1013E+05
      2      1     15     28      -7561.    
      3      1     15      7      -2227.    
      4      1     12     26      -9522.    

      4 WELLS

                 RECHARGE =   0.00000    

 REUSING STREAM SEGMENT DATA FROM LAST STRESS PERIOD
 
 SOLVING FOR HEAD 


     7 CALLS TO PCG ROUTINE FOR TIME STEP   1 IN STRESS PERIOD   11
    26 TOTAL ITERATIONS

 OUTPUT CONTROL FOR STRESS PERIOD   11   TIME STEP    1
    SAVE BUDGET
    SAVE HEAD FOR ALL LAYERS
    PRINT HEAD FOR ALL LAYERS
 UBDSV2 SAVING "STREAMFLOW OUT  " ON UNIT  50 AT TIME STEP  1, STRESS PERIOD  11



 STREAM LISTING     PERIOD     11   STEP        1

 LAYER ROW COL. STREAM  RCH.  FLOW INTO     FLOW TO   FLOW OUT OF   OVRLND.     DIRECT     STREAM       STREAM     STREAM     STREAM   STREAMBED  STREAMBED
                SEG.NO.  NO.  STRM. RCH.    AQUIFER    STRM. RCH.    RUNOFF     PRECIP       ET          HEAD       DEPTH      WIDTH   CONDCTNC.   GRADIENT

   1   13    1     1     1    1.0000E+05 -1.4821E+03   1.0148E+05  0.000E+00  0.000E+00  0.000E+00  4.84067E+01  1.453E-01  2.000E+01  2.000E+04 -7.410E-02
   1   13    2     1     2    1.0148E+05 -2.3995E+03   1.0388E+05  0.000E+00  0.000E+00  0.000E+00  4.79311E+01  1.470E-01  2.000E+01  2.000E+04 -1.200E-01
   1   14    3     1     3    1.0388E+05 -3.0407E+02   1.0419E+05  0.000E+00  0.000E+00  0.000E+00  4.74549E+01  1.481E-01  2.000E+01  2.000E+04 -1.520E-02
   1   15    4     1     4    1.0419E+05 -2.1491E+02   1.0440E+05  0.000E+00  0.000E+00  0.000E+00  4.69779E+01  1.483E-01  2.000E+01  2.000E+04 -1.075E-02
   1   16    5     1     5    1.0440E+05 -8.2216E+02   1.0522E+05  0.000E+00  0.000E+00  0.000E+00  4.65011E+01  1.488E-01  2.000E+01  2.000E+04 -4.111E-02
   1   16    6     1     6    1.0522E+05 -2.2786E+02   1.0545E+05  0.000E+00  0.000E+00  0.000E+00  4.60242E+01  1.492E-01  2.000E+01  2.000E+04 -1.139E-02
   1   16    7     1     7    1.0545E+05  5.7326E+02   1.0488E+05  0.000E+00  0.000E+00  0.000E+00  4.55468E+01  1.491E-01  2.000E+01  2.000E+04  2.866E-02
   1   16    8     1     8    1.0488E+05  1.6774E+01   1.0486E+05  0.000E+00  0.000E+00  0.000E+00  4.50693E+01  1.488E-01  2.000E+01  2.000E+04  8.387E-04
   1   16    9     1     9    1.0486E+05  1.8390E+01   1.0484E+05  0.000E+00  0.000E+00  0.000E+00  4.45920E+01  1.488E-01  2.000E+01  2.000E+04  9.195E-04
   1   16   10     1    10    1.0484E+05  2.0926E+02   1.0463E+05  0.000E+00  0.000E+00  0.000E+00  4.41146E+01  1.487E-01  2.000E+01  2.000E+04  1.046E-02
   1   16   11     1    11    1.0463E+05  3.7058E+02   1.0426E+05  0.000E+00  0.000E+00  0.000E+00  4.36371E+01  1.485E-01  2.000E+01  2.000E+04  1.853E-02
   1   16   12     1    12    1.0426E+05 -7.9652E+01   1.0434E+05  0.000E+00  0.000E+00  0.000E+00  4.31597E+01  1.484E-01  2.000E+01  2.000E+04 -3.983E-03
   1   15   13     1    13    1.0434E+05 -8.5722E+02   1.0520E+05  0.000E+00  0.000E+00  0.000E+00  4.26828E+01  1.488E-01  2.000E+01  2.000E+04 -4.286E-02
   1   14   14     1    14    1.0520E+05 -1.4081E+03   1.0661E+05  0.000E+00  0.000E+00  0.000E+00  4.22065E+01  1.497E-01  2.000E+01  2.000E+04 -7.040E-02
   1   13   15     1    15    1.0661E+05 -1.8609E+03   1.0847E+05  0.000E+00  0.000E+00  0.000E+00  4.17306E+01  1.511E-01  2.000E+01  2.000E+04 -9.304E-02
   1   12   16     1    16    1.0847E+05 -2.6210E+03   1.1109E+05  0.000E+00  0.000E+00  0.000E+00  4.12553E+01  1.530E-01  2.000E+01  2.000E+04 -1.311E-01
   1   12   17     1    17    1.1109E+05 -1.6834E+03   1.1277E+05  0.000E+00  0.000E+00  0.000E+00  4.07798E+01  1.548E-01  2.000E+01  2.000E+04 -8.417E-02
   1   12   18     1    18    1.1277E+05 -1.6133E+03   1.1439E+05  0.000E+00  0.000E+00  0.000E+00  4.03039E+01  1.561E-01  2.000E+01  2.000E+04 -8.067E-02
   1   12   19     1    19    1.1439E+05 -2.1508E+03   1.1654E+05  0.000E+00  0.000E+00  0.000E+00  3.98281E+01  1.577E-01  2.000E+01  2.000E+04 -1.075E-01
   1   13   20     1    20    1.1654E+05 -1.5010E+03   1.1804E+05  0.000E+00  0.000E+00  0.000E+00  3.93524E+01  1.592E-01  2.000E+01  2.000E+04 -7.505E-02
   1   14   21     1    21    1.1804E+05 -1.2688E+03   1.1931E+05  0.000E+00  0.000E+00  0.000E+00  3.88762E+01  1.603E-01  2.000E+01  2.000E+04 -6.344E-02
   1   14   22     1    22    1.1931E+05  4.9971E+03   1.1431E+05  0.000E+00  0.000E+00  0.000E+00  3.83974E+01  1.588E-01  2.000E+01  2.000E+04  2.499E-01
   1    9   30     2     1    5.0000E+04  2.6031E+02   4.9740E+04  0.000E+00  0.000E+00  0.000E+00  4.02407E+01  1.157E-01  2.000E+01  2.000E+04  1.302E-02
   1    9   29     2     2    4.9740E+04 -1.8564E+01   4.9758E+04  0.000E+00  0.000E+00  0.000E+00  3.99905E+01  1.155E-01  2.000E+01  2.000E+04 -9.282E-04
   1    9   28     2     3    4.9758E+04 -2.6288E+02   5.0021E+04  0.000E+00  0.000E+00  0.000E+00  3.97407E+01  1.157E-01  2.000E+01  2.000E+04 -1.314E-02
   1    9   27     2     4    5.0021E+04 -1.5611E+03   5.1582E+04  0.000E+00  0.000E+00  0.000E+00  3.94920E+01  1.170E-01  2.000E+01  2.000E+04 -7.806E-02
   1   10   26     2     5    5.1582E+04  9.4397E+02   5.0638E+04  0.000E+00  0.000E+00  0.000E+00  3.92424E+01  1.174E-01  2.000E+01  2.000E+04  4.720E-02
   1   11   25     2     6    5.0638E+04  2.1822E+03   4.8456E+04  0.000E+00  0.000E+00  0.000E+00  3.89902E+01  1.152E-01  2.000E+01  2.000E+04  1.091E-01
   1   12   24     2     7    4.8456E+04  4.8607E+02   4.7970E+04  0.000E+00  0.000E+00  0.000E+00  3.87384E+01  1.134E-01  2.000E+01  2.000E+04  2.430E-02
   1   13   23     2     8    4.7970E+04 -1.3396E+02   4.8104E+04  0.000E+00  0.000E+00  0.000E+00  3.84881E+01  1.131E-01  2.000E+01  2.000E+04 -6.698E-03
   1   14   22     2     9    4.8104E+04  1.7875E+03   4.6316E+04  0.000E+00  0.000E+00  0.000E+00  3.82369E+01  1.119E-01  2.000E+01  2.000E+04  8.937E-02
   1   14   22     3     1    1.6063E+05 -8.5991E+03   1.6922E+05  0.000E+00  0.000E+00  0.000E+00  3.77176E+01  1.621E-01  2.000E+01  2.000E+04 -4.300E-01
   1   15   23     3     2    1.6922E+05 -4.2984E+02   1.6965E+05  0.000E+00  0.000E+00  0.000E+00  3.68314E+01  1.647E-01  2.000E+01  2.000E+04 -2.149E-02
   1   15   24     3     3    1.6965E+05 -1.6864E+02   1.6982E+05  0.000E+00  0.000E+00  0.000E+00  3.59427E+01  1.649E-01  2.000E+01  2.000E+04 -8.432E-03
   1   15   25     3     4    1.6982E+05 -1.0038E+02   1.6992E+05  0.000E+00  0.000E+00  0.000E+00  3.50538E+01  1.650E-01  2.000E+01  2.000E+04 -5.019E-03
   1   15   26     3     5    1.6992E+05  2.1746E+02   1.6971E+05  0.000E+00  0.000E+00  0.000E+00  3.41649E+01  1.649E-01  2.000E+01  2.000E+04  1.087E-02
   1   16   27     3     6    1.6971E+05  4.6308E+02   1.6924E+05  0.000E+00  0.000E+00  0.000E+00  3.32758E+01  1.647E-01  2.000E+01  2.000E+04  2.315E-02
   1   17   28     3     7    1.6924E+05  1.8116E+03   1.6743E+05  0.000E+00  0.000E+00  0.000E+00  3.23863E+01  1.641E-01  2.000E+01  2.000E+04  9.058E-02
   1   18   29     3     8    1.6743E+05 -1.8058E+03   1.6924E+05  0.000E+00  0.000E+00  0.000E+00  3.14974E+01  1.641E-01  2.000E+01  2.000E+04 -9.029E-02
   1   18   30     3     9    1.6924E+05 -2.0527E+03   1.7129E+05  0.000E+00  0.000E+00  0.000E+00  3.06096E+01  1.652E-01  2.000E+01  2.000E+04 -1.026E-01



1
              HEAD IN LAYER   1 AT END OF TIME STEP   1 IN STRESS PERIOD   11
  ---------------------------------------------------------------------------

          1      2      3      4      5      6      7      8      9     10
         11     12     13     14     15     16     17     18     19     20
         21     22     23     24     25     26     27     28     29     30
 .........................................................................
   1  ****** ****** ****** ****** ****** ****** ****** ****** ****** ******
      ****** ****** ****** ****** ****** ****** ****** ****** ****** ******
      ****** ****** ****** ****** ****** ****** ****** ****** ****** ******
   2  ****** ****** ****** ****** ****** ****** ****** ****** ****** ******
      ****** ****** ****** ****** ****** ****** ****** ****** ****** ******
      ****** ****** ****** ****** ****** ****** ****** ****** ****** ******
   3  ****** ****** ****** ****** ****** ****** ****** ****** ****** ******
      ****** ****** ****** ****** ****** ****** ****** ****** ****** ******
      ****** ****** ****** ****** ****** ****** ****** ****** ****** ******
   4  ****** ****** ****** ****** ****** ****** ****** ****** ****** ******
      ****** ****** ****** ****** ****** ****** ****** ****** ****** ******
      ****** ****** ****** ****** ****** ****** ****** ****** ****** ******
   5  ****** ****** ****** ****** ****** ****** ****** ****** ****** ******
      ****** ****** ****** ****** ****** ****** ****** ****** ****** ******
      ****** ****** ****** ****** ****** ****** ****** ****** ****** ******
   6  ****** ****** ****** ****** ****** ****** ****** ****** ****** ******
      ****** ****** ****** ****** ****** ****** ****** ****** ****** ******
      ****** ****** ****** ****** ****** ****** ****** ****** ****** ******
   7  ****** ****** ****** ****** ****** ****** ****** ****** ****** ******
      ****** ****** ****** ****** ****** ****** ****** ****** ****** ******
      ****** ****** ****** ****** ****** ****** ****** ****** ****** ******
   8  ****** ****** ****** ****** ****** ****** ****** ****** ****** ******
      ****** ****** ****** ****** ****** ****** ****** ****** ****** ******
      ****** ****** ****** ****** ****** ****** ****** ****** ****** ******
   9  ****** ****** ****** ****** ****** ****** ****** ****** ****** ******
      ****** ****** ****** ****** ****** ****** ****** ****** ****** ******
      ****** ****** ****** ****** ****** ****** ****** ****** ****** ******
  10  ****** ****** ****** ****** ****** ****** ****** ****** ****** ******
      ****** ****** ****** ****** ****** ****** ****** ****** ****** ******
      ****** ****** ****** ****** ****** ****** ****** ****** ****** ******
  11  ****** ****** ****** ****** ****** ****** ****** ****** ****** ******
      ****** ****** ****** ****** ****** ****** ****** ****** ****** ******
      ****** ****** ****** ****** ****** ****** ****** ****** ****** ******
  12  ****** ****** ****** ****** ****** ****** ****** ****** ****** ******
      ****** ****** ****** ****** ****** ****** ****** ****** ****** ******
      ****** ****** ****** ****** ****** ****** ****** ****** ****** ******
  13  ****** ****** ****** ****** ****** ****** ****** ****** ****** ******
      ****** ****** ****** ****** ****** ****** ****** ****** ****** ******
      ****** ****** ****** ****** ****** ****** ****** ****** ****** ******
  14  ****** ****** ****** ****** ****** ****** ****** ****** ****** ******
      ****** ****** ****** ****** ****** ****** ****** ****** ****** ******
      ****** ****** ****** ****** ****** ****** ****** ****** ****** ******
  15  ****** ****** ****** ****** ****** ****** ****** ****** ****** ******
      ****** ****** ****** ****** ****** ****** ****** ****** ****** ******
      ****** ****** ****** ****** ****** ****** ****** ****** ****** ******
  16  ****** ****** ****** ****** ****** ****** ****** ****** ****** ******
      ****** ****** ****** ****** ****** ****** ****** ****** ****** ******
      ****** ****** ****** ****** ****** ****** ****** ****** ****** ******
  17  ****** ****** ****** ****** ****** ****** ****** ****** ****** ******
      ****** ****** ****** ****** ****** ****** ****** ****** ****** ******
      ****** ****** ****** ****** ****** ****** ****** ****** ****** ******
  18  ****** ****** ****** ****** ****** ****** ****** ****** ****** ******
      ****** ****** ****** ****** ****** ****** ****** ****** ****** ******
      ****** ****** ****** ****** ****** ****** ****** ****** ****** ******
  19  ****** ****** ****** ****** ****** ****** ****** ****** ****** ******
      ****** ****** ****** ****** ****** ****** ****** ****** ****** ******
      ****** ****** ****** ****** ****** ****** ****** ****** ****** ******
  20  ****** ****** ****** ****** ****** ****** ****** ****** ****** ******
      ****** ****** ****** ****** ****** ****** ****** ****** ****** ******
      ****** ****** ****** ****** ****** ****** ****** ****** ****** ******
  21  ****** ****** ****** ****** ****** ****** ****** ****** ****** ******
      ****** ****** ****** ****** ****** ****** ****** ****** ****** ******
      ****** ****** ****** ****** ****** ****** ****** ****** ****** ******
  22  ****** ****** ****** ****** ****** ****** ****** ****** ****** ******
      ****** ****** ****** ****** ****** ****** ****** ****** ****** ******
      ****** ****** ****** ****** ****** ****** ****** ****** ****** ******
  23  ****** ****** ****** ****** ****** ****** ****** ****** ****** ******
      ****** ****** ****** ****** ****** ****** ****** ****** ****** ******
      ****** ****** ****** ****** ****** ****** ****** ****** ****** ******
  24  ****** ****** ****** ****** ****** ****** ****** ****** ****** ******
      ****** ****** ****** ****** ****** ****** ****** ****** ****** ******
      ****** ****** ****** ****** ****** ****** ****** ****** ****** ******
  25  ****** ****** ****** ****** ****** ****** ****** ****** ****** ******
      ****** ****** ****** ****** ****** ****** ****** ****** ****** ******
      ****** ****** ****** ****** ****** ****** ****** ****** ****** ******

 HEAD WILL BE SAVED ON UNIT   51 AT END OF TIME STEP    1, STRESS PERIOD   11
1
  VOLUMETRIC BUDGET FOR ENTIRE MODEL AT END OF TIME STEP    1, STRESS PERIOD  11
  ------------------------------------------------------------------------------

     CUMULATIVE VOLUMES      L**3       RATES FOR THIS TIME STEP      L**3/T
     ------------------                 ------------------------

           IN:                                      IN:
           ---                                      ---
             STORAGE =    34450353.4342               STORAGE =       17856.8210
       CONSTANT HEAD =    27009291.2065         CONSTANT HEAD =       32875.0715
               WELLS =           0.0000                 WELLS =           0.0000
            RECHARGE =    23901600.0000              RECHARGE =           0.0000
      STREAM LEAKAGE =    10443421.6119        STREAM LEAKAGE =       14337.5272

            TOTAL IN =    95804666.2527              TOTAL IN =       65069.4196

          OUT:                                     OUT:
          ----                                     ----
             STORAGE =     2426614.6643               STORAGE =           0.0000
       CONSTANT HEAD =           0.0000         CONSTANT HEAD =           0.0000
               WELLS =    29559524.4478                 WELLS =       29441.7574
            RECHARGE =           0.0000              RECHARGE =           0.0000
      STREAM LEAKAGE =    63818529.1400        STREAM LEAKAGE =       35627.6671

           TOTAL OUT =    95804668.2522             TOTAL OUT =       65069.4245

            IN - OUT =          -1.9995              IN - OUT =      -4.8769E-03

 PERCENT DISCREPANCY =          -0.00     PERCENT DISCREPANCY =          -0.00






         TIME SUMMARY AT END OF TIME STEP    1 IN STRESS PERIOD   11
                    SECONDS     MINUTES      HOURS       DAYS        YEARS
                    -----------------------------------------------------------
   TIME STEP LENGTH 7.86240E+06 1.31040E+05  2184.0      91.000     0.24914    
 STRESS PERIOD TIME 7.86240E+06 1.31040E+05  2184.0      91.000     0.24914    
         TOTAL TIME 8.67456E+07 1.44576E+06  24096.      1004.0      2.7488    
1
1
                            STRESS PERIOD NO.   12, LENGTH =   91.00000    
                            -----------------------------------------------

                              NUMBER OF TIME STEPS =     1

                               MULTIPLIER FOR DELT =     1.500

                            INITIAL TIME STEP SIZE =   91.00000    

 WELL NO.  LAYER   ROW   COL   STRESS RATE         
 --------------------------------------------------
      1      1     19     11     -0.1013E+05
      2      1     15     28      -7561.    
      3      1     15      7      -2227.    
      4      1     12     26      -9522.    

      4 WELLS

                 RECHARGE =  1.000000E-03

 REUSING STREAM SEGMENT DATA FROM LAST STRESS PERIOD
 
 SOLVING FOR HEAD 


     7 CALLS TO PCG ROUTINE FOR TIME STEP   1 IN STRESS PERIOD   12
    24 TOTAL ITERATIONS

 OUTPUT CONTROL FOR STRESS PERIOD   12   TIME STEP    1
    SAVE BUDGET
    SAVE HEAD FOR ALL LAYERS
    PRINT HEAD FOR ALL LAYERS
 UBDSV2 SAVING "STREAMFLOW OUT  " ON UNIT  50 AT TIME STEP  1, STRESS PERIOD  12



 STREAM LISTING     PERIOD     12   STEP        1

 LAYER ROW COL. STREAM  RCH.  FLOW INTO     FLOW TO   FLOW OUT OF   OVRLND.     DIRECT     STREAM       STREAM     STREAM     STREAM   STREAMBED  STREAMBED
                SEG.NO.  NO.  STRM. RCH.    AQUIFER    STRM. RCH.    RUNOFF     PRECIP       ET          HEAD       DEPTH      WIDTH   CONDCTNC.   GRADIENT

   1   13    1     1     1    1.0000E+05 -1.6279E+03   1.0163E+05  0.000E+00  0.000E+00  0.000E+00  4.84067E+01  1.454E-01  2.000E+01  2.000E+04 -8.140E-02
   1   13    2     1     2    1.0163E+05 -2.5565E+03   1.0418E+05  0.000E+00  0.000E+00  0.000E+00  4.79313E+01  1.472E-01  2.000E+01  2.000E+04 -1.278E-01
   1   14    3     1     3    1.0418E+05 -3.8289E+02   1.0457E+05  0.000E+00  0.000E+00  0.000E+00  4.74552E+01  1.484E-01  2.000E+01  2.000E+04 -1.914E-02
   1   15    4     1     4    1.0457E+05 -2.9748E+02   1.0486E+05  0.000E+00  0.000E+00  0.000E+00  4.69783E+01  1.487E-01  2.000E+01  2.000E+04 -1.487E-02
   1   16    5     1     5    1.0486E+05 -1.0320E+03   1.0590E+05  0.000E+00  0.000E+00  0.000E+00  4.65015E+01  1.493E-01  2.000E+01  2.000E+04 -5.160E-02
   1   16    6     1     6    1.0590E+05 -3.5849E+02   1.0626E+05  0.000E+00  0.000E+00  0.000E+00  4.60249E+01  1.499E-01  2.000E+01  2.000E+04 -1.792E-02
   1   16    7     1     7    1.0626E+05  4.4768E+02   1.0581E+05  0.000E+00  0.000E+00  0.000E+00  4.55476E+01  1.498E-01  2.000E+01  2.000E+04  2.238E-02
   1   16    8     1     8    1.0581E+05 -1.0776E+02   1.0592E+05  0.000E+00  0.000E+00  0.000E+00  4.50701E+01  1.497E-01  2.000E+01  2.000E+04 -5.388E-03
   1   16    9     1     9    1.0592E+05 -1.0655E+02   1.0602E+05  0.000E+00  0.000E+00  0.000E+00  4.45930E+01  1.498E-01  2.000E+01  2.000E+04 -5.327E-03
   1   16   10     1    10    1.0602E+05  8.3030E+01   1.0594E+05  0.000E+00  0.000E+00  0.000E+00  4.41157E+01  1.498E-01  2.000E+01  2.000E+04  4.152E-03
   1   16   11     1    11    1.0594E+05  2.4218E+02   1.0570E+05  0.000E+00  0.000E+00  0.000E+00  4.36383E+01  1.496E-01  2.000E+01  2.000E+04  1.211E-02
   1   16   12     1    12    1.0570E+05 -2.8161E+02   1.0598E+05  0.000E+00  0.000E+00  0.000E+00  4.31610E+01  1.497E-01  2.000E+01  2.000E+04 -1.408E-02
   1   15   13     1    13    1.0598E+05 -1.0748E+03   1.0705E+05  0.000E+00  0.000E+00  0.000E+00  4.26843E+01  1.502E-01  2.000E+01  2.000E+04 -5.374E-02
   1   14   14     1    14    1.0705E+05 -1.6265E+03   1.0868E+05  0.000E+00  0.000E+00  0.000E+00  4.22082E+01  1.514E-01  2.000E+01  2.000E+04 -8.133E-02
   1   13   15     1    15    1.0868E+05 -2.0723E+03   1.1075E+05  0.000E+00  0.000E+00  0.000E+00  4.17325E+01  1.529E-01  2.000E+01  2.000E+04 -1.036E-01
   1   12   16     1    16    1.1075E+05 -2.8064E+03   1.1356E+05  0.000E+00  0.000E+00  0.000E+00  4.12572E+01  1.550E-01  2.000E+01  2.000E+04 -1.403E-01
   1   12   17     1    17    1.1356E+05 -1.8378E+03   1.1540E+05  0.000E+00  0.000E+00  0.000E+00  4.07819E+01  1.569E-01  2.000E+01  2.000E+04 -9.189E-02
   1   12   18     1    18    1.1540E+05 -1.7698E+03   1.1717E+05  0.000E+00  0.000E+00  0.000E+00  4.03061E+01  1.584E-01  2.000E+01  2.000E+04 -8.849E-02
   1   12   19     1    19    1.1717E+05 -2.3442E+03   1.1951E+05  0.000E+00  0.000E+00  0.000E+00  3.98305E+01  1.600E-01  2.000E+01  2.000E+04 -1.172E-01
   1   13   20     1    20    1.1951E+05 -1.7119E+03   1.2122E+05  0.000E+00  0.000E+00  0.000E+00  3.93549E+01  1.617E-01  2.000E+01  2.000E+04 -8.559E-02
   1   14   21     1    21    1.2122E+05 -1.4632E+03   1.2269E+05  0.000E+00  0.000E+00  0.000E+00  3.88789E+01  1.629E-01  2.000E+01  2.000E+04 -7.316E-02
   1   14   22     1    22    1.2269E+05  4.9430E+03   1.1774E+05  0.000E+00  0.000E+00  0.000E+00  3.84002E+01  1.615E-01  2.000E+01  2.000E+04  2.472E-01
   1    9   30     2     1    5.0000E+04  8.3682E+01   4.9916E+04  0.000E+00  0.000E+00  0.000E+00  4.02408E+01  1.158E-01  2.000E+01  2.000E+04  4.184E-03
   1    9   29     2     2    4.9916E+04 -1.9316E+02   5.0109E+04  0.000E+00  0.000E+00  0.000E+00  3.99909E+01  1.159E-01  2.000E+01  2.000E+04 -9.658E-03
   1    9   28     2     3    5.0109E+04 -4.3400E+02   5.0543E+04  0.000E+00  0.000E+00  0.000E+00  3.97413E+01  1.163E-01  2.000E+01  2.000E+04 -2.170E-02
   1    9   27     2     4    5.0543E+04 -1.7708E+03   5.2314E+04  0.000E+00  0.000E+00  0.000E+00  3.94928E+01  1.178E-01  2.000E+01  2.000E+04 -8.854E-02
   1   10   26     2     5    5.2314E+04  7.1366E+02   5.1601E+04  0.000E+00  0.000E+00  0.000E+00  3.92436E+01  1.186E-01  2.000E+01  2.000E+04  3.568E-02
   1   11   25     2     6    5.1601E+04  1.9558E+03   4.9645E+04  0.000E+00  0.000E+00  0.000E+00  3.89917E+01  1.167E-01  2.000E+01  2.000E+04  9.779E-02
   1   12   24     2     7    4.9645E+04  2.7946E+02   4.9365E+04  0.000E+00  0.000E+00  0.000E+00  3.87402E+01  1.152E-01  2.000E+01  2.000E+04  1.397E-02
   1   13   23     2     8    4.9365E+04 -2.1165E+02   4.9577E+04  0.000E+00  0.000E+00  0.000E+00  3.84901E+01  1.151E-01  2.000E+01  2.000E+04 -1.058E-02
   1   14   22     2     9    4.9577E+04  1.7208E+03   4.7856E+04  0.000E+00  0.000E+00  0.000E+00  3.82391E+01  1.141E-01  2.000E+01  2.000E+04  8.604E-02
   1   14   22     3     1    1.6560E+05 -8.6497E+03   1.7425E+05  0.000E+00  0.000E+00  0.000E+00  3.77205E+01  1.650E-01  2.000E+01  2.000E+04 -4.325E-01
   1   15   23     3     2    1.7425E+05 -5.0190E+02   1.7475E+05  0.000E+00  0.000E+00  0.000E+00  3.68343E+01  1.676E-01  2.000E+01  2.000E+04 -2.510E-02
   1   15   24     3     3    1.7475E+05 -2.3375E+02   1.7498E+05  0.000E+00  0.000E+00  0.000E+00  3.59456E+01  1.679E-01  2.000E+01  2.000E+04 -1.169E-02
   1   15   25     3     4    1.7498E+05 -1.6676E+02   1.7515E+05  0.000E+00  0.000E+00  0.000E+00  3.50569E+01  1.680E-01  2.000E+01  2.000E+04 -8.338E-03
   1   15   26     3     5    1.7515E+05  1.3996E+02   1.7501E+05  0.000E+00  0.000E+00  0.000E+00  3.41680E+01  1.680E-01  2.000E+01  2.000E+04  6.998E-03
   1   16   27     3     6    1.7501E+05  3.7626E+02   1.7463E+05  0.000E+00  0.000E+00  0.000E+00  3.32789E+01  1.678E-01  2.000E+01  2.000E+04  1.881E-02
   1   17   28     3     7    1.7463E+05  1.5908E+03   1.7304E+05  0.000E+00  0.000E+00  0.000E+00  3.23895E+01  1.673E-01  2.000E+01  2.000E+04  7.954E-02
   1   18   29     3     8    1.7304E+05 -2.0067E+03   1.7505E+05  0.000E+00  0.000E+00  0.000E+00  3.15007E+01  1.674E-01  2.000E+01  2.000E+04 -1.003E-01
   1   18   30     3     9    1.7505E+05 -2.2209E+03   1.7727E+05  0.000E+00  0.000E+00  0.000E+00  3.06130E+01  1.686E-01  2.000E+01  2.000E+04 -1.110E-01



1
              HEAD IN LAYER   1 AT END OF TIME STEP   1 IN STRESS PERIOD   12
  ---------------------------------------------------------------------------

          1      2      3      4      5      6      7      8      9     10
         11     12     13     14     15     16     17     18     19     20
         21     22     23     24     25     26     27     28     29     30
 .........................................................................
   1  ****** ****** ****** ****** ****** ****** ****** ****** ****** ******
      ****** ****** ****** ****** ****** ****** ****** ****** ****** ******
      ****** ****** ****** ****** ****** ****** ****** ****** ****** ******
   2  ****** ****** ****** ****** ****** ****** ****** ****** ****** ******
      ****** ****** ****** ****** ****** ****** ****** ****** ****** ******
      ****** ****** ****** ****** ****** ****** ****** ****** ****** ******
   3  ****** ****** ****** ****** ****** ****** ****** ****** ****** ******
      ****** ****** ****** ****** ****** ****** ****** ****** ****** ******
      ****** ****** ****** ****** ****** ****** ****** ****** ****** ******
   4  ****** ****** ****** ****** ****** ****** ****** ****** ****** ******
      ****** ****** ****** ****** ****** ****** ****** ****** ****** ******
      ****** ****** ****** ****** ****** ****** ****** ****** ****** ******
   5  ****** ****** ****** ****** ****** ****** ****** ****** ****** ******
      ****** ****** ****** ****** ****** ****** ****** ****** ****** ******
      ****** ****** ****** ****** ****** ****** ****** ****** ****** ******
   6  ****** ****** ****** ****** ****** ****** ****** ****** ****** ******
      ****** ****** ****** ****** ****** ****** ****** ****** ****** ******
      ****** ****** ****** ****** ****** ****** ****** ****** ****** ******
   7  ****** ****** ****** ****** ****** ****** ****** ****** ****** ******
      ****** ****** ****** ****** ****** ****** ****** ****** ****** ******
      ****** ****** ****** ****** ****** ****** ****** ****** ****** ******
   8  ****** ****** ****** ****** ****** ****** ****** ****** ****** ******
      ****** ****** ****** ****** ****** ****** ****** ****** ****** ******
      ****** ****** ****** ****** ****** ****** ****** ****** ****** ******
   9  ****** ****** ****** ****** ****** ****** ****** ****** ****** ******
      ****** ****** ****** ****** ****** ****** ****** ****** ****** ******
      ****** ****** ****** ****** ****** ****** ****** ****** ****** ******
  10  ****** ****** ****** ****** ****** ****** ****** ****** ****** ******
      ****** ****** ****** ****** ****** ****** ****** ****** ****** ******
      ****** ****** ****** ****** ****** ****** ****** ****** ****** ******
  11  ****** ****** ****** ****** ****** ****** ****** ****** ****** ******
      ****** ****** ****** ****** ****** ****** ****** ****** ****** ******
      ****** ****** ****** ****** ****** ****** ****** ****** ****** ******
  12  ****** ****** ****** ****** ****** ****** ****** ****** ****** ******
      ****** ****** ****** ****** ****** ****** ****** ****** ****** ******
      ****** ****** ****** ****** ****** ****** ****** ****** ****** ******
  13  ****** ****** ****** ****** ****** ****** ****** ****** ****** ******
      ****** ****** ****** ****** ****** ****** ****** ****** ****** ******
      ****** ****** ****** ****** ****** ****** ****** ****** ****** ******
  14  ****** ****** ****** ****** ****** ****** ****** ****** ****** ******
      ****** ****** ****** ****** ****** ****** ****** ****** ****** ******
      ****** ****** ****** ****** ****** ****** ****** ****** ****** ******
  15  ****** ****** ****** ****** ****** ****** ****** ****** ****** ******
      ****** ****** ****** ****** ****** ****** ****** ****** ****** ******
      ****** ****** ****** ****** ****** ****** ****** ****** ****** ******
  16  ****** ****** ****** ****** ****** ****** ****** ****** ****** ******
      ****** ****** ****** ****** ****** ****** ****** ****** ****** ******
      ****** ****** ****** ****** ****** ****** ****** ****** ****** ******
  17  ****** ****** ****** ****** ****** ****** ****** ****** ****** ******
      ****** ****** ****** ****** ****** ****** ****** ****** ****** ******
      ****** ****** ****** ****** ****** ****** ****** ****** ****** ******
  18  ****** ****** ****** ****** ****** ****** ****** ****** ****** ******
      ****** ****** ****** ****** ****** ****** ****** ****** ****** ******
      ****** ****** ****** ****** ****** ****** ****** ****** ****** ******
  19  ****** ****** ****** ****** ****** ****** ****** ****** ****** ******
      ****** ****** ****** ****** ****** ****** ****** ****** ****** ******
      ****** ****** ****** ****** ****** ****** ****** ****** ****** ******
  20  ****** ****** ****** ****** ****** ****** ****** ****** ****** ******
      ****** ****** ****** ****** ****** ****** ****** ****** ****** ******
      ****** ****** ****** ****** ****** ****** ****** ****** ****** ******
  21  ****** ****** ****** ****** ****** ****** ****** ****** ****** ******
      ****** ****** ****** ****** ****** ****** ****** ****** ****** ******
      ****** ****** ****** ****** ****** ****** ****** ****** ****** ******
  22  ****** ****** ****** ****** ****** ****** ****** ****** ****** ******
      ****** ****** ****** ****** ****** ****** ****** ****** ****** ******
      ****** ****** ****** ****** ****** ****** ****** ****** ****** ******
  23  ****** ****** ****** ****** ****** ****** ****** ****** ****** ******
      ****** ****** ****** ****** ****** ****** ****** ****** ****** ******
      ****** ****** ****** ****** ****** ****** ****** ****** ****** ******
  24  ****** ****** ****** ****** ****** ****** ****** ****** ****** ******
      ****** ****** ****** ****** ****** ****** ****** ****** ****** ******
      ****** ****** ****** ****** ****** ****** ****** ****** ****** ******
  25  ****** ****** ****** ****** ****** ****** ****** ****** ****** ******
      ****** ****** ****** ****** ****** ****** ****** ****** ****** ******
      ****** ****** ****** ****** ****** ****** ****** ****** ****** ******

 HEAD WILL BE SAVED ON UNIT   51 AT END OF TIME STEP    1, STRESS PERIOD   12
1
  VOLUMETRIC BUDGET FOR ENTIRE MODEL AT END OF TIME STEP    1, STRESS PERIOD  12
  ------------------------------------------------------------------------------

     CUMULATIVE VOLUMES      L**3       RATES FOR THIS TIME STEP      L**3/T
     ------------------                 ------------------------

           IN:                                      IN:
           ---                                      ---
             STORAGE =    34450899.8666               STORAGE =           6.0048
       CONSTANT HEAD =    29936944.7680         CONSTANT HEAD =       32172.0172
               WELLS =           0.0000                 WELLS =           0.0000
            RECHARGE =    26413200.0000              RECHARGE =       27600.0000
      STREAM LEAKAGE =    11587880.6844        STREAM LEAKAGE =       12576.4733

            TOTAL IN =   102388925.3190              TOTAL IN =       72354.4952

          OUT:                                     OUT:
          ----                                     ----
             STORAGE =     2705542.9167               STORAGE =        3065.1456
       CONSTANT HEAD =           0.0000         CONSTANT HEAD =           0.0000
               WELLS =    32238724.3729                 WELLS =       29441.7574
            RECHARGE =           0.0000              RECHARGE =           0.0000
      STREAM LEAKAGE =    67444659.9436        STREAM LEAKAGE =       39847.5912

           TOTAL OUT =   102388927.2332             TOTAL OUT =       72354.4943

            IN - OUT =          -1.9143              IN - OUT =       9.3684E-04

 PERCENT DISCREPANCY =          -0.00     PERCENT DISCREPANCY =           0.00






         TIME SUMMARY AT END OF TIME STEP    1 IN STRESS PERIOD   12
                    SECONDS     MINUTES      HOURS       DAYS        YEARS
                    -----------------------------------------------------------
   TIME STEP LENGTH 7.86240E+06 1.31040E+05  2184.0      91.000     0.24914    
 STRESS PERIOD TIME 7.86240E+06 1.31040E+05  2184.0      91.000     0.24914    
         TOTAL TIME 9.46080E+07 1.57680E+06  26280.      1095.0      2.9979    
1

 Run end date and time (yyyy/mm/dd hh:mm:ss): 2019/05/25 20:36:24
 Elapsed run time:  0.071 Seconds

