                                  MODFLOW-2005     
      U.S. GEOLOGICAL SURVEY MODULAR FINITE-DIFFERENCE GROUND-WATER FLOW MODEL
                            VERSION 1.11.00 8/8/2013

 LIST FILE: supply2.lst
                         UNIT   10

 OPENING ..\data\supply.dis
 FILE TYPE:DIS   UNIT   11   STATUS:OLD    
 FORMAT:FORMATTED              ACCESS:SEQUENTIAL          

 OPENING ..\data\supply.ba6
 FILE TYPE:BAS6   UNIT   12   STATUS:OLD    
 FORMAT:FORMATTED              ACCESS:SEQUENTIAL          

 OPENING ..\data\supply_het.bc6
 FILE TYPE:BCF6   UNIT   13   STATUS:OLD    
 FORMAT:FORMATTED              ACCESS:SEQUENTIAL          

 OPENING ..\data\supply.rch
 FILE TYPE:RCH   UNIT   15   STATUS:OLD    
 FORMAT:FORMATTED              ACCESS:SEQUENTIAL          

 OPENING ..\data\supply2.sfr
 FILE TYPE:SFR   UNIT   16   STATUS:OLD    
 FORMAT:FORMATTED              ACCESS:SEQUENTIAL          

 OPENING ..\data\supply.oc
 FILE TYPE:OC   UNIT   17   STATUS:OLD    
 FORMAT:FORMATTED              ACCESS:SEQUENTIAL          

 OPENING ..\data\supply.pcg
 FILE TYPE:PCG   UNIT   18   STATUS:OLD    
 FORMAT:FORMATTED              ACCESS:SEQUENTIAL          

 OPENING supply2.wel
 FILE TYPE:WEL   UNIT   19   STATUS:OLD    
 FORMAT:FORMATTED              ACCESS:SEQUENTIAL          

 OPENING supply2sf.cbc
 FILE TYPE:DATA(BINARY)   UNIT   50   STATUS:UNKNOWN
 FORMAT:BINARY                 ACCESS:SEQUENTIAL          

 OPENING supply2hd.bhd
 FILE TYPE:DATA(BINARY)   UNIT   51   STATUS:UNKNOWN
 FORMAT:BINARY                 ACCESS:SEQUENTIAL          

 BAS -- BASIC PACKAGE, VERSION 7, 5/2/2005 INPUT READ FROM UNIT   12
 
 MODFLOW was compiled using uniform precision
 Precision of REAL and DOUBLE PRECISION variables:          15

 DISCRETIZATION INPUT DATA READ FROM UNIT   11
    1 LAYERS        25 ROWS        30 COLUMNS
   12 STRESS PERIOD(S) IN SIMULATION
 MODEL TIME UNIT IS DAYS
 MODEL LENGTH UNIT IS UNDEFINED
  Confining bed flag for each layer:
   0

                     DELR =   200.000    

                     DELC =   200.000    

 TOP ELEVATION OF LAYER 1 =  100.0000    

   MODEL LAYER BOTTOM EL. =   0.00000     FOR LAYER   1


 STRESS PERIOD     LENGTH       TIME STEPS     MULTIPLIER FOR DELT    SS FLAG
 ----------------------------------------------------------------------------
        1         92.00000          1                    1.500         TR
        2         91.00000          1                    1.500         TR
        3         91.00000          1                    1.500         TR
        4         91.00000          1                    1.500         TR
        5         92.00000          1                    1.500         TR
        6         91.00000          1                    1.500         TR
        7         91.00000          1                    1.500         TR
        8         91.00000          1                    1.500         TR
        9         92.00000          1                    1.500         TR
       10         91.00000          1                    1.500         TR
       11         91.00000          1                    1.500         TR
       12         91.00000          1                    1.500         TR

 TRANSIENT SIMULATION



 
 #MODOFC transient water supply sample problem                                   
 #                                                                               
 THE FREE FORMAT OPTION HAS BEEN SELECTED



                     BOUNDARY ARRAY FOR LAYER   1
 READING ON UNIT   12 WITH FORMAT: (20I4)              

 AQUIFER HEAD WILL BE SET TO   0.0000     AT ALL NO-FLOW NODES (IBOUND=0).



                       INITIAL HEAD FOR LAYER   1
 READING ON UNIT   12 WITH FORMAT: (10F13.0)           

 OUTPUT CONTROL IS SPECIFIED ONLY AT TIME STEPS FOR WHICH OUTPUT IS DESIRED
 COMPACT CELL-BY-CELL BUDGET FILES WILL BE WRITTEN
 HEAD PRINT FORMAT CODE IS  18    DRAWDOWN PRINT FORMAT CODE IS   0
 HEADS WILL BE SAVED ON UNIT   51    DRAWDOWNS WILL BE SAVED ON UNIT    0

 BCF -- BLOCK-CENTERED FLOW PACKAGE, VERSION 7, 5/2/2005
         INPUT READ FROM UNIT 13
 TRANSIENT SIMULATION
 HEAD AT CELLS THAT CONVERT TO DRY=   0.0000    
 WETTING CAPABILITY IS NOT ACTIVE
      LAYER  LAYER-TYPE CODE     INTERBLOCK T
      --------------------------------------------
         1            0          0 -- HARMONIC    

 COLUMN TO ROW ANISOTROPY =  1.000000    

     PRIMARY STORAGE COEF =  5.000000E-02 FOR LAYER   1



               TRANSMIS. ALONG ROWS FOR LAYER   1
 READING ON UNIT   13 WITH FORMAT: (FREE)              

 WEL -- WELL PACKAGE, VERSION 7, 5/2/2005 INPUT READ FROM UNIT   19
 # Well package input file written by MMProc
 No named parameters
 MAXIMUM OF      8 ACTIVE WELLS AT ONE TIME


     0 Well parameters

 RCH -- RECHARGE PACKAGE, VERSION 7, 5/2/2005 INPUT READ FROM UNIT   15
 No named parameters
 OPTION 1 -- RECHARGE TO TOP LAYER


     0 Recharge parameters

 SFR7 -- STREAMFLOW ROUTING PACKAGE, VERSION 1.0.7, 2013-01-15
         INPUT READ FROM UNIT  16
 #  Supply2 test problem for GWM-VI
 #  The eighth entry in the first data line is ISTCB2 -
 #    Setting this to a negative number indicates that
 #    streamflows out of the reach will be saved to a
 #    binary file.  The absolute value of ISTCB2 is the
 #    unit to which unformatted flows will be written.
 #
 No named parameters
 Segment information will not be 
 read by reach
 No named parameters
 No specifed inflow files


 NUMBER OF STREAM REACHES IS   40

 NUMBER OF STREAM SEGMENTS IS    3

 NUMBER OF STREAM PARAMETERS IS    0

 NUMBER OF STREAM SEGMENTS DEFINED USING PARAMETERS IS              0

 MAXIMUM ERROR FOR STREAM LEAKAGE RATES IS  1.00E-04

 CONSTANT FOR MANNINGS EQUATION IS  1.2839E+05





   STREAM NETWORK DESCRIPTION: 

   LAYER    ROW    COL   SEGMENT   REACH     LENGTH
                          NUMBER   NUMBER    IN CELL        
   --------------------------------------------------
      1     13      1       1        1    2.0000E+02
      1     13      2       1        2    2.0000E+02
      1     14      3       1        3    2.0000E+02
      1     15      4       1        4    2.0000E+02
      1     16      5       1        5    2.0000E+02
      1     16      6       1        6    2.0000E+02
      1     16      7       1        7    2.0000E+02
      1     16      8       1        8    2.0000E+02
      1     16      9       1        9    2.0000E+02
      1     16     10       1       10    2.0000E+02
      1     16     11       1       11    2.0000E+02
      1     16     12       1       12    2.0000E+02
      1     15     13       1       13    2.0000E+02
      1     14     14       1       14    2.0000E+02
      1     13     15       1       15    2.0000E+02
      1     12     16       1       16    2.0000E+02
      1     12     17       1       17    2.0000E+02
      1     12     18       1       18    2.0000E+02
      1     12     19       1       19    2.0000E+02
      1     13     20       1       20    2.0000E+02
      1     14     21       1       21    2.0000E+02
      1     14     22       1       22    2.0000E+02
      1      9     30       2        1    2.0000E+02
      1      9     29       2        2    2.0000E+02
      1      9     28       2        3    2.0000E+02
      1      9     27       2        4    2.0000E+02
      1     10     26       2        5    2.0000E+02
      1     11     25       2        6    2.0000E+02
      1     12     24       2        7    2.0000E+02
      1     13     23       2        8    2.0000E+02
      1     14     22       2        9    2.0000E+02
      1     14     22       3        1    2.0000E+02
      1     15     23       3        2    2.0000E+02
      1     15     24       3        3    2.0000E+02
      1     15     25       3        4    2.0000E+02
      1     15     26       3        5    2.0000E+02
      1     16     27       3        6    2.0000E+02
      1     17     28       3        7    2.0000E+02
      1     18     29       3        8    2.0000E+02
      1     18     30       3        9    2.0000E+02




 PCG -- CONJUGATE-GRADIENT SOLUTION PACKAGE, VERSION 7, 5/2/2005
 MAXIMUM OF    500 CALLS OF SOLUTION ROUTINE
 MAXIMUM OF      5 INTERNAL ITERATIONS PER CALL TO SOLUTION ROUTINE
 MATRIX PRECONDITIONING TYPE :    1



                                    SOLUTION BY THE CONJUGATE-GRADIENT METHOD
                                   -------------------------------------------
                    MAXIMUM NUMBER OF CALLS TO PCG ROUTINE =      500
                        MAXIMUM ITERATIONS PER CALL TO PCG =        5
                               MATRIX PRECONDITIONING TYPE =        1
        RELAXATION FACTOR (ONLY USED WITH PRECOND. TYPE 1) =    0.10000E+01
 PARAMETER OF POLYNOMIAL PRECOND. = 2 (2) OR IS CALCULATED :        0
                         HEAD CHANGE CRITERION FOR CLOSURE =    0.10000E-05
                     RESIDUAL CHANGE CRITERION FOR CLOSURE =    0.10000E+01
            PCG HEAD AND RESIDUAL CHANGE PRINTOUT INTERVAL =        1
     PRINTING FROM SOLVER IS LIMITED(1) OR SUPPRESSED (>1) =        1
                            STEADY-STATE DAMPING PARAMETER =    0.10000E+01
                               TRANSIENT DAMPING PARAMETER =    0.10000E+01
1
                            STRESS PERIOD NO.    1, LENGTH =   92.00000    
                            -----------------------------------------------

                              NUMBER OF TIME STEPS =     1

                               MULTIPLIER FOR DELT =     1.500

                            INITIAL TIME STEP SIZE =   92.00000    

 WELL NO.  LAYER   ROW   COL   STRESS RATE         
 --------------------------------------------------
      1      1     14      6       0.000    
      2      1      3      9       0.000    
      3      1     20     10       0.000    
      4      1     14     20       0.000    
      5      1     16     21      -8812.    
      6      1     20     20      -6819.    
      7      1      4     15      -7093.    
      8      1     21     14      -7630.    

      8 WELLS

                 RECHARGE =  5.000000E-04



 CLASSIFICATION & COUNT OF STREAM SEGMENTS BASED ON SOURCE OF INFLOW:

                HEADWATER     DIVERSION     RECEIVES TRIBUTARY FLOW
                ---------     ---------     -----------------------
                     2              0               1



                    INPUT DATA FOR EACH STREAM SEGMENT
 ---------------------------------------------------------------------------------------------

 SEGMENT    SEG.     INFLOW   OVERLAND   STREAM    STREAM   ICALC  OUTFLOW  DIVERSION PRIORITY
    NO.    LENGTH     RATE     RUNOFF      ET       PPT.    METH.  TO SEG.  FROM SEG.    NO.

      1  4.400E+03 1.000E+05 0.000E+00 0.000E+00 0.000E+00    1        3        0        0
      2  1.800E+03 5.000E+04 0.000E+00 0.000E+00 0.000E+00    1        3        0        0
      3  1.800E+03 0.000E+00 0.000E+00 0.000E+00 0.000E+00    1        0        0        0


         STREAMBED PROPERTIES AND STREAM DIMENSIONS

 SEGMENT     BED HYD. COND.      BED THICKNESS     ELEV.-TOP OF BED     WIDTH OF STREAM     DEPTH OF STREAM    STREAM ROUGHNESS
    No.     UPPER     LOWER     UPPER     LOWER     UPPER     LOWER     UPPER     LOWER     UPPER     LOWER   CHANNEL      BANK

     1  5.000E+00 5.000E+00 1.000E+00 1.000E+00 4.850E+01 3.800E+01 2.000E+01 2.000E+01                     5.000E-02
     2  5.000E+00 5.000E+00 1.000E+00 1.000E+00 4.025E+01 3.800E+01 2.000E+01 2.000E+01                     5.000E-02
     3  5.000E+00 5.000E+00 1.000E+00 1.000E+00 3.800E+01 3.000E+01 2.000E+01 2.000E+01                     5.000E-02



 
 SOLVING FOR HEAD 


     9 CALLS TO PCG ROUTINE FOR TIME STEP   1 IN STRESS PERIOD    1
    36 TOTAL ITERATIONS

 OUTPUT CONTROL FOR STRESS PERIOD    1   TIME STEP    1
    SAVE BUDGET
    SAVE HEAD FOR ALL LAYERS
    PRINT HEAD FOR ALL LAYERS
 UBDSV2 SAVING "STREAMFLOW OUT  " ON UNIT  50 AT TIME STEP  1, STRESS PERIOD   1



 STREAM LISTING     PERIOD      1   STEP        1

 LAYER ROW COL. STREAM  RCH.  FLOW INTO     FLOW TO   FLOW OUT OF   OVRLND.     DIRECT     STREAM       STREAM     STREAM     STREAM   STREAMBED  STREAMBED
                SEG.NO.  NO.  STRM. RCH.    AQUIFER    STRM. RCH.    RUNOFF     PRECIP       ET          HEAD       DEPTH      WIDTH   CONDCTNC.   GRADIENT

   1   13    1     1     1    1.0000E+05 -6.1017E+03   1.0610E+05  0.000E+00  0.000E+00  0.000E+00  4.84086E+01  1.473E-01  2.000E+01  2.000E+04 -3.051E-01
   1   13    2     1     2    1.0610E+05 -7.5713E+03   1.1367E+05  0.000E+00  0.000E+00  0.000E+00  4.79372E+01  1.531E-01  2.000E+01  2.000E+04 -3.786E-01
   1   14    3     1     3    1.1367E+05 -2.1950E+03   1.1587E+05  0.000E+00  0.000E+00  0.000E+00  4.74639E+01  1.571E-01  2.000E+01  2.000E+04 -1.098E-01
   1   15    4     1     4    1.1587E+05 -2.2632E+03   1.1813E+05  0.000E+00  0.000E+00  0.000E+00  4.69885E+01  1.589E-01  2.000E+01  2.000E+04 -1.132E-01
   1   16    5     1     5    1.1813E+05 -7.1066E+03   1.2524E+05  0.000E+00  0.000E+00  0.000E+00  4.65150E+01  1.627E-01  2.000E+01  2.000E+04 -3.553E-01
   1   16    6     1     6    1.2524E+05 -4.2358E+03   1.2947E+05  0.000E+00  0.000E+00  0.000E+00  4.60422E+01  1.672E-01  2.000E+01  2.000E+04 -2.118E-01
   1   16    7     1     7    1.2947E+05 -4.0484E+03   1.3352E+05  0.000E+00  0.000E+00  0.000E+00  4.55682E+01  1.705E-01  2.000E+01  2.000E+04 -2.024E-01
   1   16    8     1     8    1.3352E+05 -3.9741E+03   1.3750E+05  0.000E+00  0.000E+00  0.000E+00  4.50940E+01  1.736E-01  2.000E+01  2.000E+04 -1.987E-01
   1   16    9     1     9    1.3750E+05 -3.9163E+03   1.4141E+05  0.000E+00  0.000E+00  0.000E+00  4.46198E+01  1.766E-01  2.000E+01  2.000E+04 -1.958E-01
   1   16   10     1    10    1.4141E+05 -3.8480E+03   1.4526E+05  0.000E+00  0.000E+00  0.000E+00  4.41454E+01  1.795E-01  2.000E+01  2.000E+04 -1.924E-01
   1   16   11     1    11    1.4526E+05 -3.7854E+03   1.4905E+05  0.000E+00  0.000E+00  0.000E+00  4.36710E+01  1.824E-01  2.000E+01  2.000E+04 -1.893E-01
   1   16   12     1    12    1.4905E+05 -6.2550E+03   1.5530E+05  0.000E+00  0.000E+00  0.000E+00  4.31975E+01  1.861E-01  2.000E+01  2.000E+04 -3.128E-01
   1   15   13     1    13    1.5530E+05 -6.7419E+03   1.6204E+05  0.000E+00  0.000E+00  0.000E+00  4.27249E+01  1.908E-01  2.000E+01  2.000E+04 -3.371E-01
   1   14   14     1    14    1.6204E+05 -7.3109E+03   1.6935E+05  0.000E+00  0.000E+00  0.000E+00  4.22527E+01  1.958E-01  2.000E+01  2.000E+04 -3.655E-01
   1   13   15     1    15    1.6935E+05 -7.7161E+03   1.7707E+05  0.000E+00  0.000E+00  0.000E+00  4.17807E+01  2.011E-01  2.000E+01  2.000E+04 -3.858E-01
   1   12   16     1    16    1.7707E+05 -8.4820E+03   1.8555E+05  0.000E+00  0.000E+00  0.000E+00  4.13090E+01  2.067E-01  2.000E+01  2.000E+04 -4.241E-01
   1   12   17     1    17    1.8555E+05 -5.9490E+03   1.9150E+05  0.000E+00  0.000E+00  0.000E+00  4.08366E+01  2.116E-01  2.000E+01  2.000E+04 -2.975E-01
   1   12   18     1    18    1.9150E+05 -5.7799E+03   1.9728E+05  0.000E+00  0.000E+00  0.000E+00  4.03633E+01  2.155E-01  2.000E+01  2.000E+04 -2.890E-01
   1   12   19     1    19    1.9728E+05 -7.3885E+03   2.0467E+05  0.000E+00  0.000E+00  0.000E+00  3.98903E+01  2.199E-01  2.000E+01  2.000E+04 -3.694E-01
   1   13   20     1    20    2.0467E+05 -6.0047E+03   2.1067E+05  0.000E+00  0.000E+00  0.000E+00  3.94174E+01  2.243E-01  2.000E+01  2.000E+04 -3.002E-01
   1   14   21     1    21    2.1067E+05 -3.9694E+03   2.1464E+05  0.000E+00  0.000E+00  0.000E+00  3.89434E+01  2.275E-01  2.000E+01  2.000E+04 -1.985E-01
   1   14   22     1    22    2.1464E+05  4.1442E+03   2.1050E+05  0.000E+00  0.000E+00  0.000E+00  3.84661E+01  2.274E-01  2.000E+01  2.000E+04  2.072E-01
   1    9   30     2     1    5.0000E+04 -4.8483E+03   5.4848E+04  0.000E+00  0.000E+00  0.000E+00  4.02442E+01  1.192E-01  2.000E+01  2.000E+04 -2.424E-01
   1    9   29     2     2    5.4848E+04 -5.1424E+03   5.9991E+04  0.000E+00  0.000E+00  0.000E+00  4.00009E+01  1.259E-01  2.000E+01  2.000E+04 -2.571E-01
   1    9   28     2     3    5.9991E+04 -5.4240E+03   6.5415E+04  0.000E+00  0.000E+00  0.000E+00  3.97577E+01  1.327E-01  2.000E+01  2.000E+04 -2.712E-01
   1    9   27     2     4    6.5415E+04 -8.2594E+03   7.3674E+04  0.000E+00  0.000E+00  0.000E+00  3.95162E+01  1.412E-01  2.000E+01  2.000E+04 -4.130E-01
   1   10   26     2     5    7.3674E+04 -7.2993E+03   8.0973E+04  0.000E+00  0.000E+00  0.000E+00  3.92755E+01  1.505E-01  2.000E+01  2.000E+04 -3.650E-01
   1   11   25     2     6    8.0973E+04 -6.7543E+03   8.7728E+04  0.000E+00  0.000E+00  0.000E+00  3.90336E+01  1.586E-01  2.000E+01  2.000E+04 -3.377E-01
   1   12   24     2     7    8.7728E+04 -6.2639E+03   9.3991E+04  0.000E+00  0.000E+00  0.000E+00  3.87908E+01  1.658E-01  2.000E+01  2.000E+04 -3.132E-01
   1   13   23     2     8    9.3991E+04 -1.6437E+03   9.5635E+04  0.000E+00  0.000E+00  0.000E+00  3.85451E+01  1.701E-01  2.000E+01  2.000E+04 -8.218E-02
   1   14   22     2     9    9.5635E+04  7.3479E+02   9.4900E+04  0.000E+00  0.000E+00  0.000E+00  3.82956E+01  1.706E-01  2.000E+01  2.000E+04  3.674E-02
   1   14   22     3     1    3.0540E+05 -9.3321E+03   3.1473E+05  0.000E+00  0.000E+00  0.000E+00  3.77922E+01  2.367E-01  2.000E+01  2.000E+04 -4.666E-01
   1   15   23     3     2    3.1473E+05 -1.5527E+03   3.1628E+05  0.000E+00  0.000E+00  0.000E+00  3.69058E+01  2.392E-01  2.000E+01  2.000E+04 -7.763E-02
   1   15   24     3     3    3.1628E+05 -1.4697E+03   3.1775E+05  0.000E+00  0.000E+00  0.000E+00  3.60176E+01  2.399E-01  2.000E+01  2.000E+04 -7.348E-02
   1   15   25     3     4    3.1775E+05 -1.5542E+03   3.1931E+05  0.000E+00  0.000E+00  0.000E+00  3.51294E+01  2.405E-01  2.000E+01  2.000E+04 -7.771E-02
   1   15   26     3     5    3.1931E+05 -1.8726E+03   3.2118E+05  0.000E+00  0.000E+00  0.000E+00  3.42413E+01  2.413E-01  2.000E+01  2.000E+04 -9.363E-02
   1   16   27     3     6    3.2118E+05 -2.1472E+03   3.2333E+05  0.000E+00  0.000E+00  0.000E+00  3.33533E+01  2.422E-01  2.000E+01  2.000E+04 -1.074E-01
   1   17   28     3     7    3.2333E+05 -6.5077E+03   3.2984E+05  0.000E+00  0.000E+00  0.000E+00  3.24664E+01  2.442E-01  2.000E+01  2.000E+04 -3.254E-01
   1   18   29     3     8    3.2984E+05 -7.8254E+03   3.3766E+05  0.000E+00  0.000E+00  0.000E+00  3.15807E+01  2.474E-01  2.000E+01  2.000E+04 -3.913E-01
   1   18   30     3     9    3.3766E+05 -7.0783E+03   3.4474E+05  0.000E+00  0.000E+00  0.000E+00  3.06951E+01  2.507E-01  2.000E+01  2.000E+04 -3.539E-01



1
              HEAD IN LAYER   1 AT END OF TIME STEP   1 IN STRESS PERIOD    1
  ---------------------------------------------------------------------------

          1      2      3      4      5      6      7      8      9     10
         11     12     13     14     15     16     17     18     19     20
         21     22     23     24     25     26     27     28     29     30
 .........................................................................
   1  ****** ****** ****** ****** ****** ****** ****** ****** ****** ******
      ****** ****** ****** ****** ****** ****** ****** ****** ****** ******
      ****** ****** ****** ****** ****** ****** ****** ****** ****** ******
   2  ****** ****** ****** ****** ****** ****** ****** ****** ****** ******
      ****** ****** ****** ****** ****** ****** ****** ****** ****** ******
      ****** ****** ****** ****** ****** ****** ****** ****** ****** ******
   3  ****** ****** ****** ****** ****** ****** ****** ****** ****** ******
      ****** ****** ****** ****** ****** ****** ****** ****** ****** ******
      ****** ****** ****** ****** ****** ****** ****** ****** ****** ******
   4  ****** ****** ****** ****** ****** ****** ****** ****** ****** ******
      ****** ****** ****** ****** ****** ****** ****** ****** ****** ******
      ****** ****** ****** ****** ****** ****** ****** ****** ****** ******
   5  ****** ****** ****** ****** ****** ****** ****** ****** ****** ******
      ****** ****** ****** ****** ****** ****** ****** ****** ****** ******
      ****** ****** ****** ****** ****** ****** ****** ****** ****** ******
   6  ****** ****** ****** ****** ****** ****** ****** ****** ****** ******
      ****** ****** ****** ****** ****** ****** ****** ****** ****** ******
      ****** ****** ****** ****** ****** ****** ****** ****** ****** ******
   7  ****** ****** ****** ****** ****** ****** ****** ****** ****** ******
      ****** ****** ****** ****** ****** ****** ****** ****** ****** ******
      ****** ****** ****** ****** ****** ****** ****** ****** ****** ******
   8  ****** ****** ****** ****** ****** ****** ****** ****** ****** ******
      ****** ****** ****** ****** ****** ****** ****** ****** ****** ******
      ****** ****** ****** ****** ****** ****** ****** ****** ****** ******
   9  ****** ****** ****** ****** ****** ****** ****** ****** ****** ******
      ****** ****** ****** ****** ****** ****** ****** ****** ****** ******
      ****** ****** ****** ****** ****** ****** ****** ****** ****** ******
  10  ****** ****** ****** ****** ****** ****** ****** ****** ****** ******
      ****** ****** ****** ****** ****** ****** ****** ****** ****** ******
      ****** ****** ****** ****** ****** ****** ****** ****** ****** ******
  11  ****** ****** ****** ****** ****** ****** ****** ****** ****** ******
      ****** ****** ****** ****** ****** ****** ****** ****** ****** ******
      ****** ****** ****** ****** ****** ****** ****** ****** ****** ******
  12  ****** ****** ****** ****** ****** ****** ****** ****** ****** ******
      ****** ****** ****** ****** ****** ****** ****** ****** ****** ******
      ****** ****** ****** ****** ****** ****** ****** ****** ****** ******
  13  ****** ****** ****** ****** ****** ****** ****** ****** ****** ******
      ****** ****** ****** ****** ****** ****** ****** ****** ****** ******
      ****** ****** ****** ****** ****** ****** ****** ****** ****** ******
  14  ****** ****** ****** ****** ****** ****** ****** ****** ****** ******
      ****** ****** ****** ****** ****** ****** ****** ****** ****** ******
      ****** ****** ****** ****** ****** ****** ****** ****** ****** ******
  15  ****** ****** ****** ****** ****** ****** ****** ****** ****** ******
      ****** ****** ****** ****** ****** ****** ****** ****** ****** ******
      ****** ****** ****** ****** ****** ****** ****** ****** ****** ******
  16  ****** ****** ****** ****** ****** ****** ****** ****** ****** ******
      ****** ****** ****** ****** ****** ****** ****** ****** ****** ******
      ****** ****** ****** ****** ****** ****** ****** ****** ****** ******
  17  ****** ****** ****** ****** ****** ****** ****** ****** ****** ******
      ****** ****** ****** ****** ****** ****** ****** ****** ****** ******
      ****** ****** ****** ****** ****** ****** ****** ****** ****** ******
  18  ****** ****** ****** ****** ****** ****** ****** ****** ****** ******
      ****** ****** ****** ****** ****** ****** ****** ****** ****** ******
      ****** ****** ****** ****** ****** ****** ****** ****** ****** ******
  19  ****** ****** ****** ****** ****** ****** ****** ****** ****** ******
      ****** ****** ****** ****** ****** ****** ****** ****** ****** ******
      ****** ****** ****** ****** ****** ****** ****** ****** ****** ******
  20  ****** ****** ****** ****** ****** ****** ****** ****** ****** ******
      ****** ****** ****** ****** ****** ****** ****** ****** ****** ******
      ****** ****** ****** ****** ****** ****** ****** ****** ****** ******
  21  ****** ****** ****** ****** ****** ****** ****** ****** ****** ******
      ****** ****** ****** ****** ****** ****** ****** ****** ****** ******
      ****** ****** ****** ****** ****** ****** ****** ****** ****** ******
  22  ****** ****** ****** ****** ****** ****** ****** ****** ****** ******
      ****** ****** ****** ****** ****** ****** ****** ****** ****** ******
      ****** ****** ****** ****** ****** ****** ****** ****** ****** ******
  23  ****** ****** ****** ****** ****** ****** ****** ****** ****** ******
      ****** ****** ****** ****** ****** ****** ****** ****** ****** ******
      ****** ****** ****** ****** ****** ****** ****** ****** ****** ******
  24  ****** ****** ****** ****** ****** ****** ****** ****** ****** ******
      ****** ****** ****** ****** ****** ****** ****** ****** ****** ******
      ****** ****** ****** ****** ****** ****** ****** ****** ****** ******
  25  ****** ****** ****** ****** ****** ****** ****** ****** ****** ******
      ****** ****** ****** ****** ****** ****** ****** ****** ****** ******
      ****** ****** ****** ****** ****** ****** ****** ****** ****** ******

 HEAD WILL BE SAVED ON UNIT   51 AT END OF TIME STEP    1, STRESS PERIOD    1
1
  VOLUMETRIC BUDGET FOR ENTIRE MODEL AT END OF TIME STEP    1, STRESS PERIOD   1
  ------------------------------------------------------------------------------

     CUMULATIVE VOLUMES      L**3       RATES FOR THIS TIME STEP      L**3/T
     ------------------                 ------------------------

           IN:                                      IN:
           ---                                      ---
             STORAGE =    18202551.8029               STORAGE =      197853.8239
       CONSTANT HEAD =     1236495.8101         CONSTANT HEAD =       13440.1718
               WELLS =           0.0000                 WELLS =           0.0000
            RECHARGE =     1269600.0000              RECHARGE =       13800.0000
      STREAM LEAKAGE =      448867.2939        STREAM LEAKAGE =        4878.9923

            TOTAL IN =    21157514.9068              TOTAL IN =      229972.9881

          OUT:                                     OUT:
          ----                                     ----
             STORAGE =           0.0000               STORAGE =           0.0000
       CONSTANT HEAD =           0.0000         CONSTANT HEAD =           0.0000
               WELLS =     2792644.4441                 WELLS =       30354.8309
            RECHARGE =           0.0000              RECHARGE =           0.0000
      STREAM LEAKAGE =    18364870.7443        STREAM LEAKAGE =      199618.1603

           TOTAL OUT =    21157515.1884             TOTAL OUT =      229972.9912

            IN - OUT =          -0.2815              IN - OUT =      -3.0603E-03

 PERCENT DISCREPANCY =          -0.00     PERCENT DISCREPANCY =          -0.00






         TIME SUMMARY AT END OF TIME STEP    1 IN STRESS PERIOD    1
                    SECONDS     MINUTES      HOURS       DAYS        YEARS
                    -----------------------------------------------------------
   TIME STEP LENGTH 7.94880E+06 1.32480E+05  2208.0      92.000     0.25188    
 STRESS PERIOD TIME 7.94880E+06 1.32480E+05  2208.0      92.000     0.25188    
         TOTAL TIME 7.94880E+06 1.32480E+05  2208.0      92.000     0.25188    
1
1
                            STRESS PERIOD NO.    2, LENGTH =   91.00000    
                            -----------------------------------------------

                              NUMBER OF TIME STEPS =     1

                               MULTIPLIER FOR DELT =     1.500

                            INITIAL TIME STEP SIZE =   91.00000    

 WELL NO.  LAYER   ROW   COL   STRESS RATE         
 --------------------------------------------------
      1      1     14      6       0.000    
      2      1      3      9       0.000    
      3      1     20     10       0.000    
      4      1     14     20       0.000    
      5      1     16     21      -8812.    
      6      1     20     20      -6819.    
      7      1      4     15      -7093.    
      8      1     21     14      -7630.    

      8 WELLS

                 RECHARGE =  2.000000E-03

 REUSING STREAM SEGMENT DATA FROM LAST STRESS PERIOD
 
 SOLVING FOR HEAD 


     7 CALLS TO PCG ROUTINE FOR TIME STEP   1 IN STRESS PERIOD    2
    27 TOTAL ITERATIONS

 OUTPUT CONTROL FOR STRESS PERIOD    2   TIME STEP    1
    SAVE BUDGET
    SAVE HEAD FOR ALL LAYERS
    PRINT HEAD FOR ALL LAYERS
 UBDSV2 SAVING "STREAMFLOW OUT  " ON UNIT  50 AT TIME STEP  1, STRESS PERIOD   2



 STREAM LISTING     PERIOD      2   STEP        1

 LAYER ROW COL. STREAM  RCH.  FLOW INTO     FLOW TO   FLOW OUT OF   OVRLND.     DIRECT     STREAM       STREAM     STREAM     STREAM   STREAMBED  STREAMBED
                SEG.NO.  NO.  STRM. RCH.    AQUIFER    STRM. RCH.    RUNOFF     PRECIP       ET          HEAD       DEPTH      WIDTH   CONDCTNC.   GRADIENT

   1   13    1     1     1    1.0000E+05 -3.9556E+03   1.0396E+05  0.000E+00  0.000E+00  0.000E+00  4.84077E+01  1.464E-01  2.000E+01  2.000E+04 -1.978E-01
   1   13    2     1     2    1.0396E+05 -5.2172E+03   1.0917E+05  0.000E+00  0.000E+00  0.000E+00  4.79344E+01  1.503E-01  2.000E+01  2.000E+04 -2.609E-01
   1   14    3     1     3    1.0917E+05 -1.1065E+03   1.1028E+05  0.000E+00  0.000E+00  0.000E+00  4.74598E+01  1.529E-01  2.000E+01  2.000E+04 -5.532E-02
   1   15    4     1     4    1.1028E+05 -1.1280E+03   1.1141E+05  0.000E+00  0.000E+00  0.000E+00  4.69834E+01  1.539E-01  2.000E+01  2.000E+04 -5.640E-02
   1   16    5     1     5    1.1141E+05 -4.0917E+03   1.1550E+05  0.000E+00  0.000E+00  0.000E+00  4.65083E+01  1.560E-01  2.000E+01  2.000E+04 -2.046E-01
   1   16    6     1     6    1.1550E+05 -2.3780E+03   1.1788E+05  0.000E+00  0.000E+00  0.000E+00  4.60337E+01  1.587E-01  2.000E+01  2.000E+04 -1.189E-01
   1   16    7     1     7    1.1788E+05 -2.2488E+03   1.2013E+05  0.000E+00  0.000E+00  0.000E+00  4.55583E+01  1.606E-01  2.000E+01  2.000E+04 -1.124E-01
   1   16    8     1     8    1.2013E+05 -2.1672E+03   1.2229E+05  0.000E+00  0.000E+00  0.000E+00  4.50828E+01  1.623E-01  2.000E+01  2.000E+04 -1.084E-01
   1   16    9     1     9    1.2229E+05 -2.0744E+03   1.2437E+05  0.000E+00  0.000E+00  0.000E+00  4.46072E+01  1.640E-01  2.000E+01  2.000E+04 -1.037E-01
   1   16   10     1    10    1.2437E+05 -1.9517E+03   1.2632E+05  0.000E+00  0.000E+00  0.000E+00  4.41316E+01  1.656E-01  2.000E+01  2.000E+04 -9.758E-02
   1   16   11     1    11    1.2632E+05 -1.8116E+03   1.2813E+05  0.000E+00  0.000E+00  0.000E+00  4.36558E+01  1.671E-01  2.000E+01  2.000E+04 -9.058E-02
   1   16   12     1    12    1.2813E+05 -2.9504E+03   1.3108E+05  0.000E+00  0.000E+00  0.000E+00  4.31804E+01  1.690E-01  2.000E+01  2.000E+04 -1.475E-01
   1   15   13     1    13    1.3108E+05 -3.1769E+03   1.3426E+05  0.000E+00  0.000E+00  0.000E+00  4.27055E+01  1.714E-01  2.000E+01  2.000E+04 -1.588E-01
   1   14   14     1    14    1.3426E+05 -3.6668E+03   1.3792E+05  0.000E+00  0.000E+00  0.000E+00  4.22308E+01  1.740E-01  2.000E+01  2.000E+04 -1.833E-01
   1   13   15     1    15    1.3792E+05 -4.1198E+03   1.4204E+05  0.000E+00  0.000E+00  0.000E+00  4.17565E+01  1.770E-01  2.000E+01  2.000E+04 -2.060E-01
   1   12   16     1    16    1.4204E+05 -5.1488E+03   1.4719E+05  0.000E+00  0.000E+00  0.000E+00  4.12828E+01  1.805E-01  2.000E+01  2.000E+04 -2.574E-01
   1   12   17     1    17    1.4719E+05 -3.2836E+03   1.5048E+05  0.000E+00  0.000E+00  0.000E+00  4.08086E+01  1.836E-01  2.000E+01  2.000E+04 -1.642E-01
   1   12   18     1    18    1.5048E+05 -3.1143E+03   1.5359E+05  0.000E+00  0.000E+00  0.000E+00  4.03337E+01  1.860E-01  2.000E+01  2.000E+04 -1.557E-01
   1   12   19     1    19    1.5359E+05 -4.1321E+03   1.5772E+05  0.000E+00  0.000E+00  0.000E+00  3.98591E+01  1.886E-01  2.000E+01  2.000E+04 -2.066E-01
   1   13   20     1    20    1.5772E+05 -2.6117E+03   1.6034E+05  0.000E+00  0.000E+00  0.000E+00  3.93843E+01  1.911E-01  2.000E+01  2.000E+04 -1.306E-01
   1   14   21     1    21    1.6034E+05 -6.7611E+02   1.6101E+05  0.000E+00  0.000E+00  0.000E+00  3.89082E+01  1.923E-01  2.000E+01  2.000E+04 -3.381E-02
   1   14   22     1    22    1.6101E+05  5.0016E+03   1.5601E+05  0.000E+00  0.000E+00  0.000E+00  3.84293E+01  1.907E-01  2.000E+01  2.000E+04  2.501E-01
   1    9   30     2     1    5.0000E+04 -2.1326E+03   5.2133E+04  0.000E+00  0.000E+00  0.000E+00  4.02423E+01  1.173E-01  2.000E+01  2.000E+04 -1.066E-01
   1    9   29     2     2    5.2133E+04 -2.4399E+03   5.4572E+04  0.000E+00  0.000E+00  0.000E+00  3.99955E+01  1.205E-01  2.000E+01  2.000E+04 -1.220E-01
   1    9   28     2     3    5.4572E+04 -2.7379E+03   5.7310E+04  0.000E+00  0.000E+00  0.000E+00  3.97489E+01  1.239E-01  2.000E+01  2.000E+04 -1.369E-01
   1    9   27     2     4    5.7310E+04 -4.7970E+03   6.2107E+04  0.000E+00  0.000E+00  0.000E+00  3.95039E+01  1.289E-01  2.000E+01  2.000E+04 -2.398E-01
   1   10   26     2     5    6.2107E+04 -3.6996E+03   6.5807E+04  0.000E+00  0.000E+00  0.000E+00  3.92593E+01  1.343E-01  2.000E+01  2.000E+04 -1.850E-01
   1   11   25     2     6    6.5807E+04 -3.3108E+03   6.9118E+04  0.000E+00  0.000E+00  0.000E+00  3.90137E+01  1.387E-01  2.000E+01  2.000E+04 -1.655E-01
   1   12   24     2     7    6.9118E+04 -3.1739E+03   7.2292E+04  0.000E+00  0.000E+00  0.000E+00  3.87676E+01  1.426E-01  2.000E+01  2.000E+04 -1.587E-01
   1   13   23     2     8    7.2292E+04 -6.0000E+02   7.2892E+04  0.000E+00  0.000E+00  0.000E+00  3.85199E+01  1.449E-01  2.000E+01  2.000E+04 -3.000E-02
   1   14   22     2     9    7.2892E+04  1.7986E+03   7.1093E+04  0.000E+00  0.000E+00  0.000E+00  3.82692E+01  1.442E-01  2.000E+01  2.000E+04  8.993E-02
   1   14   22     3     1    2.2710E+05 -8.5031E+03   2.3561E+05  0.000E+00  0.000E+00  0.000E+00  3.77541E+01  1.985E-01  2.000E+01  2.000E+04 -4.252E-01
   1   15   23     3     2    2.3561E+05 -4.8162E+02   2.3609E+05  0.000E+00  0.000E+00  0.000E+00  3.68675E+01  2.009E-01  2.000E+01  2.000E+04 -2.408E-02
   1   15   24     3     3    2.3609E+05 -5.6339E+02   2.3665E+05  0.000E+00  0.000E+00  0.000E+00  3.59789E+01  2.011E-01  2.000E+01  2.000E+04 -2.817E-02
   1   15   25     3     4    2.3665E+05 -6.2162E+02   2.3727E+05  0.000E+00  0.000E+00  0.000E+00  3.50903E+01  2.014E-01  2.000E+01  2.000E+04 -3.108E-02
   1   15   26     3     5    2.3727E+05 -7.5055E+02   2.3802E+05  0.000E+00  0.000E+00  0.000E+00  3.42018E+01  2.018E-01  2.000E+01  2.000E+04 -3.753E-02
   1   16   27     3     6    2.3802E+05 -8.5991E+02   2.3888E+05  0.000E+00  0.000E+00  0.000E+00  3.33133E+01  2.022E-01  2.000E+01  2.000E+04 -4.300E-02
   1   17   28     3     7    2.3888E+05 -3.1031E+03   2.4199E+05  0.000E+00  0.000E+00  0.000E+00  3.24254E+01  2.032E-01  2.000E+01  2.000E+04 -1.552E-01
   1   18   29     3     8    2.4199E+05 -4.6992E+03   2.4669E+05  0.000E+00  0.000E+00  0.000E+00  3.15385E+01  2.052E-01  2.000E+01  2.000E+04 -2.350E-01
   1   18   30     3     9    2.4669E+05 -4.4785E+03   2.5116E+05  0.000E+00  0.000E+00  0.000E+00  3.06519E+01  2.075E-01  2.000E+01  2.000E+04 -2.239E-01



1
              HEAD IN LAYER   1 AT END OF TIME STEP   1 IN STRESS PERIOD    2
  ---------------------------------------------------------------------------

          1      2      3      4      5      6      7      8      9     10
         11     12     13     14     15     16     17     18     19     20
         21     22     23     24     25     26     27     28     29     30
 .........................................................................
   1  ****** ****** ****** ****** ****** ****** ****** ****** ****** ******
      ****** ****** ****** ****** ****** ****** ****** ****** ****** ******
      ****** ****** ****** ****** ****** ****** ****** ****** ****** ******
   2  ****** ****** ****** ****** ****** ****** ****** ****** ****** ******
      ****** ****** ****** ****** ****** ****** ****** ****** ****** ******
      ****** ****** ****** ****** ****** ****** ****** ****** ****** ******
   3  ****** ****** ****** ****** ****** ****** ****** ****** ****** ******
      ****** ****** ****** ****** ****** ****** ****** ****** ****** ******
      ****** ****** ****** ****** ****** ****** ****** ****** ****** ******
   4  ****** ****** ****** ****** ****** ****** ****** ****** ****** ******
      ****** ****** ****** ****** ****** ****** ****** ****** ****** ******
      ****** ****** ****** ****** ****** ****** ****** ****** ****** ******
   5  ****** ****** ****** ****** ****** ****** ****** ****** ****** ******
      ****** ****** ****** ****** ****** ****** ****** ****** ****** ******
      ****** ****** ****** ****** ****** ****** ****** ****** ****** ******
   6  ****** ****** ****** ****** ****** ****** ****** ****** ****** ******
      ****** ****** ****** ****** ****** ****** ****** ****** ****** ******
      ****** ****** ****** ****** ****** ****** ****** ****** ****** ******
   7  ****** ****** ****** ****** ****** ****** ****** ****** ****** ******
      ****** ****** ****** ****** ****** ****** ****** ****** ****** ******
      ****** ****** ****** ****** ****** ****** ****** ****** ****** ******
   8  ****** ****** ****** ****** ****** ****** ****** ****** ****** ******
      ****** ****** ****** ****** ****** ****** ****** ****** ****** ******
      ****** ****** ****** ****** ****** ****** ****** ****** ****** ******
   9  ****** ****** ****** ****** ****** ****** ****** ****** ****** ******
      ****** ****** ****** ****** ****** ****** ****** ****** ****** ******
      ****** ****** ****** ****** ****** ****** ****** ****** ****** ******
  10  ****** ****** ****** ****** ****** ****** ****** ****** ****** ******
      ****** ****** ****** ****** ****** ****** ****** ****** ****** ******
      ****** ****** ****** ****** ****** ****** ****** ****** ****** ******
  11  ****** ****** ****** ****** ****** ****** ****** ****** ****** ******
      ****** ****** ****** ****** ****** ****** ****** ****** ****** ******
      ****** ****** ****** ****** ****** ****** ****** ****** ****** ******
  12  ****** ****** ****** ****** ****** ****** ****** ****** ****** ******
      ****** ****** ****** ****** ****** ****** ****** ****** ****** ******
      ****** ****** ****** ****** ****** ****** ****** ****** ****** ******
  13  ****** ****** ****** ****** ****** ****** ****** ****** ****** ******
      ****** ****** ****** ****** ****** ****** ****** ****** ****** ******
      ****** ****** ****** ****** ****** ****** ****** ****** ****** ******
  14  ****** ****** ****** ****** ****** ****** ****** ****** ****** ******
      ****** ****** ****** ****** ****** ****** ****** ****** ****** ******
      ****** ****** ****** ****** ****** ****** ****** ****** ****** ******
  15  ****** ****** ****** ****** ****** ****** ****** ****** ****** ******
      ****** ****** ****** ****** ****** ****** ****** ****** ****** ******
      ****** ****** ****** ****** ****** ****** ****** ****** ****** ******
  16  ****** ****** ****** ****** ****** ****** ****** ****** ****** ******
      ****** ****** ****** ****** ****** ****** ****** ****** ****** ******
      ****** ****** ****** ****** ****** ****** ****** ****** ****** ******
  17  ****** ****** ****** ****** ****** ****** ****** ****** ****** ******
      ****** ****** ****** ****** ****** ****** ****** ****** ****** ******
      ****** ****** ****** ****** ****** ****** ****** ****** ****** ******
  18  ****** ****** ****** ****** ****** ****** ****** ****** ****** ******
      ****** ****** ****** ****** ****** ****** ****** ****** ****** ******
      ****** ****** ****** ****** ****** ****** ****** ****** ****** ******
  19  ****** ****** ****** ****** ****** ****** ****** ****** ****** ******
      ****** ****** ****** ****** ****** ****** ****** ****** ****** ******
      ****** ****** ****** ****** ****** ****** ****** ****** ****** ******
  20  ****** ****** ****** ****** ****** ****** ****** ****** ****** ******
      ****** ****** ****** ****** ****** ****** ****** ****** ****** ******
      ****** ****** ****** ****** ****** ****** ****** ****** ****** ******
  21  ****** ****** ****** ****** ****** ****** ****** ****** ****** ******
      ****** ****** ****** ****** ****** ****** ****** ****** ****** ******
      ****** ****** ****** ****** ****** ****** ****** ****** ****** ******
  22  ****** ****** ****** ****** ****** ****** ****** ****** ****** ******
      ****** ****** ****** ****** ****** ****** ****** ****** ****** ******
      ****** ****** ****** ****** ****** ****** ****** ****** ****** ******
  23  ****** ****** ****** ****** ****** ****** ****** ****** ****** ******
      ****** ****** ****** ****** ****** ****** ****** ****** ****** ******
      ****** ****** ****** ****** ****** ****** ****** ****** ****** ******
  24  ****** ****** ****** ****** ****** ****** ****** ****** ****** ******
      ****** ****** ****** ****** ****** ****** ****** ****** ****** ******
      ****** ****** ****** ****** ****** ****** ****** ****** ****** ******
  25  ****** ****** ****** ****** ****** ****** ****** ****** ****** ******
      ****** ****** ****** ****** ****** ****** ****** ****** ****** ******
      ****** ****** ****** ****** ****** ****** ****** ****** ****** ******

 HEAD WILL BE SAVED ON UNIT   51 AT END OF TIME STEP    1, STRESS PERIOD    2
1
  VOLUMETRIC BUDGET FOR ENTIRE MODEL AT END OF TIME STEP    1, STRESS PERIOD   2
  ------------------------------------------------------------------------------

     CUMULATIVE VOLUMES      L**3       RATES FOR THIS TIME STEP      L**3/T
     ------------------                 ------------------------

           IN:                                      IN:
           ---                                      ---
             STORAGE =    23448614.7513               STORAGE =       57649.0434
       CONSTANT HEAD =     2935421.1233         CONSTANT HEAD =       18669.5089
               WELLS =           0.0000                 WELLS =           0.0000
            RECHARGE =     6292800.0000              RECHARGE =       55200.0000
      STREAM LEAKAGE =     1067688.5522        STREAM LEAKAGE =        6800.2336

            TOTAL IN =    33744524.4269              TOTAL IN =      138318.7859

          OUT:                                     OUT:
          ----                                     ----
             STORAGE =           0.0000               STORAGE =           0.0000
       CONSTANT HEAD =           0.0000         CONSTANT HEAD =           0.0000
               WELLS =     5554934.0573                 WELLS =       30354.8309
            RECHARGE =           0.0000              RECHARGE =           0.0000
      STREAM LEAKAGE =    28189591.5766        STREAM LEAKAGE =      107963.9652

           TOTAL OUT =    33744525.6339             TOTAL OUT =      138318.7961

            IN - OUT =          -1.2070              IN - OUT =      -1.0170E-02

 PERCENT DISCREPANCY =          -0.00     PERCENT DISCREPANCY =          -0.00






         TIME SUMMARY AT END OF TIME STEP    1 IN STRESS PERIOD    2
                    SECONDS     MINUTES      HOURS       DAYS        YEARS
                    -----------------------------------------------------------
   TIME STEP LENGTH 7.86240E+06 1.31040E+05  2184.0      91.000     0.24914    
 STRESS PERIOD TIME 7.86240E+06 1.31040E+05  2184.0      91.000     0.24914    
         TOTAL TIME 1.58112E+07 2.63520E+05  4392.0      183.00     0.50103    
1
1
                            STRESS PERIOD NO.    3, LENGTH =   91.00000    
                            -----------------------------------------------

                              NUMBER OF TIME STEPS =     1

                               MULTIPLIER FOR DELT =     1.500

                            INITIAL TIME STEP SIZE =   91.00000    

 WELL NO.  LAYER   ROW   COL   STRESS RATE         
 --------------------------------------------------
      1      1     14      6       0.000    
      2      1      3      9       0.000    
      3      1     20     10       0.000    
      4      1     14     20       0.000    
      5      1     16     21      -8812.    
      6      1     20     20      -6819.    
      7      1      4     15      -7093.    
      8      1     21     14      -7630.    

      8 WELLS

                 RECHARGE =   0.00000    

 REUSING STREAM SEGMENT DATA FROM LAST STRESS PERIOD
 
 SOLVING FOR HEAD 


     7 CALLS TO PCG ROUTINE FOR TIME STEP   1 IN STRESS PERIOD    3
    27 TOTAL ITERATIONS

 OUTPUT CONTROL FOR STRESS PERIOD    3   TIME STEP    1
    SAVE BUDGET
    SAVE HEAD FOR ALL LAYERS
    PRINT HEAD FOR ALL LAYERS
 UBDSV2 SAVING "STREAMFLOW OUT  " ON UNIT  50 AT TIME STEP  1, STRESS PERIOD   3



 STREAM LISTING     PERIOD      3   STEP        1

 LAYER ROW COL. STREAM  RCH.  FLOW INTO     FLOW TO   FLOW OUT OF   OVRLND.     DIRECT     STREAM       STREAM     STREAM     STREAM   STREAMBED  STREAMBED
                SEG.NO.  NO.  STRM. RCH.    AQUIFER    STRM. RCH.    RUNOFF     PRECIP       ET          HEAD       DEPTH      WIDTH   CONDCTNC.   GRADIENT

   1   13    1     1     1    1.0000E+05 -2.6786E+03   1.0268E+05  0.000E+00  0.000E+00  0.000E+00  4.84072E+01  1.458E-01  2.000E+01  2.000E+04 -1.339E-01
   1   13    2     1     2    1.0268E+05 -3.7860E+03   1.0646E+05  0.000E+00  0.000E+00  0.000E+00  4.79327E+01  1.486E-01  2.000E+01  2.000E+04 -1.893E-01
   1   14    3     1     3    1.0646E+05 -6.4047E+02   1.0711E+05  0.000E+00  0.000E+00  0.000E+00  4.74573E+01  1.505E-01  2.000E+01  2.000E+04 -3.202E-02
   1   15    4     1     4    1.0711E+05 -6.1559E+02   1.0772E+05  0.000E+00  0.000E+00  0.000E+00  4.69805E+01  1.510E-01  2.000E+01  2.000E+04 -3.078E-02
   1   16    5     1     5    1.0772E+05 -2.2364E+03   1.0996E+05  0.000E+00  0.000E+00  0.000E+00  4.65045E+01  1.522E-01  2.000E+01  2.000E+04 -1.118E-01
   1   16    6     1     6    1.0996E+05 -1.3347E+03   1.1129E+05  0.000E+00  0.000E+00  0.000E+00  4.60287E+01  1.537E-01  2.000E+01  2.000E+04 -6.674E-02
   1   16    7     1     7    1.1129E+05 -1.2584E+03   1.1255E+05  0.000E+00  0.000E+00  0.000E+00  4.55525E+01  1.548E-01  2.000E+01  2.000E+04 -6.292E-02
   1   16    8     1     8    1.1255E+05 -1.1866E+03   1.1374E+05  0.000E+00  0.000E+00  0.000E+00  4.50762E+01  1.558E-01  2.000E+01  2.000E+04 -5.933E-02
   1   16    9     1     9    1.1374E+05 -1.0873E+03   1.1482E+05  0.000E+00  0.000E+00  0.000E+00  4.45999E+01  1.567E-01  2.000E+01  2.000E+04 -5.436E-02
   1   16   10     1    10    1.1482E+05 -9.5085E+02   1.1577E+05  0.000E+00  0.000E+00  0.000E+00  4.41235E+01  1.576E-01  2.000E+01  2.000E+04 -4.754E-02
   1   16   11     1    11    1.1577E+05 -7.8410E+02   1.1656E+05  0.000E+00  0.000E+00  0.000E+00  4.36469E+01  1.583E-01  2.000E+01  2.000E+04 -3.920E-02
   1   16   12     1    12    1.1656E+05 -1.1308E+03   1.1769E+05  0.000E+00  0.000E+00  0.000E+00  4.31704E+01  1.590E-01  2.000E+01  2.000E+04 -5.654E-02
   1   15   13     1    13    1.1769E+05 -1.3566E+03   1.1905E+05  0.000E+00  0.000E+00  0.000E+00  4.26941E+01  1.601E-01  2.000E+01  2.000E+04 -6.783E-02
   1   14   14     1    14    1.1905E+05 -1.8161E+03   1.2086E+05  0.000E+00  0.000E+00  0.000E+00  4.22182E+01  1.613E-01  2.000E+01  2.000E+04 -9.080E-02
   1   13   15     1    15    1.2086E+05 -2.2844E+03   1.2315E+05  0.000E+00  0.000E+00  0.000E+00  4.17425E+01  1.630E-01  2.000E+01  2.000E+04 -1.142E-01
   1   12   16     1    16    1.2315E+05 -3.2843E+03   1.2643E+05  0.000E+00  0.000E+00  0.000E+00  4.12675E+01  1.652E-01  2.000E+01  2.000E+04 -1.642E-01
   1   12   17     1    17    1.2643E+05 -1.9217E+03   1.2835E+05  0.000E+00  0.000E+00  0.000E+00  4.07923E+01  1.673E-01  2.000E+01  2.000E+04 -9.609E-02
   1   12   18     1    18    1.2835E+05 -1.7748E+03   1.3013E+05  0.000E+00  0.000E+00  0.000E+00  4.03164E+01  1.687E-01  2.000E+01  2.000E+04 -8.874E-02
   1   12   19     1    19    1.3013E+05 -2.4796E+03   1.3261E+05  0.000E+00  0.000E+00  0.000E+00  3.98408E+01  1.704E-01  2.000E+01  2.000E+04 -1.240E-01
   1   13   20     1    20    1.3261E+05 -1.0365E+03   1.3364E+05  0.000E+00  0.000E+00  0.000E+00  3.93649E+01  1.717E-01  2.000E+01  2.000E+04 -5.182E-02
   1   14   21     1    21    1.3364E+05  1.0185E+03   1.3263E+05  0.000E+00  0.000E+00  0.000E+00  3.88877E+01  1.718E-01  2.000E+01  2.000E+04  5.093E-02
   1   14   22     1    22    1.3263E+05  5.3890E+03   1.2724E+05  0.000E+00  0.000E+00  0.000E+00  3.84079E+01  1.693E-01  2.000E+01  2.000E+04  2.694E-01
   1    9   30     2     1    5.0000E+04 -9.3433E+02   5.0934E+04  0.000E+00  0.000E+00  0.000E+00  4.02415E+01  1.165E-01  2.000E+01  2.000E+04 -4.672E-02
   1    9   29     2     2    5.0934E+04 -1.2429E+03   5.2177E+04  0.000E+00  0.000E+00  0.000E+00  3.99930E+01  1.180E-01  2.000E+01  2.000E+04 -6.215E-02
   1    9   28     2     3    5.2177E+04 -1.5266E+03   5.3704E+04  0.000E+00  0.000E+00  0.000E+00  3.97449E+01  1.199E-01  2.000E+01  2.000E+04 -7.633E-02
   1    9   27     2     4    5.3704E+04 -3.0488E+03   5.6753E+04  0.000E+00  0.000E+00  0.000E+00  3.94980E+01  1.230E-01  2.000E+01  2.000E+04 -1.524E-01
   1   10   26     2     5    5.6753E+04 -2.0668E+03   5.8820E+04  0.000E+00  0.000E+00  0.000E+00  3.92514E+01  1.264E-01  2.000E+01  2.000E+04 -1.033E-01
   1   11   25     2     6    5.8820E+04 -1.7885E+03   6.0608E+04  0.000E+00  0.000E+00  0.000E+00  3.90039E+01  1.289E-01  2.000E+01  2.000E+04 -8.943E-02
   1   12   24     2     7    6.0608E+04 -1.8102E+03   6.2418E+04  0.000E+00  0.000E+00  0.000E+00  3.87562E+01  1.312E-01  2.000E+01  2.000E+04 -9.051E-02
   1   13   23     2     8    6.2418E+04 -2.6227E+02   6.2681E+04  0.000E+00  0.000E+00  0.000E+00  3.85075E+01  1.325E-01  2.000E+01  2.000E+04 -1.311E-02
   1   14   22     2     9    6.2681E+04  2.3549E+03   6.0326E+04  0.000E+00  0.000E+00  0.000E+00  3.82562E+01  1.312E-01  2.000E+01  2.000E+04  1.177E-01
   1   14   22     3     1    1.8756E+05 -8.1114E+03   1.9567E+05  0.000E+00  0.000E+00  0.000E+00  3.77329E+01  1.773E-01  2.000E+01  2.000E+04 -4.056E-01
   1   15   23     3     2    1.9567E+05 -3.6882E+01   1.9571E+05  0.000E+00  0.000E+00  0.000E+00  3.68462E+01  1.796E-01  2.000E+01  2.000E+04 -1.844E-03
   1   15   24     3     3    1.9571E+05 -2.1874E+02   1.9593E+05  0.000E+00  0.000E+00  0.000E+00  3.59574E+01  1.796E-01  2.000E+01  2.000E+04 -1.094E-02
   1   15   25     3     4    1.9593E+05 -2.6701E+02   1.9620E+05  0.000E+00  0.000E+00  0.000E+00  3.50687E+01  1.798E-01  2.000E+01  2.000E+04 -1.335E-02
   1   15   26     3     5    1.9620E+05 -3.3814E+02   1.9653E+05  0.000E+00  0.000E+00  0.000E+00  3.41799E+01  1.799E-01  2.000E+01  2.000E+04 -1.691E-02
   1   16   27     3     6    1.9653E+05 -3.7872E+02   1.9691E+05  0.000E+00  0.000E+00  0.000E+00  3.32913E+01  1.801E-01  2.000E+01  2.000E+04 -1.894E-02
   1   17   28     3     7    1.9691E+05 -1.6327E+03   1.9855E+05  0.000E+00  0.000E+00  0.000E+00  3.24029E+01  1.807E-01  2.000E+01  2.000E+04 -8.164E-02
   1   18   29     3     8    1.9855E+05 -3.0517E+03   2.0160E+05  0.000E+00  0.000E+00  0.000E+00  3.15153E+01  1.820E-01  2.000E+01  2.000E+04 -1.526E-01
   1   18   30     3     9    2.0160E+05 -3.2647E+03   2.0486E+05  0.000E+00  0.000E+00  0.000E+00  3.06281E+01  1.837E-01  2.000E+01  2.000E+04 -1.632E-01



1
              HEAD IN LAYER   1 AT END OF TIME STEP   1 IN STRESS PERIOD    3
  ---------------------------------------------------------------------------

          1      2      3      4      5      6      7      8      9     10
         11     12     13     14     15     16     17     18     19     20
         21     22     23     24     25     26     27     28     29     30
 .........................................................................
   1  ****** ****** ****** ****** ****** ****** ****** ****** ****** ******
      ****** ****** ****** ****** ****** ****** ****** ****** ****** ******
      ****** ****** ****** ****** ****** ****** ****** ****** ****** ******
   2  ****** ****** ****** ****** ****** ****** ****** ****** ****** ******
      ****** ****** ****** ****** ****** ****** ****** ****** ****** ******
      ****** ****** ****** ****** ****** ****** ****** ****** ****** ******
   3  ****** ****** ****** ****** ****** ****** ****** ****** ****** ******
      ****** ****** ****** ****** ****** ****** ****** ****** ****** ******
      ****** ****** ****** ****** ****** ****** ****** ****** ****** ******
   4  ****** ****** ****** ****** ****** ****** ****** ****** ****** ******
      ****** ****** ****** ****** ****** ****** ****** ****** ****** ******
      ****** ****** ****** ****** ****** ****** ****** ****** ****** ******
   5  ****** ****** ****** ****** ****** ****** ****** ****** ****** ******
      ****** ****** ****** ****** ****** ****** ****** ****** ****** ******
      ****** ****** ****** ****** ****** ****** ****** ****** ****** ******
   6  ****** ****** ****** ****** ****** ****** ****** ****** ****** ******
      ****** ****** ****** ****** ****** ****** ****** ****** ****** ******
      ****** ****** ****** ****** ****** ****** ****** ****** ****** ******
   7  ****** ****** ****** ****** ****** ****** ****** ****** ****** ******
      ****** ****** ****** ****** ****** ****** ****** ****** ****** ******
      ****** ****** ****** ****** ****** ****** ****** ****** ****** ******
   8  ****** ****** ****** ****** ****** ****** ****** ****** ****** ******
      ****** ****** ****** ****** ****** ****** ****** ****** ****** ******
      ****** ****** ****** ****** ****** ****** ****** ****** ****** ******
   9  ****** ****** ****** ****** ****** ****** ****** ****** ****** ******
      ****** ****** ****** ****** ****** ****** ****** ****** ****** ******
      ****** ****** ****** ****** ****** ****** ****** ****** ****** ******
  10  ****** ****** ****** ****** ****** ****** ****** ****** ****** ******
      ****** ****** ****** ****** ****** ****** ****** ****** ****** ******
      ****** ****** ****** ****** ****** ****** ****** ****** ****** ******
  11  ****** ****** ****** ****** ****** ****** ****** ****** ****** ******
      ****** ****** ****** ****** ****** ****** ****** ****** ****** ******
      ****** ****** ****** ****** ****** ****** ****** ****** ****** ******
  12  ****** ****** ****** ****** ****** ****** ****** ****** ****** ******
      ****** ****** ****** ****** ****** ****** ****** ****** ****** ******
      ****** ****** ****** ****** ****** ****** ****** ****** ****** ******
  13  ****** ****** ****** ****** ****** ****** ****** ****** ****** ******
      ****** ****** ****** ****** ****** ****** ****** ****** ****** ******
      ****** ****** ****** ****** ****** ****** ****** ****** ****** ******
  14  ****** ****** ****** ****** ****** ****** ****** ****** ****** ******
      ****** ****** ****** ****** ****** ****** ****** ****** ****** ******
      ****** ****** ****** ****** ****** ****** ****** ****** ****** ******
  15  ****** ****** ****** ****** ****** ****** ****** ****** ****** ******
      ****** ****** ****** ****** ****** ****** ****** ****** ****** ******
      ****** ****** ****** ****** ****** ****** ****** ****** ****** ******
  16  ****** ****** ****** ****** ****** ****** ****** ****** ****** ******
      ****** ****** ****** ****** ****** ****** ****** ****** ****** ******
      ****** ****** ****** ****** ****** ****** ****** ****** ****** ******
  17  ****** ****** ****** ****** ****** ****** ****** ****** ****** ******
      ****** ****** ****** ****** ****** ****** ****** ****** ****** ******
      ****** ****** ****** ****** ****** ****** ****** ****** ****** ******
  18  ****** ****** ****** ****** ****** ****** ****** ****** ****** ******
      ****** ****** ****** ****** ****** ****** ****** ****** ****** ******
      ****** ****** ****** ****** ****** ****** ****** ****** ****** ******
  19  ****** ****** ****** ****** ****** ****** ****** ****** ****** ******
      ****** ****** ****** ****** ****** ****** ****** ****** ****** ******
      ****** ****** ****** ****** ****** ****** ****** ****** ****** ******
  20  ****** ****** ****** ****** ****** ****** ****** ****** ****** ******
      ****** ****** ****** ****** ****** ****** ****** ****** ****** ******
      ****** ****** ****** ****** ****** ****** ****** ****** ****** ******
  21  ****** ****** ****** ****** ****** ****** ****** ****** ****** ******
      ****** ****** ****** ****** ****** ****** ****** ****** ****** ******
      ****** ****** ****** ****** ****** ****** ****** ****** ****** ******
  22  ****** ****** ****** ****** ****** ****** ****** ****** ****** ******
      ****** ****** ****** ****** ****** ****** ****** ****** ****** ******
      ****** ****** ****** ****** ****** ****** ****** ****** ****** ******
  23  ****** ****** ****** ****** ****** ****** ****** ****** ****** ******
      ****** ****** ****** ****** ****** ****** ****** ****** ****** ******
      ****** ****** ****** ****** ****** ****** ****** ****** ****** ******
  24  ****** ****** ****** ****** ****** ****** ****** ****** ****** ******
      ****** ****** ****** ****** ****** ****** ****** ****** ****** ******
      ****** ****** ****** ****** ****** ****** ****** ****** ****** ******
  25  ****** ****** ****** ****** ****** ****** ****** ****** ****** ******
      ****** ****** ****** ****** ****** ****** ****** ****** ****** ******
      ****** ****** ****** ****** ****** ****** ****** ****** ****** ******

 HEAD WILL BE SAVED ON UNIT   51 AT END OF TIME STEP    1, STRESS PERIOD    3
1
  VOLUMETRIC BUDGET FOR ENTIRE MODEL AT END OF TIME STEP    1, STRESS PERIOD   3
  ------------------------------------------------------------------------------

     CUMULATIVE VOLUMES      L**3       RATES FOR THIS TIME STEP      L**3/T
     ------------------                 ------------------------

           IN:                                      IN:
           ---                                      ---
             STORAGE =    28684268.3696               STORAGE =       57534.6551
       CONSTANT HEAD =     5454467.4275         CONSTANT HEAD =       27681.8275
               WELLS =           0.0000                 WELLS =           0.0000
            RECHARGE =     6292800.0000              RECHARGE =           0.0000
      STREAM LEAKAGE =     1865070.9362        STREAM LEAKAGE =        8762.4438

            TOTAL IN =    42296606.7333              TOTAL IN =       93978.9264

          OUT:                                     OUT:
          ----                                     ----
             STORAGE =           0.0000               STORAGE =           0.0000
       CONSTANT HEAD =           0.0000         CONSTANT HEAD =           0.0000
               WELLS =     8317223.6704                 WELLS =       30354.8309
            RECHARGE =           0.0000              RECHARGE =           0.0000
      STREAM LEAKAGE =    33979384.9491        STREAM LEAKAGE =       63624.1030

           TOTAL OUT =    42296608.6195             TOTAL OUT =       93978.9339

            IN - OUT =          -1.8862              IN - OUT =      -7.4634E-03

 PERCENT DISCREPANCY =          -0.00     PERCENT DISCREPANCY =          -0.00






         TIME SUMMARY AT END OF TIME STEP    1 IN STRESS PERIOD    3
                    SECONDS     MINUTES      HOURS       DAYS        YEARS
                    -----------------------------------------------------------
   TIME STEP LENGTH 7.86240E+06 1.31040E+05  2184.0      91.000     0.24914    
 STRESS PERIOD TIME 7.86240E+06 1.31040E+05  2184.0      91.000     0.24914    
         TOTAL TIME 2.36736E+07 3.94560E+05  6576.0      274.00     0.75017    
1
1
                            STRESS PERIOD NO.    4, LENGTH =   91.00000    
                            -----------------------------------------------

                              NUMBER OF TIME STEPS =     1

                               MULTIPLIER FOR DELT =     1.500

                            INITIAL TIME STEP SIZE =   91.00000    

 WELL NO.  LAYER   ROW   COL   STRESS RATE         
 --------------------------------------------------
      1      1     14      6       0.000    
      2      1      3      9       0.000    
      3      1     20     10       0.000    
      4      1     14     20       0.000    
      5      1     16     21      -8812.    
      6      1     20     20      -6819.    
      7      1      4     15      -7093.    
      8      1     21     14      -7630.    

      8 WELLS

                 RECHARGE =  1.000000E-03

 REUSING STREAM SEGMENT DATA FROM LAST STRESS PERIOD
 
 SOLVING FOR HEAD 


     6 CALLS TO PCG ROUTINE FOR TIME STEP   1 IN STRESS PERIOD    4
    23 TOTAL ITERATIONS

 OUTPUT CONTROL FOR STRESS PERIOD    4   TIME STEP    1
    SAVE BUDGET
    SAVE HEAD FOR ALL LAYERS
    PRINT HEAD FOR ALL LAYERS
 UBDSV2 SAVING "STREAMFLOW OUT  " ON UNIT  50 AT TIME STEP  1, STRESS PERIOD   4



 STREAM LISTING     PERIOD      4   STEP        1

 LAYER ROW COL. STREAM  RCH.  FLOW INTO     FLOW TO   FLOW OUT OF   OVRLND.     DIRECT     STREAM       STREAM     STREAM     STREAM   STREAMBED  STREAMBED
                SEG.NO.  NO.  STRM. RCH.    AQUIFER    STRM. RCH.    RUNOFF     PRECIP       ET          HEAD       DEPTH      WIDTH   CONDCTNC.   GRADIENT

   1   13    1     1     1    1.0000E+05 -2.4229E+03   1.0242E+05  0.000E+00  0.000E+00  0.000E+00  4.84071E+01  1.457E-01  2.000E+01  2.000E+04 -1.211E-01
   1   13    2     1     2    1.0242E+05 -3.4912E+03   1.0591E+05  0.000E+00  0.000E+00  0.000E+00  4.79323E+01  1.482E-01  2.000E+01  2.000E+04 -1.746E-01
   1   14    3     1     3    1.0591E+05 -6.0813E+02   1.0652E+05  0.000E+00  0.000E+00  0.000E+00  4.74568E+01  1.500E-01  2.000E+01  2.000E+04 -3.041E-02
   1   15    4     1     4    1.0652E+05 -5.7222E+02   1.0709E+05  0.000E+00  0.000E+00  0.000E+00  4.69800E+01  1.505E-01  2.000E+01  2.000E+04 -2.861E-02
   1   16    5     1     5    1.0709E+05 -1.8972E+03   1.0899E+05  0.000E+00  0.000E+00  0.000E+00  4.65038E+01  1.515E-01  2.000E+01  2.000E+04 -9.486E-02
   1   16    6     1     6    1.0899E+05 -1.1631E+03   1.1015E+05  0.000E+00  0.000E+00  0.000E+00  4.60278E+01  1.528E-01  2.000E+01  2.000E+04 -5.816E-02
   1   16    7     1     7    1.1015E+05 -1.0964E+03   1.1125E+05  0.000E+00  0.000E+00  0.000E+00  4.55515E+01  1.538E-01  2.000E+01  2.000E+04 -5.482E-02
   1   16    8     1     8    1.1125E+05 -1.0255E+03   1.1228E+05  0.000E+00  0.000E+00  0.000E+00  4.50751E+01  1.546E-01  2.000E+01  2.000E+04 -5.128E-02
   1   16    9     1     9    1.1228E+05 -9.2466E+02   1.1320E+05  0.000E+00  0.000E+00  0.000E+00  4.45986E+01  1.554E-01  2.000E+01  2.000E+04 -4.623E-02
   1   16   10     1    10    1.1320E+05 -7.8597E+02   1.1399E+05  0.000E+00  0.000E+00  0.000E+00  4.41221E+01  1.561E-01  2.000E+01  2.000E+04 -3.930E-02
   1   16   11     1    11    1.1399E+05 -6.1058E+02   1.1460E+05  0.000E+00  0.000E+00  0.000E+00  4.36454E+01  1.567E-01  2.000E+01  2.000E+04 -3.053E-02
   1   16   12     1    12    1.1460E+05 -7.6921E+02   1.1537E+05  0.000E+00  0.000E+00  0.000E+00  4.31687E+01  1.573E-01  2.000E+01  2.000E+04 -3.846E-02
   1   15   13     1    13    1.1537E+05 -1.0322E+03   1.1640E+05  0.000E+00  0.000E+00  0.000E+00  4.26921E+01  1.580E-01  2.000E+01  2.000E+04 -5.161E-02
   1   14   14     1    14    1.1640E+05 -1.4775E+03   1.1788E+05  0.000E+00  0.000E+00  0.000E+00  4.22159E+01  1.591E-01  2.000E+01  2.000E+04 -7.387E-02
   1   13   15     1    15    1.1788E+05 -1.9306E+03   1.1981E+05  0.000E+00  0.000E+00  0.000E+00  4.17400E+01  1.604E-01  2.000E+01  2.000E+04 -9.653E-02
   1   12   16     1    16    1.1981E+05 -2.8501E+03   1.2266E+05  0.000E+00  0.000E+00  0.000E+00  4.12646E+01  1.624E-01  2.000E+01  2.000E+04 -1.425E-01
   1   12   17     1    17    1.2266E+05 -1.6514E+03   1.2431E+05  0.000E+00  0.000E+00  0.000E+00  4.07892E+01  1.642E-01  2.000E+01  2.000E+04 -8.257E-02
   1   12   18     1    18    1.2431E+05 -1.5228E+03   1.2583E+05  0.000E+00  0.000E+00  0.000E+00  4.03132E+01  1.654E-01  2.000E+01  2.000E+04 -7.614E-02
   1   12   19     1    19    1.2583E+05 -2.1794E+03   1.2801E+05  0.000E+00  0.000E+00  0.000E+00  3.98374E+01  1.669E-01  2.000E+01  2.000E+04 -1.090E-01
   1   13   20     1    20    1.2801E+05 -8.0910E+02   1.2882E+05  0.000E+00  0.000E+00  0.000E+00  3.93613E+01  1.681E-01  2.000E+01  2.000E+04 -4.045E-02
   1   14   21     1    21    1.2882E+05  1.3482E+03   1.2747E+05  0.000E+00  0.000E+00  0.000E+00  3.88838E+01  1.679E-01  2.000E+01  2.000E+04  6.741E-02
   1   14   22     1    22    1.2747E+05  5.4393E+03   1.2203E+05  0.000E+00  0.000E+00  0.000E+00  3.84038E+01  1.652E-01  2.000E+01  2.000E+04  2.720E-01
   1    9   30     2     1    5.0000E+04 -8.4662E+02   5.0847E+04  0.000E+00  0.000E+00  0.000E+00  4.02415E+01  1.165E-01  2.000E+01  2.000E+04 -4.233E-02
   1    9   29     2     2    5.0847E+04 -1.1479E+03   5.1995E+04  0.000E+00  0.000E+00  0.000E+00  3.99928E+01  1.178E-01  2.000E+01  2.000E+04 -5.739E-02
   1    9   28     2     3    5.1995E+04 -1.4105E+03   5.3405E+04  0.000E+00  0.000E+00  0.000E+00  3.97446E+01  1.196E-01  2.000E+01  2.000E+04 -7.053E-02
   1    9   27     2     4    5.3405E+04 -2.7784E+03   5.6183E+04  0.000E+00  0.000E+00  0.000E+00  3.94974E+01  1.224E-01  2.000E+01  2.000E+04 -1.389E-01
   1   10   26     2     5    5.6183E+04 -1.9068E+03   5.8090E+04  0.000E+00  0.000E+00  0.000E+00  3.92505E+01  1.255E-01  2.000E+01  2.000E+04 -9.534E-02
   1   11   25     2     6    5.8090E+04 -1.6680E+03   5.9758E+04  0.000E+00  0.000E+00  0.000E+00  3.90029E+01  1.279E-01  2.000E+01  2.000E+04 -8.340E-02
   1   12   24     2     7    5.9758E+04 -1.7057E+03   6.1464E+04  0.000E+00  0.000E+00  0.000E+00  3.87550E+01  1.300E-01  2.000E+01  2.000E+04 -8.528E-02
   1   13   23     2     8    6.1464E+04 -2.8660E+02   6.1751E+04  0.000E+00  0.000E+00  0.000E+00  3.85063E+01  1.313E-01  2.000E+01  2.000E+04 -1.433E-02
   1   14   22     2     9    6.1751E+04  2.4616E+03   5.9289E+04  0.000E+00  0.000E+00  0.000E+00  3.82549E+01  1.299E-01  2.000E+01  2.000E+04  1.231E-01
   1   14   22     3     1    1.8132E+05 -8.0495E+03   1.8937E+05  0.000E+00  0.000E+00  0.000E+00  3.77294E+01  1.738E-01  2.000E+01  2.000E+04 -4.025E-01
   1   15   23     3     2    1.8937E+05  1.1125E+01   1.8936E+05  0.000E+00  0.000E+00  0.000E+00  3.68427E+01  1.761E-01  2.000E+01  2.000E+04  5.563E-04
   1   15   24     3     3    1.8936E+05 -2.0621E+02   1.8957E+05  0.000E+00  0.000E+00  0.000E+00  3.59539E+01  1.761E-01  2.000E+01  2.000E+04 -1.031E-02
   1   15   25     3     4    1.8957E+05 -2.5697E+02   1.8982E+05  0.000E+00  0.000E+00  0.000E+00  3.50651E+01  1.763E-01  2.000E+01  2.000E+04 -1.285E-02
   1   15   26     3     5    1.8982E+05 -3.4172E+02   1.9016E+05  0.000E+00  0.000E+00  0.000E+00  3.41764E+01  1.764E-01  2.000E+01  2.000E+04 -1.709E-02
   1   16   27     3     6    1.9016E+05 -3.6898E+02   1.9053E+05  0.000E+00  0.000E+00  0.000E+00  3.32877E+01  1.766E-01  2.000E+01  2.000E+04 -1.845E-02
   1   17   28     3     7    1.9053E+05 -1.5330E+03   1.9207E+05  0.000E+00  0.000E+00  0.000E+00  3.23994E+01  1.771E-01  2.000E+01  2.000E+04 -7.665E-02
   1   18   29     3     8    1.9207E+05 -2.7552E+03   1.9482E+05  0.000E+00  0.000E+00  0.000E+00  3.15117E+01  1.783E-01  2.000E+01  2.000E+04 -1.378E-01
   1   18   30     3     9    1.9482E+05 -3.1095E+03   1.9793E+05  0.000E+00  0.000E+00  0.000E+00  3.06244E+01  1.800E-01  2.000E+01  2.000E+04 -1.555E-01



1
              HEAD IN LAYER   1 AT END OF TIME STEP   1 IN STRESS PERIOD    4
  ---------------------------------------------------------------------------

          1      2      3      4      5      6      7      8      9     10
         11     12     13     14     15     16     17     18     19     20
         21     22     23     24     25     26     27     28     29     30
 .........................................................................
   1  ****** ****** ****** ****** ****** ****** ****** ****** ****** ******
      ****** ****** ****** ****** ****** ****** ****** ****** ****** ******
      ****** ****** ****** ****** ****** ****** ****** ****** ****** ******
   2  ****** ****** ****** ****** ****** ****** ****** ****** ****** ******
      ****** ****** ****** ****** ****** ****** ****** ****** ****** ******
      ****** ****** ****** ****** ****** ****** ****** ****** ****** ******
   3  ****** ****** ****** ****** ****** ****** ****** ****** ****** ******
      ****** ****** ****** ****** ****** ****** ****** ****** ****** ******
      ****** ****** ****** ****** ****** ****** ****** ****** ****** ******
   4  ****** ****** ****** ****** ****** ****** ****** ****** ****** ******
      ****** ****** ****** ****** ****** ****** ****** ****** ****** ******
      ****** ****** ****** ****** ****** ****** ****** ****** ****** ******
   5  ****** ****** ****** ****** ****** ****** ****** ****** ****** ******
      ****** ****** ****** ****** ****** ****** ****** ****** ****** ******
      ****** ****** ****** ****** ****** ****** ****** ****** ****** ******
   6  ****** ****** ****** ****** ****** ****** ****** ****** ****** ******
      ****** ****** ****** ****** ****** ****** ****** ****** ****** ******
      ****** ****** ****** ****** ****** ****** ****** ****** ****** ******
   7  ****** ****** ****** ****** ****** ****** ****** ****** ****** ******
      ****** ****** ****** ****** ****** ****** ****** ****** ****** ******
      ****** ****** ****** ****** ****** ****** ****** ****** ****** ******
   8  ****** ****** ****** ****** ****** ****** ****** ****** ****** ******
      ****** ****** ****** ****** ****** ****** ****** ****** ****** ******
      ****** ****** ****** ****** ****** ****** ****** ****** ****** ******
   9  ****** ****** ****** ****** ****** ****** ****** ****** ****** ******
      ****** ****** ****** ****** ****** ****** ****** ****** ****** ******
      ****** ****** ****** ****** ****** ****** ****** ****** ****** ******
  10  ****** ****** ****** ****** ****** ****** ****** ****** ****** ******
      ****** ****** ****** ****** ****** ****** ****** ****** ****** ******
      ****** ****** ****** ****** ****** ****** ****** ****** ****** ******
  11  ****** ****** ****** ****** ****** ****** ****** ****** ****** ******
      ****** ****** ****** ****** ****** ****** ****** ****** ****** ******
      ****** ****** ****** ****** ****** ****** ****** ****** ****** ******
  12  ****** ****** ****** ****** ****** ****** ****** ****** ****** ******
      ****** ****** ****** ****** ****** ****** ****** ****** ****** ******
      ****** ****** ****** ****** ****** ****** ****** ****** ****** ******
  13  ****** ****** ****** ****** ****** ****** ****** ****** ****** ******
      ****** ****** ****** ****** ****** ****** ****** ****** ****** ******
      ****** ****** ****** ****** ****** ****** ****** ****** ****** ******
  14  ****** ****** ****** ****** ****** ****** ****** ****** ****** ******
      ****** ****** ****** ****** ****** ****** ****** ****** ****** ******
      ****** ****** ****** ****** ****** ****** ****** ****** ****** ******
  15  ****** ****** ****** ****** ****** ****** ****** ****** ****** ******
      ****** ****** ****** ****** ****** ****** ****** ****** ****** ******
      ****** ****** ****** ****** ****** ****** ****** ****** ****** ******
  16  ****** ****** ****** ****** ****** ****** ****** ****** ****** ******
      ****** ****** ****** ****** ****** ****** ****** ****** ****** ******
      ****** ****** ****** ****** ****** ****** ****** ****** ****** ******
  17  ****** ****** ****** ****** ****** ****** ****** ****** ****** ******
      ****** ****** ****** ****** ****** ****** ****** ****** ****** ******
      ****** ****** ****** ****** ****** ****** ****** ****** ****** ******
  18  ****** ****** ****** ****** ****** ****** ****** ****** ****** ******
      ****** ****** ****** ****** ****** ****** ****** ****** ****** ******
      ****** ****** ****** ****** ****** ****** ****** ****** ****** ******
  19  ****** ****** ****** ****** ****** ****** ****** ****** ****** ******
      ****** ****** ****** ****** ****** ****** ****** ****** ****** ******
      ****** ****** ****** ****** ****** ****** ****** ****** ****** ******
  20  ****** ****** ****** ****** ****** ****** ****** ****** ****** ******
      ****** ****** ****** ****** ****** ****** ****** ****** ****** ******
      ****** ****** ****** ****** ****** ****** ****** ****** ****** ******
  21  ****** ****** ****** ****** ****** ****** ****** ****** ****** ******
      ****** ****** ****** ****** ****** ****** ****** ****** ****** ******
      ****** ****** ****** ****** ****** ****** ****** ****** ****** ******
  22  ****** ****** ****** ****** ****** ****** ****** ****** ****** ******
      ****** ****** ****** ****** ****** ****** ****** ****** ****** ******
      ****** ****** ****** ****** ****** ****** ****** ****** ****** ******
  23  ****** ****** ****** ****** ****** ****** ****** ****** ****** ******
      ****** ****** ****** ****** ****** ****** ****** ****** ****** ******
      ****** ****** ****** ****** ****** ****** ****** ****** ****** ******
  24  ****** ****** ****** ****** ****** ****** ****** ****** ****** ******
      ****** ****** ****** ****** ****** ****** ****** ****** ****** ******
      ****** ****** ****** ****** ****** ****** ****** ****** ****** ******
  25  ****** ****** ****** ****** ****** ****** ****** ****** ****** ******
      ****** ****** ****** ****** ****** ****** ****** ****** ****** ******
      ****** ****** ****** ****** ****** ****** ****** ****** ****** ******

 HEAD WILL BE SAVED ON UNIT   51 AT END OF TIME STEP    1, STRESS PERIOD    4
1
  VOLUMETRIC BUDGET FOR ENTIRE MODEL AT END OF TIME STEP    1, STRESS PERIOD   4
  ------------------------------------------------------------------------------

     CUMULATIVE VOLUMES      L**3       RATES FOR THIS TIME STEP      L**3/T
     ------------------                 ------------------------

           IN:                                      IN:
           ---                                      ---
             STORAGE =    30516043.1994               STORAGE =       20129.3937
       CONSTANT HEAD =     8236344.6245         CONSTANT HEAD =       30570.0791
               WELLS =           0.0000                 WELLS =           0.0000
            RECHARGE =     8804400.0000              RECHARGE =       27600.0000
      STREAM LEAKAGE =     2707750.5828        STREAM LEAKAGE =        9260.2159

            TOTAL IN =    50264538.4067              TOTAL IN =       87559.6887

          OUT:                                     OUT:
          ----                                     ----
             STORAGE =        1189.1810               STORAGE =          13.0679
       CONSTANT HEAD =           0.0000         CONSTANT HEAD =           0.0000
               WELLS =    11079513.2836                 WELLS =       30354.8309
            RECHARGE =           0.0000              RECHARGE =           0.0000
      STREAM LEAKAGE =    39183837.9078        STREAM LEAKAGE =       57191.7908

           TOTAL OUT =    50264540.3725             TOTAL OUT =       87559.6896

            IN - OUT =          -1.9657              IN - OUT =      -8.7392E-04

 PERCENT DISCREPANCY =          -0.00     PERCENT DISCREPANCY =          -0.00






         TIME SUMMARY AT END OF TIME STEP    1 IN STRESS PERIOD    4
                    SECONDS     MINUTES      HOURS       DAYS        YEARS
                    -----------------------------------------------------------
   TIME STEP LENGTH 7.86240E+06 1.31040E+05  2184.0      91.000     0.24914    
 STRESS PERIOD TIME 7.86240E+06 1.31040E+05  2184.0      91.000     0.24914    
         TOTAL TIME 3.15360E+07 5.25600E+05  8760.0      365.00     0.99932    
1
1
                            STRESS PERIOD NO.    5, LENGTH =   92.00000    
                            -----------------------------------------------

                              NUMBER OF TIME STEPS =     1

                               MULTIPLIER FOR DELT =     1.500

                            INITIAL TIME STEP SIZE =   92.00000    

 WELL NO.  LAYER   ROW   COL   STRESS RATE         
 --------------------------------------------------
      1      1     14      6       0.000    
      2      1      3      9       0.000    
      3      1     20     10       0.000    
      4      1     14     20       0.000    
      5      1     16     21      -8812.    
      6      1     20     20      -6819.    
      7      1      4     15      -7093.    
      8      1     21     14      -7630.    

      8 WELLS

                 RECHARGE =  5.000000E-04

 REUSING STREAM SEGMENT DATA FROM LAST STRESS PERIOD
 
 SOLVING FOR HEAD 


     7 CALLS TO PCG ROUTINE FOR TIME STEP   1 IN STRESS PERIOD    5
    26 TOTAL ITERATIONS

 OUTPUT CONTROL FOR STRESS PERIOD    5   TIME STEP    1
    SAVE BUDGET
    SAVE HEAD FOR ALL LAYERS
    PRINT HEAD FOR ALL LAYERS
 UBDSV2 SAVING "STREAMFLOW OUT  " ON UNIT  50 AT TIME STEP  1, STRESS PERIOD   5



 STREAM LISTING     PERIOD      5   STEP        1

 LAYER ROW COL. STREAM  RCH.  FLOW INTO     FLOW TO   FLOW OUT OF   OVRLND.     DIRECT     STREAM       STREAM     STREAM     STREAM   STREAMBED  STREAMBED
                SEG.NO.  NO.  STRM. RCH.    AQUIFER    STRM. RCH.    RUNOFF     PRECIP       ET          HEAD       DEPTH      WIDTH   CONDCTNC.   GRADIENT

   1   13    1     1     1    1.0000E+05 -1.9929E+03   1.0199E+05  0.000E+00  0.000E+00  0.000E+00  4.84069E+01  1.455E-01  2.000E+01  2.000E+04 -9.965E-02
   1   13    2     1     2    1.0199E+05 -3.0062E+03   1.0500E+05  0.000E+00  0.000E+00  0.000E+00  4.79318E+01  1.477E-01  2.000E+01  2.000E+04 -1.503E-01
   1   14    3     1     3    1.0500E+05 -4.8311E+02   1.0548E+05  0.000E+00  0.000E+00  0.000E+00  4.74560E+01  1.492E-01  2.000E+01  2.000E+04 -2.416E-02
   1   15    4     1     4    1.0548E+05 -4.4006E+02   1.0592E+05  0.000E+00  0.000E+00  0.000E+00  4.69791E+01  1.495E-01  2.000E+01  2.000E+04 -2.200E-02
   1   16    5     1     5    1.0592E+05 -1.4442E+03   1.0737E+05  0.000E+00  0.000E+00  0.000E+00  4.65026E+01  1.503E-01  2.000E+01  2.000E+04 -7.221E-02
   1   16    6     1     6    1.0737E+05 -8.9770E+02   1.0826E+05  0.000E+00  0.000E+00  0.000E+00  4.60263E+01  1.513E-01  2.000E+01  2.000E+04 -4.488E-02
   1   16    7     1     7    1.0826E+05 -8.4081E+02   1.0911E+05  0.000E+00  0.000E+00  0.000E+00  4.55498E+01  1.521E-01  2.000E+01  2.000E+04 -4.204E-02
   1   16    8     1     8    1.0911E+05 -7.7218E+02   1.0988E+05  0.000E+00  0.000E+00  0.000E+00  4.50732E+01  1.527E-01  2.000E+01  2.000E+04 -3.861E-02
   1   16    9     1     9    1.0988E+05 -6.7240E+02   1.1055E+05  0.000E+00  0.000E+00  0.000E+00  4.45965E+01  1.533E-01  2.000E+01  2.000E+04 -3.362E-02
   1   16   10     1    10    1.1055E+05 -5.3463E+02   1.1108E+05  0.000E+00  0.000E+00  0.000E+00  4.41198E+01  1.538E-01  2.000E+01  2.000E+04 -2.673E-02
   1   16   11     1    11    1.1108E+05 -3.5485E+02   1.1144E+05  0.000E+00  0.000E+00  0.000E+00  4.36429E+01  1.542E-01  2.000E+01  2.000E+04 -1.774E-02
   1   16   12     1    12    1.1144E+05 -3.0610E+02   1.1175E+05  0.000E+00  0.000E+00  0.000E+00  4.31659E+01  1.545E-01  2.000E+01  2.000E+04 -1.530E-02
   1   15   13     1    13    1.1175E+05 -5.5561E+02   1.1230E+05  0.000E+00  0.000E+00  0.000E+00  4.26889E+01  1.548E-01  2.000E+01  2.000E+04 -2.778E-02
   1   14   14     1    14    1.1230E+05 -9.7679E+02   1.1328E+05  0.000E+00  0.000E+00  0.000E+00  4.22123E+01  1.555E-01  2.000E+01  2.000E+04 -4.884E-02
   1   13   15     1    15    1.1328E+05 -1.4171E+03   1.1469E+05  0.000E+00  0.000E+00  0.000E+00  4.17360E+01  1.565E-01  2.000E+01  2.000E+04 -7.086E-02
   1   12   16     1    16    1.1469E+05 -2.2980E+03   1.1699E+05  0.000E+00  0.000E+00  0.000E+00  4.12603E+01  1.580E-01  2.000E+01  2.000E+04 -1.149E-01
   1   12   17     1    17    1.1699E+05 -1.2774E+03   1.1827E+05  0.000E+00  0.000E+00  0.000E+00  4.07845E+01  1.595E-01  2.000E+01  2.000E+04 -6.387E-02
   1   12   18     1    18    1.1827E+05 -1.1669E+03   1.1944E+05  0.000E+00  0.000E+00  0.000E+00  4.03082E+01  1.604E-01  2.000E+01  2.000E+04 -5.834E-02
   1   12   19     1    19    1.1944E+05 -1.7537E+03   1.2119E+05  0.000E+00  0.000E+00  0.000E+00  3.98321E+01  1.616E-01  2.000E+01  2.000E+04 -8.768E-02
   1   13   20     1    20    1.2119E+05 -4.2468E+02   1.2162E+05  0.000E+00  0.000E+00  0.000E+00  3.93557E+01  1.625E-01  2.000E+01  2.000E+04 -2.123E-02
   1   14   21     1    21    1.2162E+05  1.7777E+03   1.1984E+05  0.000E+00  0.000E+00  0.000E+00  3.88779E+01  1.620E-01  2.000E+01  2.000E+04  8.888E-02
   1   14   22     1    22    1.1984E+05  5.5250E+03   1.1431E+05  0.000E+00  0.000E+00  0.000E+00  3.83976E+01  1.590E-01  2.000E+01  2.000E+04  2.763E-01
   1    9   30     2     1    5.0000E+04 -6.1535E+02   5.0615E+04  0.000E+00  0.000E+00  0.000E+00  4.02413E+01  1.163E-01  2.000E+01  2.000E+04 -3.077E-02
   1    9   29     2     2    5.0615E+04 -9.1293E+02   5.1528E+04  0.000E+00  0.000E+00  0.000E+00  3.99923E+01  1.173E-01  2.000E+01  2.000E+04 -4.565E-02
   1    9   28     2     3    5.1528E+04 -1.1633E+03   5.2692E+04  0.000E+00  0.000E+00  0.000E+00  3.97438E+01  1.188E-01  2.000E+01  2.000E+04 -5.817E-02
   1    9   27     2     4    5.2692E+04 -2.3871E+03   5.5079E+04  0.000E+00  0.000E+00  0.000E+00  3.94962E+01  1.212E-01  2.000E+01  2.000E+04 -1.194E-01
   1   10   26     2     5    5.5079E+04 -1.5647E+03   5.6643E+04  0.000E+00  0.000E+00  0.000E+00  3.92488E+01  1.238E-01  2.000E+01  2.000E+04 -7.824E-02
   1   11   25     2     6    5.6643E+04 -1.3534E+03   5.7997E+04  0.000E+00  0.000E+00  0.000E+00  3.90008E+01  1.258E-01  2.000E+01  2.000E+04 -6.767E-02
   1   12   24     2     7    5.7997E+04 -1.4175E+03   5.9414E+04  0.000E+00  0.000E+00  0.000E+00  3.87526E+01  1.276E-01  2.000E+01  2.000E+04 -7.087E-02
   1   13   23     2     8    5.9414E+04 -2.1738E+02   5.9632E+04  0.000E+00  0.000E+00  0.000E+00  3.85036E+01  1.286E-01  2.000E+01  2.000E+04 -1.087E-02
   1   14   22     2     9    5.9632E+04  2.6139E+03   5.7018E+04  0.000E+00  0.000E+00  0.000E+00  3.82521E+01  1.271E-01  2.000E+01  2.000E+04  1.307E-01
   1   14   22     3     1    1.7133E+05 -7.9545E+03   1.7928E+05  0.000E+00  0.000E+00  0.000E+00  3.77237E+01  1.681E-01  2.000E+01  2.000E+04 -3.977E-01
   1   15   23     3     2    1.7928E+05  1.2274E+02   1.7916E+05  0.000E+00  0.000E+00  0.000E+00  3.68370E+01  1.703E-01  2.000E+01  2.000E+04  6.137E-03
   1   15   24     3     3    1.7916E+05 -1.2718E+02   1.7929E+05  0.000E+00  0.000E+00  0.000E+00  3.59481E+01  1.703E-01  2.000E+01  2.000E+04 -6.359E-03
   1   15   25     3     4    1.7929E+05 -1.7975E+02   1.7947E+05  0.000E+00  0.000E+00  0.000E+00  3.50593E+01  1.704E-01  2.000E+01  2.000E+04 -8.988E-03
   1   15   26     3     5    1.7947E+05 -2.6592E+02   1.7974E+05  0.000E+00  0.000E+00  0.000E+00  3.41706E+01  1.706E-01  2.000E+01  2.000E+04 -1.330E-02
   1   16   27     3     6    1.7974E+05 -2.7169E+02   1.8001E+05  0.000E+00  0.000E+00  0.000E+00  3.32818E+01  1.707E-01  2.000E+01  2.000E+04 -1.358E-02
   1   17   28     3     7    1.8001E+05 -1.2411E+03   1.8125E+05  0.000E+00  0.000E+00  0.000E+00  3.23934E+01  1.711E-01  2.000E+01  2.000E+04 -6.206E-02
   1   18   29     3     8    1.8125E+05 -2.3296E+03   1.8358E+05  0.000E+00  0.000E+00  0.000E+00  3.15055E+01  1.722E-01  2.000E+01  2.000E+04 -1.165E-01
   1   18   30     3     9    1.8358E+05 -2.8210E+03   1.8640E+05  0.000E+00  0.000E+00  0.000E+00  3.06181E+01  1.736E-01  2.000E+01  2.000E+04 -1.411E-01



1
              HEAD IN LAYER   1 AT END OF TIME STEP   1 IN STRESS PERIOD    5
  ---------------------------------------------------------------------------

          1      2      3      4      5      6      7      8      9     10
         11     12     13     14     15     16     17     18     19     20
         21     22     23     24     25     26     27     28     29     30
 .........................................................................
   1  ****** ****** ****** ****** ****** ****** ****** ****** ****** ******
      ****** ****** ****** ****** ****** ****** ****** ****** ****** ******
      ****** ****** ****** ****** ****** ****** ****** ****** ****** ******
   2  ****** ****** ****** ****** ****** ****** ****** ****** ****** ******
      ****** ****** ****** ****** ****** ****** ****** ****** ****** ******
      ****** ****** ****** ****** ****** ****** ****** ****** ****** ******
   3  ****** ****** ****** ****** ****** ****** ****** ****** ****** ******
      ****** ****** ****** ****** ****** ****** ****** ****** ****** ******
      ****** ****** ****** ****** ****** ****** ****** ****** ****** ******
   4  ****** ****** ****** ****** ****** ****** ****** ****** ****** ******
      ****** ****** ****** ****** ****** ****** ****** ****** ****** ******
      ****** ****** ****** ****** ****** ****** ****** ****** ****** ******
   5  ****** ****** ****** ****** ****** ****** ****** ****** ****** ******
      ****** ****** ****** ****** ****** ****** ****** ****** ****** ******
      ****** ****** ****** ****** ****** ****** ****** ****** ****** ******
   6  ****** ****** ****** ****** ****** ****** ****** ****** ****** ******
      ****** ****** ****** ****** ****** ****** ****** ****** ****** ******
      ****** ****** ****** ****** ****** ****** ****** ****** ****** ******
   7  ****** ****** ****** ****** ****** ****** ****** ****** ****** ******
      ****** ****** ****** ****** ****** ****** ****** ****** ****** ******
      ****** ****** ****** ****** ****** ****** ****** ****** ****** ******
   8  ****** ****** ****** ****** ****** ****** ****** ****** ****** ******
      ****** ****** ****** ****** ****** ****** ****** ****** ****** ******
      ****** ****** ****** ****** ****** ****** ****** ****** ****** ******
   9  ****** ****** ****** ****** ****** ****** ****** ****** ****** ******
      ****** ****** ****** ****** ****** ****** ****** ****** ****** ******
      ****** ****** ****** ****** ****** ****** ****** ****** ****** ******
  10  ****** ****** ****** ****** ****** ****** ****** ****** ****** ******
      ****** ****** ****** ****** ****** ****** ****** ****** ****** ******
      ****** ****** ****** ****** ****** ****** ****** ****** ****** ******
  11  ****** ****** ****** ****** ****** ****** ****** ****** ****** ******
      ****** ****** ****** ****** ****** ****** ****** ****** ****** ******
      ****** ****** ****** ****** ****** ****** ****** ****** ****** ******
  12  ****** ****** ****** ****** ****** ****** ****** ****** ****** ******
      ****** ****** ****** ****** ****** ****** ****** ****** ****** ******
      ****** ****** ****** ****** ****** ****** ****** ****** ****** ******
  13  ****** ****** ****** ****** ****** ****** ****** ****** ****** ******
      ****** ****** ****** ****** ****** ****** ****** ****** ****** ******
      ****** ****** ****** ****** ****** ****** ****** ****** ****** ******
  14  ****** ****** ****** ****** ****** ****** ****** ****** ****** ******
      ****** ****** ****** ****** ****** ****** ****** ****** ****** ******
      ****** ****** ****** ****** ****** ****** ****** ****** ****** ******
  15  ****** ****** ****** ****** ****** ****** ****** ****** ****** ******
      ****** ****** ****** ****** ****** ****** ****** ****** ****** ******
      ****** ****** ****** ****** ****** ****** ****** ****** ****** ******
  16  ****** ****** ****** ****** ****** ****** ****** ****** ****** ******
      ****** ****** ****** ****** ****** ****** ****** ****** ****** ******
      ****** ****** ****** ****** ****** ****** ****** ****** ****** ******
  17  ****** ****** ****** ****** ****** ****** ****** ****** ****** ******
      ****** ****** ****** ****** ****** ****** ****** ****** ****** ******
      ****** ****** ****** ****** ****** ****** ****** ****** ****** ******
  18  ****** ****** ****** ****** ****** ****** ****** ****** ****** ******
      ****** ****** ****** ****** ****** ****** ****** ****** ****** ******
      ****** ****** ****** ****** ****** ****** ****** ****** ****** ******
  19  ****** ****** ****** ****** ****** ****** ****** ****** ****** ******
      ****** ****** ****** ****** ****** ****** ****** ****** ****** ******
      ****** ****** ****** ****** ****** ****** ****** ****** ****** ******
  20  ****** ****** ****** ****** ****** ****** ****** ****** ****** ******
      ****** ****** ****** ****** ****** ****** ****** ****** ****** ******
      ****** ****** ****** ****** ****** ****** ****** ****** ****** ******
  21  ****** ****** ****** ****** ****** ****** ****** ****** ****** ******
      ****** ****** ****** ****** ****** ****** ****** ****** ****** ******
      ****** ****** ****** ****** ****** ****** ****** ****** ****** ******
  22  ****** ****** ****** ****** ****** ****** ****** ****** ****** ******
      ****** ****** ****** ****** ****** ****** ****** ****** ****** ******
      ****** ****** ****** ****** ****** ****** ****** ****** ****** ******
  23  ****** ****** ****** ****** ****** ****** ****** ****** ****** ******
      ****** ****** ****** ****** ****** ****** ****** ****** ****** ******
      ****** ****** ****** ****** ****** ****** ****** ****** ****** ******
  24  ****** ****** ****** ****** ****** ****** ****** ****** ****** ******
      ****** ****** ****** ****** ****** ****** ****** ****** ****** ******
      ****** ****** ****** ****** ****** ****** ****** ****** ****** ******
  25  ****** ****** ****** ****** ****** ****** ****** ****** ****** ******
      ****** ****** ****** ****** ****** ****** ****** ****** ****** ******
      ****** ****** ****** ****** ****** ****** ****** ****** ****** ******

 HEAD WILL BE SAVED ON UNIT   51 AT END OF TIME STEP    1, STRESS PERIOD    5
1
  VOLUMETRIC BUDGET FOR ENTIRE MODEL AT END OF TIME STEP    1, STRESS PERIOD   5
  ------------------------------------------------------------------------------

     CUMULATIVE VOLUMES      L**3       RATES FOR THIS TIME STEP      L**3/T
     ------------------                 ------------------------

           IN:                                      IN:
           ---                                      ---
             STORAGE =    32290419.2076               STORAGE =       19286.6957
       CONSTANT HEAD =    11333680.9329         CONSTANT HEAD =       33666.6990
               WELLS =           0.0000                 WELLS =           0.0000
            RECHARGE =    10074000.0000              RECHARGE =       13800.0000
      STREAM LEAKAGE =     3631370.4550        STREAM LEAKAGE =       10039.3464

            TOTAL IN =    57329470.5955              TOTAL IN =       76792.7412

          OUT:                                     OUT:
          ----                                     ----
             STORAGE =        1189.1810               STORAGE =           0.0000
       CONSTANT HEAD =           0.0000         CONSTANT HEAD =           0.0000
               WELLS =    13872157.7277                 WELLS =       30354.8309
            RECHARGE =           0.0000              RECHARGE =           0.0000
      STREAM LEAKAGE =    43456125.9495        STREAM LEAKAGE =       46437.9135

           TOTAL OUT =    57329472.8582             TOTAL OUT =       76792.7444

            IN - OUT =          -2.2627              IN - OUT =      -3.2280E-03

 PERCENT DISCREPANCY =          -0.00     PERCENT DISCREPANCY =          -0.00






         TIME SUMMARY AT END OF TIME STEP    1 IN STRESS PERIOD    5
                    SECONDS     MINUTES      HOURS       DAYS        YEARS
                    -----------------------------------------------------------
   TIME STEP LENGTH 7.94880E+06 1.32480E+05  2208.0      92.000     0.25188    
 STRESS PERIOD TIME 7.94880E+06 1.32480E+05  2208.0      92.000     0.25188    
         TOTAL TIME 3.94848E+07 6.58080E+05  10968.      457.00      1.2512    
1
1
                            STRESS PERIOD NO.    6, LENGTH =   91.00000    
                            -----------------------------------------------

                              NUMBER OF TIME STEPS =     1

                               MULTIPLIER FOR DELT =     1.500

                            INITIAL TIME STEP SIZE =   91.00000    

 WELL NO.  LAYER   ROW   COL   STRESS RATE         
 --------------------------------------------------
      1      1     14      6       0.000    
      2      1      3      9       0.000    
      3      1     20     10       0.000    
      4      1     14     20       0.000    
      5      1     16     21      -8812.    
      6      1     20     20      -6819.    
      7      1      4     15      -7093.    
      8      1     21     14      -7630.    

      8 WELLS

                 RECHARGE =  2.000000E-03

 REUSING STREAM SEGMENT DATA FROM LAST STRESS PERIOD
 
 SOLVING FOR HEAD 


     7 CALLS TO PCG ROUTINE FOR TIME STEP   1 IN STRESS PERIOD    6
    26 TOTAL ITERATIONS

 OUTPUT CONTROL FOR STRESS PERIOD    6   TIME STEP    1
    SAVE BUDGET
    SAVE HEAD FOR ALL LAYERS
    PRINT HEAD FOR ALL LAYERS
 UBDSV2 SAVING "STREAMFLOW OUT  " ON UNIT  50 AT TIME STEP  1, STRESS PERIOD   6



 STREAM LISTING     PERIOD      6   STEP        1

 LAYER ROW COL. STREAM  RCH.  FLOW INTO     FLOW TO   FLOW OUT OF   OVRLND.     DIRECT     STREAM       STREAM     STREAM     STREAM   STREAMBED  STREAMBED
                SEG.NO.  NO.  STRM. RCH.    AQUIFER    STRM. RCH.    RUNOFF     PRECIP       ET          HEAD       DEPTH      WIDTH   CONDCTNC.   GRADIENT

   1   13    1     1     1    1.0000E+05 -2.2976E+03   1.0230E+05  0.000E+00  0.000E+00  0.000E+00  4.84070E+01  1.456E-01  2.000E+01  2.000E+04 -1.149E-01
   1   13    2     1     2    1.0230E+05 -3.3400E+03   1.0564E+05  0.000E+00  0.000E+00  0.000E+00  4.79322E+01  1.481E-01  2.000E+01  2.000E+04 -1.670E-01
   1   14    3     1     3    1.0564E+05 -6.3611E+02   1.0627E+05  0.000E+00  0.000E+00  0.000E+00  4.74566E+01  1.498E-01  2.000E+01  2.000E+04 -3.181E-02
   1   15    4     1     4    1.0627E+05 -6.0423E+02   1.0688E+05  0.000E+00  0.000E+00  0.000E+00  4.69798E+01  1.503E-01  2.000E+01  2.000E+04 -3.021E-02
   1   16    5     1     5    1.0688E+05 -1.9280E+03   1.0881E+05  0.000E+00  0.000E+00  0.000E+00  4.65036E+01  1.514E-01  2.000E+01  2.000E+04 -9.640E-02
   1   16    6     1     6    1.0881E+05 -1.1814E+03   1.0999E+05  0.000E+00  0.000E+00  0.000E+00  4.60277E+01  1.527E-01  2.000E+01  2.000E+04 -5.907E-02
   1   16    7     1     7    1.0999E+05 -1.1091E+03   1.1110E+05  0.000E+00  0.000E+00  0.000E+00  4.55513E+01  1.536E-01  2.000E+01  2.000E+04 -5.546E-02
   1   16    8     1     8    1.1110E+05 -1.0353E+03   1.1213E+05  0.000E+00  0.000E+00  0.000E+00  4.50750E+01  1.545E-01  2.000E+01  2.000E+04 -5.177E-02
   1   16    9     1     9    1.1213E+05 -9.3427E+02   1.1307E+05  0.000E+00  0.000E+00  0.000E+00  4.45985E+01  1.553E-01  2.000E+01  2.000E+04 -4.671E-02
   1   16   10     1    10    1.1307E+05 -7.9699E+02   1.1386E+05  0.000E+00  0.000E+00  0.000E+00  4.41220E+01  1.560E-01  2.000E+01  2.000E+04 -3.985E-02
   1   16   11     1    11    1.1386E+05 -6.1865E+02   1.1448E+05  0.000E+00  0.000E+00  0.000E+00  4.36453E+01  1.566E-01  2.000E+01  2.000E+04 -3.093E-02
   1   16   12     1    12    1.1448E+05 -7.2741E+02   1.1521E+05  0.000E+00  0.000E+00  0.000E+00  4.31685E+01  1.572E-01  2.000E+01  2.000E+04 -3.637E-02
   1   15   13     1    13    1.1521E+05 -9.9076E+02   1.1620E+05  0.000E+00  0.000E+00  0.000E+00  4.26920E+01  1.579E-01  2.000E+01  2.000E+04 -4.954E-02
   1   14   14     1    14    1.1620E+05 -1.4085E+03   1.1761E+05  0.000E+00  0.000E+00  0.000E+00  4.22157E+01  1.589E-01  2.000E+01  2.000E+04 -7.043E-02
   1   13   15     1    15    1.1761E+05 -1.8315E+03   1.1944E+05  0.000E+00  0.000E+00  0.000E+00  4.17397E+01  1.602E-01  2.000E+01  2.000E+04 -9.158E-02
   1   12   16     1    16    1.1944E+05 -2.6698E+03   1.2211E+05  0.000E+00  0.000E+00  0.000E+00  4.12643E+01  1.620E-01  2.000E+01  2.000E+04 -1.335E-01
   1   12   17     1    17    1.2211E+05 -1.5809E+03   1.2369E+05  0.000E+00  0.000E+00  0.000E+00  4.07887E+01  1.637E-01  2.000E+01  2.000E+04 -7.905E-02
   1   12   18     1    18    1.2369E+05 -1.4747E+03   1.2517E+05  0.000E+00  0.000E+00  0.000E+00  4.03126E+01  1.649E-01  2.000E+01  2.000E+04 -7.373E-02
   1   12   19     1    19    1.2517E+05 -2.1393E+03   1.2730E+05  0.000E+00  0.000E+00  0.000E+00  3.98368E+01  1.664E-01  2.000E+01  2.000E+04 -1.070E-01
   1   13   20     1    20    1.2730E+05 -8.3202E+02   1.2814E+05  0.000E+00  0.000E+00  0.000E+00  3.93607E+01  1.675E-01  2.000E+01  2.000E+04 -4.160E-02
   1   14   21     1    21    1.2814E+05  1.3916E+03   1.2675E+05  0.000E+00  0.000E+00  0.000E+00  3.88832E+01  1.673E-01  2.000E+01  2.000E+04  6.958E-02
   1   14   22     1    22    1.2675E+05  5.4239E+03   1.2132E+05  0.000E+00  0.000E+00  0.000E+00  3.84032E+01  1.646E-01  2.000E+01  2.000E+04  2.712E-01
   1    9   30     2     1    5.0000E+04 -9.7908E+02   5.0979E+04  0.000E+00  0.000E+00  0.000E+00  4.02415E+01  1.165E-01  2.000E+01  2.000E+04 -4.895E-02
   1    9   29     2     2    5.0979E+04 -1.2722E+03   5.2251E+04  0.000E+00  0.000E+00  0.000E+00  3.99931E+01  1.181E-01  2.000E+01  2.000E+04 -6.361E-02
   1    9   28     2     3    5.2251E+04 -1.5157E+03   5.3767E+04  0.000E+00  0.000E+00  0.000E+00  3.97450E+01  1.200E-01  2.000E+01  2.000E+04 -7.578E-02
   1    9   27     2     4    5.3767E+04 -2.8319E+03   5.6599E+04  0.000E+00  0.000E+00  0.000E+00  3.94979E+01  1.229E-01  2.000E+01  2.000E+04 -1.416E-01
   1   10   26     2     5    5.6599E+04 -2.0334E+03   5.8632E+04  0.000E+00  0.000E+00  0.000E+00  3.92512E+01  1.262E-01  2.000E+01  2.000E+04 -1.017E-01
   1   11   25     2     6    5.8632E+04 -1.8073E+03   6.0440E+04  0.000E+00  0.000E+00  0.000E+00  3.90037E+01  1.287E-01  2.000E+01  2.000E+04 -9.036E-02
   1   12   24     2     7    6.0440E+04 -1.8263E+03   6.2266E+04  0.000E+00  0.000E+00  0.000E+00  3.87560E+01  1.310E-01  2.000E+01  2.000E+04 -9.132E-02
   1   13   23     2     8    6.2266E+04 -3.5501E+02   6.2621E+04  0.000E+00  0.000E+00  0.000E+00  3.85074E+01  1.324E-01  2.000E+01  2.000E+04 -1.775E-02
   1   14   22     2     9    6.2621E+04  2.4797E+03   6.0141E+04  0.000E+00  0.000E+00  0.000E+00  3.82560E+01  1.310E-01  2.000E+01  2.000E+04  1.240E-01
   1   14   22     3     1    1.8146E+05 -8.0520E+03   1.8951E+05  0.000E+00  0.000E+00  0.000E+00  3.77295E+01  1.739E-01  2.000E+01  2.000E+04 -4.026E-01
   1   15   23     3     2    1.8951E+05 -8.0877E+00   1.8952E+05  0.000E+00  0.000E+00  0.000E+00  3.68428E+01  1.762E-01  2.000E+01  2.000E+04 -4.044E-04
   1   15   24     3     3    1.8952E+05 -2.4561E+02   1.8977E+05  0.000E+00  0.000E+00  0.000E+00  3.59540E+01  1.762E-01  2.000E+01  2.000E+04 -1.228E-02
   1   15   25     3     4    1.8977E+05 -3.0318E+02   1.9007E+05  0.000E+00  0.000E+00  0.000E+00  3.50653E+01  1.764E-01  2.000E+01  2.000E+04 -1.516E-02
   1   15   26     3     5    1.9007E+05 -4.1542E+02   1.9049E+05  0.000E+00  0.000E+00  0.000E+00  3.41766E+01  1.766E-01  2.000E+01  2.000E+04 -2.077E-02
   1   16   27     3     6    1.9049E+05 -4.3695E+02   1.9092E+05  0.000E+00  0.000E+00  0.000E+00  3.32879E+01  1.768E-01  2.000E+01  2.000E+04 -2.185E-02
   1   17   28     3     7    1.9092E+05 -1.6920E+03   1.9262E+05  0.000E+00  0.000E+00  0.000E+00  3.23996E+01  1.774E-01  2.000E+01  2.000E+04 -8.460E-02
   1   18   29     3     8    1.9262E+05 -2.7438E+03   1.9536E+05  0.000E+00  0.000E+00  0.000E+00  3.15120E+01  1.786E-01  2.000E+01  2.000E+04 -1.372E-01
   1   18   30     3     9    1.9536E+05 -3.1620E+03   1.9852E+05  0.000E+00  0.000E+00  0.000E+00  3.06247E+01  1.803E-01  2.000E+01  2.000E+04 -1.581E-01



1
              HEAD IN LAYER   1 AT END OF TIME STEP   1 IN STRESS PERIOD    6
  ---------------------------------------------------------------------------

          1      2      3      4      5      6      7      8      9     10
         11     12     13     14     15     16     17     18     19     20
         21     22     23     24     25     26     27     28     29     30
 .........................................................................
   1  ****** ****** ****** ****** ****** ****** ****** ****** ****** ******
      ****** ****** ****** ****** ****** ****** ****** ****** ****** ******
      ****** ****** ****** ****** ****** ****** ****** ****** ****** ******
   2  ****** ****** ****** ****** ****** ****** ****** ****** ****** ******
      ****** ****** ****** ****** ****** ****** ****** ****** ****** ******
      ****** ****** ****** ****** ****** ****** ****** ****** ****** ******
   3  ****** ****** ****** ****** ****** ****** ****** ****** ****** ******
      ****** ****** ****** ****** ****** ****** ****** ****** ****** ******
      ****** ****** ****** ****** ****** ****** ****** ****** ****** ******
   4  ****** ****** ****** ****** ****** ****** ****** ****** ****** ******
      ****** ****** ****** ****** ****** ****** ****** ****** ****** ******
      ****** ****** ****** ****** ****** ****** ****** ****** ****** ******
   5  ****** ****** ****** ****** ****** ****** ****** ****** ****** ******
      ****** ****** ****** ****** ****** ****** ****** ****** ****** ******
      ****** ****** ****** ****** ****** ****** ****** ****** ****** ******
   6  ****** ****** ****** ****** ****** ****** ****** ****** ****** ******
      ****** ****** ****** ****** ****** ****** ****** ****** ****** ******
      ****** ****** ****** ****** ****** ****** ****** ****** ****** ******
   7  ****** ****** ****** ****** ****** ****** ****** ****** ****** ******
      ****** ****** ****** ****** ****** ****** ****** ****** ****** ******
      ****** ****** ****** ****** ****** ****** ****** ****** ****** ******
   8  ****** ****** ****** ****** ****** ****** ****** ****** ****** ******
      ****** ****** ****** ****** ****** ****** ****** ****** ****** ******
      ****** ****** ****** ****** ****** ****** ****** ****** ****** ******
   9  ****** ****** ****** ****** ****** ****** ****** ****** ****** ******
      ****** ****** ****** ****** ****** ****** ****** ****** ****** ******
      ****** ****** ****** ****** ****** ****** ****** ****** ****** ******
  10  ****** ****** ****** ****** ****** ****** ****** ****** ****** ******
      ****** ****** ****** ****** ****** ****** ****** ****** ****** ******
      ****** ****** ****** ****** ****** ****** ****** ****** ****** ******
  11  ****** ****** ****** ****** ****** ****** ****** ****** ****** ******
      ****** ****** ****** ****** ****** ****** ****** ****** ****** ******
      ****** ****** ****** ****** ****** ****** ****** ****** ****** ******
  12  ****** ****** ****** ****** ****** ****** ****** ****** ****** ******
      ****** ****** ****** ****** ****** ****** ****** ****** ****** ******
      ****** ****** ****** ****** ****** ****** ****** ****** ****** ******
  13  ****** ****** ****** ****** ****** ****** ****** ****** ****** ******
      ****** ****** ****** ****** ****** ****** ****** ****** ****** ******
      ****** ****** ****** ****** ****** ****** ****** ****** ****** ******
  14  ****** ****** ****** ****** ****** ****** ****** ****** ****** ******
      ****** ****** ****** ****** ****** ****** ****** ****** ****** ******
      ****** ****** ****** ****** ****** ****** ****** ****** ****** ******
  15  ****** ****** ****** ****** ****** ****** ****** ****** ****** ******
      ****** ****** ****** ****** ****** ****** ****** ****** ****** ******
      ****** ****** ****** ****** ****** ****** ****** ****** ****** ******
  16  ****** ****** ****** ****** ****** ****** ****** ****** ****** ******
      ****** ****** ****** ****** ****** ****** ****** ****** ****** ******
      ****** ****** ****** ****** ****** ****** ****** ****** ****** ******
  17  ****** ****** ****** ****** ****** ****** ****** ****** ****** ******
      ****** ****** ****** ****** ****** ****** ****** ****** ****** ******
      ****** ****** ****** ****** ****** ****** ****** ****** ****** ******
  18  ****** ****** ****** ****** ****** ****** ****** ****** ****** ******
      ****** ****** ****** ****** ****** ****** ****** ****** ****** ******
      ****** ****** ****** ****** ****** ****** ****** ****** ****** ******
  19  ****** ****** ****** ****** ****** ****** ****** ****** ****** ******
      ****** ****** ****** ****** ****** ****** ****** ****** ****** ******
      ****** ****** ****** ****** ****** ****** ****** ****** ****** ******
  20  ****** ****** ****** ****** ****** ****** ****** ****** ****** ******
      ****** ****** ****** ****** ****** ****** ****** ****** ****** ******
      ****** ****** ****** ****** ****** ****** ****** ****** ****** ******
  21  ****** ****** ****** ****** ****** ****** ****** ****** ****** ******
      ****** ****** ****** ****** ****** ****** ****** ****** ****** ******
      ****** ****** ****** ****** ****** ****** ****** ****** ****** ******
  22  ****** ****** ****** ****** ****** ****** ****** ****** ****** ******
      ****** ****** ****** ****** ****** ****** ****** ****** ****** ******
      ****** ****** ****** ****** ****** ****** ****** ****** ****** ******
  23  ****** ****** ****** ****** ****** ****** ****** ****** ****** ******
      ****** ****** ****** ****** ****** ****** ****** ****** ****** ******
      ****** ****** ****** ****** ****** ****** ****** ****** ****** ******
  24  ****** ****** ****** ****** ****** ****** ****** ****** ****** ******
      ****** ****** ****** ****** ****** ****** ****** ****** ****** ******
      ****** ****** ****** ****** ****** ****** ****** ****** ****** ******
  25  ****** ****** ****** ****** ****** ****** ****** ****** ****** ******
      ****** ****** ****** ****** ****** ****** ****** ****** ****** ******
      ****** ****** ****** ****** ****** ****** ****** ****** ****** ******

 HEAD WILL BE SAVED ON UNIT   51 AT END OF TIME STEP    1, STRESS PERIOD    6
1
  VOLUMETRIC BUDGET FOR ENTIRE MODEL AT END OF TIME STEP    1, STRESS PERIOD   6
  ------------------------------------------------------------------------------

     CUMULATIVE VOLUMES      L**3       RATES FOR THIS TIME STEP      L**3/T
     ------------------                 ------------------------

           IN:                                      IN:
           ---                                      ---
             STORAGE =    32290419.2076               STORAGE =           0.0000
       CONSTANT HEAD =    14233133.3737         CONSTANT HEAD =       31862.1147
               WELLS =           0.0000                 WELLS =           0.0000
            RECHARGE =    15097200.0000              RECHARGE =       55200.0000
      STREAM LEAKAGE =     4477235.5222        STREAM LEAKAGE =        9295.2205

            TOTAL IN =    66097988.1035              TOTAL IN =       96357.3353

          OUT:                                     OUT:
          ----                                     ----
             STORAGE =      746105.3909               STORAGE =        8185.8924
       CONSTANT HEAD =           0.0000         CONSTANT HEAD =           0.0000
               WELLS =    16634447.3409                 WELLS =       30354.8309
            RECHARGE =           0.0000              RECHARGE =           0.0000
      STREAM LEAKAGE =    48717437.3801        STREAM LEAKAGE =       57816.6091

           TOTAL OUT =    66097990.1119             TOTAL OUT =       96357.3325

            IN - OUT =          -2.0084              IN - OUT =       2.7947E-03

 PERCENT DISCREPANCY =          -0.00     PERCENT DISCREPANCY =           0.00






         TIME SUMMARY AT END OF TIME STEP    1 IN STRESS PERIOD    6
                    SECONDS     MINUTES      HOURS       DAYS        YEARS
                    -----------------------------------------------------------
   TIME STEP LENGTH 7.86240E+06 1.31040E+05  2184.0      91.000     0.24914    
 STRESS PERIOD TIME 7.86240E+06 1.31040E+05  2184.0      91.000     0.24914    
         TOTAL TIME 4.73472E+07 7.89120E+05  13152.      548.00      1.5003    
1
1
                            STRESS PERIOD NO.    7, LENGTH =   91.00000    
                            -----------------------------------------------

                              NUMBER OF TIME STEPS =     1

                               MULTIPLIER FOR DELT =     1.500

                            INITIAL TIME STEP SIZE =   91.00000    

 WELL NO.  LAYER   ROW   COL   STRESS RATE         
 --------------------------------------------------
      1      1     14      6       0.000    
      2      1      3      9       0.000    
      3      1     20     10       0.000    
      4      1     14     20       0.000    
      5      1     16     21      -8812.    
      6      1     20     20      -6819.    
      7      1      4     15      -7093.    
      8      1     21     14      -7630.    

      8 WELLS

                 RECHARGE =   0.00000    

 REUSING STREAM SEGMENT DATA FROM LAST STRESS PERIOD
 
 SOLVING FOR HEAD 


     7 CALLS TO PCG ROUTINE FOR TIME STEP   1 IN STRESS PERIOD    7
    26 TOTAL ITERATIONS

 OUTPUT CONTROL FOR STRESS PERIOD    7   TIME STEP    1
    SAVE BUDGET
    SAVE HEAD FOR ALL LAYERS
    PRINT HEAD FOR ALL LAYERS
 UBDSV2 SAVING "STREAMFLOW OUT  " ON UNIT  50 AT TIME STEP  1, STRESS PERIOD   7



 STREAM LISTING     PERIOD      7   STEP        1

 LAYER ROW COL. STREAM  RCH.  FLOW INTO     FLOW TO   FLOW OUT OF   OVRLND.     DIRECT     STREAM       STREAM     STREAM     STREAM   STREAMBED  STREAMBED
                SEG.NO.  NO.  STRM. RCH.    AQUIFER    STRM. RCH.    RUNOFF     PRECIP       ET          HEAD       DEPTH      WIDTH   CONDCTNC.   GRADIENT

   1   13    1     1     1    1.0000E+05 -1.6251E+03   1.0163E+05  0.000E+00  0.000E+00  0.000E+00  4.84067E+01  1.454E-01  2.000E+01  2.000E+04 -8.125E-02
   1   13    2     1     2    1.0163E+05 -2.5876E+03   1.0421E+05  0.000E+00  0.000E+00  0.000E+00  4.79313E+01  1.472E-01  2.000E+01  2.000E+04 -1.294E-01
   1   14    3     1     3    1.0421E+05 -3.8291E+02   1.0460E+05  0.000E+00  0.000E+00  0.000E+00  4.74553E+01  1.484E-01  2.000E+01  2.000E+04 -1.915E-02
   1   15    4     1     4    1.0460E+05 -3.4014E+02   1.0494E+05  0.000E+00  0.000E+00  0.000E+00  4.69783E+01  1.487E-01  2.000E+01  2.000E+04 -1.701E-02
   1   16    5     1     5    1.0494E+05 -1.1674E+03   1.0610E+05  0.000E+00  0.000E+00  0.000E+00  4.65017E+01  1.494E-01  2.000E+01  2.000E+04 -5.837E-02
   1   16    6     1     6    1.0610E+05 -7.2275E+02   1.0683E+05  0.000E+00  0.000E+00  0.000E+00  4.60252E+01  1.502E-01  2.000E+01  2.000E+04 -3.614E-02
   1   16    7     1     7    1.0683E+05 -6.6875E+02   1.0749E+05  0.000E+00  0.000E+00  0.000E+00  4.55485E+01  1.508E-01  2.000E+01  2.000E+04 -3.344E-02
   1   16    8     1     8    1.0749E+05 -6.0063E+02   1.0810E+05  0.000E+00  0.000E+00  0.000E+00  4.50718E+01  1.513E-01  2.000E+01  2.000E+04 -3.003E-02
   1   16    9     1     9    1.0810E+05 -5.0230E+02   1.0860E+05  0.000E+00  0.000E+00  0.000E+00  4.45950E+01  1.518E-01  2.000E+01  2.000E+04 -2.511E-02
   1   16   10     1    10    1.0860E+05 -3.6693E+02   1.0896E+05  0.000E+00  0.000E+00  0.000E+00  4.41181E+01  1.521E-01  2.000E+01  2.000E+04 -1.835E-02
   1   16   11     1    11    1.0896E+05 -1.8646E+02   1.0915E+05  0.000E+00  0.000E+00  0.000E+00  4.36410E+01  1.524E-01  2.000E+01  2.000E+04 -9.323E-03
   1   16   12     1    12    1.0915E+05  1.0225E+00   1.0915E+05  0.000E+00  0.000E+00  0.000E+00  4.31638E+01  1.525E-01  2.000E+01  2.000E+04  5.112E-05
   1   15   13     1    13    1.0915E+05 -2.1230E+02   1.0936E+05  0.000E+00  0.000E+00  0.000E+00  4.26866E+01  1.525E-01  2.000E+01  2.000E+04 -1.062E-02
   1   14   14     1    14    1.0936E+05 -6.0303E+02   1.0997E+05  0.000E+00  0.000E+00  0.000E+00  4.22097E+01  1.529E-01  2.000E+01  2.000E+04 -3.015E-02
   1   13   15     1    15    1.0997E+05 -1.0252E+03   1.1099E+05  0.000E+00  0.000E+00  0.000E+00  4.17331E+01  1.536E-01  2.000E+01  2.000E+04 -5.126E-02
   1   12   16     1    16    1.1099E+05 -1.8715E+03   1.1286E+05  0.000E+00  0.000E+00  0.000E+00  4.12570E+01  1.548E-01  2.000E+01  2.000E+04 -9.358E-02
   1   12   17     1    17    1.1286E+05 -9.9990E+02   1.1386E+05  0.000E+00  0.000E+00  0.000E+00  4.07810E+01  1.560E-01  2.000E+01  2.000E+04 -5.000E-02
   1   12   18     1    18    1.1386E+05 -9.0791E+02   1.1477E+05  0.000E+00  0.000E+00  0.000E+00  4.03045E+01  1.567E-01  2.000E+01  2.000E+04 -4.540E-02
   1   12   19     1    19    1.1477E+05 -1.4484E+03   1.1622E+05  0.000E+00  0.000E+00  0.000E+00  3.98282E+01  1.577E-01  2.000E+01  2.000E+04 -7.242E-02
   1   13   20     1    20    1.1622E+05 -1.5546E+02   1.1637E+05  0.000E+00  0.000E+00  0.000E+00  3.93515E+01  1.584E-01  2.000E+01  2.000E+04 -7.773E-03
   1   14   21     1    21    1.1637E+05  2.0653E+03   1.1431E+05  0.000E+00  0.000E+00  0.000E+00  3.88735E+01  1.576E-01  2.000E+01  2.000E+04  1.033E-01
   1   14   22     1    22    1.1431E+05  5.5806E+03   1.0873E+05  0.000E+00  0.000E+00  0.000E+00  3.83931E+01  1.544E-01  2.000E+01  2.000E+04  2.790E-01
   1    9   30     2     1    5.0000E+04 -4.6544E+02   5.0465E+04  0.000E+00  0.000E+00  0.000E+00  4.02412E+01  1.162E-01  2.000E+01  2.000E+04 -2.327E-02
   1    9   29     2     2    5.0465E+04 -7.6033E+02   5.1226E+04  0.000E+00  0.000E+00  0.000E+00  3.99920E+01  1.170E-01  2.000E+01  2.000E+04 -3.802E-02
   1    9   28     2     3    5.1226E+04 -1.0024E+03   5.2228E+04  0.000E+00  0.000E+00  0.000E+00  3.97433E+01  1.183E-01  2.000E+01  2.000E+04 -5.012E-02
   1    9   27     2     4    5.2228E+04 -2.1340E+03   5.4362E+04  0.000E+00  0.000E+00  0.000E+00  3.94954E+01  1.204E-01  2.000E+01  2.000E+04 -1.067E-01
   1   10   26     2     5    5.4362E+04 -1.3336E+03   5.5696E+04  0.000E+00  0.000E+00  0.000E+00  3.92477E+01  1.227E-01  2.000E+01  2.000E+04 -6.668E-02
   1   11   25     2     6    5.5696E+04 -1.1361E+03   5.6832E+04  0.000E+00  0.000E+00  0.000E+00  3.89994E+01  1.244E-01  2.000E+01  2.000E+04 -5.680E-02
   1   12   24     2     7    5.6832E+04 -1.2142E+03   5.8046E+04  0.000E+00  0.000E+00  0.000E+00  3.87509E+01  1.259E-01  2.000E+01  2.000E+04 -6.071E-02
   1   13   23     2     8    5.8046E+04 -1.6297E+02   5.8209E+04  0.000E+00  0.000E+00  0.000E+00  3.85018E+01  1.268E-01  2.000E+01  2.000E+04 -8.148E-03
   1   14   22     2     9    5.8209E+04  2.7221E+03   5.5487E+04  0.000E+00  0.000E+00  0.000E+00  3.82501E+01  1.251E-01  2.000E+01  2.000E+04  1.361E-01
   1   14   22     3     1    1.6421E+05 -7.8905E+03   1.7211E+05  0.000E+00  0.000E+00  0.000E+00  3.77195E+01  1.640E-01  2.000E+01  2.000E+04 -3.945E-01
   1   15   23     3     2    1.7211E+05  2.0140E+02   1.7190E+05  0.000E+00  0.000E+00  0.000E+00  3.68329E+01  1.662E-01  2.000E+01  2.000E+04  1.007E-02
   1   15   24     3     3    1.7190E+05 -7.0292E+01   1.7197E+05  0.000E+00  0.000E+00  0.000E+00  3.59439E+01  1.662E-01  2.000E+01  2.000E+04 -3.515E-03
   1   15   25     3     4    1.7197E+05 -1.2502E+02   1.7210E+05  0.000E+00  0.000E+00  0.000E+00  3.50551E+01  1.662E-01  2.000E+01  2.000E+04 -6.251E-03
   1   15   26     3     5    1.7210E+05 -2.1330E+02   1.7231E+05  0.000E+00  0.000E+00  0.000E+00  3.41663E+01  1.663E-01  2.000E+01  2.000E+04 -1.066E-02
   1   16   27     3     6    1.7231E+05 -2.0292E+02   1.7252E+05  0.000E+00  0.000E+00  0.000E+00  3.32775E+01  1.664E-01  2.000E+01  2.000E+04 -1.015E-02
   1   17   28     3     7    1.7252E+05 -1.0446E+03   1.7356E+05  0.000E+00  0.000E+00  0.000E+00  3.23890E+01  1.668E-01  2.000E+01  2.000E+04 -5.223E-02
   1   18   29     3     8    1.7356E+05 -2.0449E+03   1.7560E+05  0.000E+00  0.000E+00  0.000E+00  3.15010E+01  1.677E-01  2.000E+01  2.000E+04 -1.022E-01
   1   18   30     3     9    1.7560E+05 -2.6258E+03   1.7823E+05  0.000E+00  0.000E+00  0.000E+00  3.06135E+01  1.690E-01  2.000E+01  2.000E+04 -1.313E-01



1
              HEAD IN LAYER   1 AT END OF TIME STEP   1 IN STRESS PERIOD    7
  ---------------------------------------------------------------------------

          1      2      3      4      5      6      7      8      9     10
         11     12     13     14     15     16     17     18     19     20
         21     22     23     24     25     26     27     28     29     30
 .........................................................................
   1  ****** ****** ****** ****** ****** ****** ****** ****** ****** ******
      ****** ****** ****** ****** ****** ****** ****** ****** ****** ******
      ****** ****** ****** ****** ****** ****** ****** ****** ****** ******
   2  ****** ****** ****** ****** ****** ****** ****** ****** ****** ******
      ****** ****** ****** ****** ****** ****** ****** ****** ****** ******
      ****** ****** ****** ****** ****** ****** ****** ****** ****** ******
   3  ****** ****** ****** ****** ****** ****** ****** ****** ****** ******
      ****** ****** ****** ****** ****** ****** ****** ****** ****** ******
      ****** ****** ****** ****** ****** ****** ****** ****** ****** ******
   4  ****** ****** ****** ****** ****** ****** ****** ****** ****** ******
      ****** ****** ****** ****** ****** ****** ****** ****** ****** ******
      ****** ****** ****** ****** ****** ****** ****** ****** ****** ******
   5  ****** ****** ****** ****** ****** ****** ****** ****** ****** ******
      ****** ****** ****** ****** ****** ****** ****** ****** ****** ******
      ****** ****** ****** ****** ****** ****** ****** ****** ****** ******
   6  ****** ****** ****** ****** ****** ****** ****** ****** ****** ******
      ****** ****** ****** ****** ****** ****** ****** ****** ****** ******
      ****** ****** ****** ****** ****** ****** ****** ****** ****** ******
   7  ****** ****** ****** ****** ****** ****** ****** ****** ****** ******
      ****** ****** ****** ****** ****** ****** ****** ****** ****** ******
      ****** ****** ****** ****** ****** ****** ****** ****** ****** ******
   8  ****** ****** ****** ****** ****** ****** ****** ****** ****** ******
      ****** ****** ****** ****** ****** ****** ****** ****** ****** ******
      ****** ****** ****** ****** ****** ****** ****** ****** ****** ******
   9  ****** ****** ****** ****** ****** ****** ****** ****** ****** ******
      ****** ****** ****** ****** ****** ****** ****** ****** ****** ******
      ****** ****** ****** ****** ****** ****** ****** ****** ****** ******
  10  ****** ****** ****** ****** ****** ****** ****** ****** ****** ******
      ****** ****** ****** ****** ****** ****** ****** ****** ****** ******
      ****** ****** ****** ****** ****** ****** ****** ****** ****** ******
  11  ****** ****** ****** ****** ****** ****** ****** ****** ****** ******
      ****** ****** ****** ****** ****** ****** ****** ****** ****** ******
      ****** ****** ****** ****** ****** ****** ****** ****** ****** ******
  12  ****** ****** ****** ****** ****** ****** ****** ****** ****** ******
      ****** ****** ****** ****** ****** ****** ****** ****** ****** ******
      ****** ****** ****** ****** ****** ****** ****** ****** ****** ******
  13  ****** ****** ****** ****** ****** ****** ****** ****** ****** ******
      ****** ****** ****** ****** ****** ****** ****** ****** ****** ******
      ****** ****** ****** ****** ****** ****** ****** ****** ****** ******
  14  ****** ****** ****** ****** ****** ****** ****** ****** ****** ******
      ****** ****** ****** ****** ****** ****** ****** ****** ****** ******
      ****** ****** ****** ****** ****** ****** ****** ****** ****** ******
  15  ****** ****** ****** ****** ****** ****** ****** ****** ****** ******
      ****** ****** ****** ****** ****** ****** ****** ****** ****** ******
      ****** ****** ****** ****** ****** ****** ****** ****** ****** ******
  16  ****** ****** ****** ****** ****** ****** ****** ****** ****** ******
      ****** ****** ****** ****** ****** ****** ****** ****** ****** ******
      ****** ****** ****** ****** ****** ****** ****** ****** ****** ******
  17  ****** ****** ****** ****** ****** ****** ****** ****** ****** ******
      ****** ****** ****** ****** ****** ****** ****** ****** ****** ******
      ****** ****** ****** ****** ****** ****** ****** ****** ****** ******
  18  ****** ****** ****** ****** ****** ****** ****** ****** ****** ******
      ****** ****** ****** ****** ****** ****** ****** ****** ****** ******
      ****** ****** ****** ****** ****** ****** ****** ****** ****** ******
  19  ****** ****** ****** ****** ****** ****** ****** ****** ****** ******
      ****** ****** ****** ****** ****** ****** ****** ****** ****** ******
      ****** ****** ****** ****** ****** ****** ****** ****** ****** ******
  20  ****** ****** ****** ****** ****** ****** ****** ****** ****** ******
      ****** ****** ****** ****** ****** ****** ****** ****** ****** ******
      ****** ****** ****** ****** ****** ****** ****** ****** ****** ******
  21  ****** ****** ****** ****** ****** ****** ****** ****** ****** ******
      ****** ****** ****** ****** ****** ****** ****** ****** ****** ******
      ****** ****** ****** ****** ****** ****** ****** ****** ****** ******
  22  ****** ****** ****** ****** ****** ****** ****** ****** ****** ******
      ****** ****** ****** ****** ****** ****** ****** ****** ****** ******
      ****** ****** ****** ****** ****** ****** ****** ****** ****** ******
  23  ****** ****** ****** ****** ****** ****** ****** ****** ****** ******
      ****** ****** ****** ****** ****** ****** ****** ****** ****** ******
      ****** ****** ****** ****** ****** ****** ****** ****** ****** ******
  24  ****** ****** ****** ****** ****** ****** ****** ****** ****** ******
      ****** ****** ****** ****** ****** ****** ****** ****** ****** ******
      ****** ****** ****** ****** ****** ****** ****** ****** ****** ******
  25  ****** ****** ****** ****** ****** ****** ****** ****** ****** ******
      ****** ****** ****** ****** ****** ****** ****** ****** ****** ******
      ****** ****** ****** ****** ****** ****** ****** ****** ****** ******

 HEAD WILL BE SAVED ON UNIT   51 AT END OF TIME STEP    1, STRESS PERIOD    7
1
  VOLUMETRIC BUDGET FOR ENTIRE MODEL AT END OF TIME STEP    1, STRESS PERIOD   7
  ------------------------------------------------------------------------------

     CUMULATIVE VOLUMES      L**3       RATES FOR THIS TIME STEP      L**3/T
     ------------------                 ------------------------

           IN:                                      IN:
           ---                                      ---
             STORAGE =    34359407.5639               STORAGE =       22736.1358
       CONSTANT HEAD =    17495413.5289         CONSTANT HEAD =       35849.2325
               WELLS =           0.0000                 WELLS =           0.0000
            RECHARGE =    15097200.0000              RECHARGE =           0.0000
      STREAM LEAKAGE =     5439133.8381        STREAM LEAKAGE =       10570.3112

            TOTAL IN =    72391154.9309              TOTAL IN =       69155.6794

          OUT:                                     OUT:
          ----                                     ----
             STORAGE =      746105.3909               STORAGE =           0.0000
       CONSTANT HEAD =           0.0000         CONSTANT HEAD =           0.0000
               WELLS =    19396736.9541                 WELLS =       30354.8309
            RECHARGE =           0.0000              RECHARGE =           0.0000
      STREAM LEAKAGE =    52248315.0943        STREAM LEAKAGE =       38800.8540

           TOTAL OUT =    72391157.4393             TOTAL OUT =       69155.6849

            IN - OUT =          -2.5084              IN - OUT =      -5.4945E-03

 PERCENT DISCREPANCY =          -0.00     PERCENT DISCREPANCY =          -0.00






         TIME SUMMARY AT END OF TIME STEP    1 IN STRESS PERIOD    7
                    SECONDS     MINUTES      HOURS       DAYS        YEARS
                    -----------------------------------------------------------
   TIME STEP LENGTH 7.86240E+06 1.31040E+05  2184.0      91.000     0.24914    
 STRESS PERIOD TIME 7.86240E+06 1.31040E+05  2184.0      91.000     0.24914    
         TOTAL TIME 5.52096E+07 9.20160E+05  15336.      639.00      1.7495    
1
1
                            STRESS PERIOD NO.    8, LENGTH =   91.00000    
                            -----------------------------------------------

                              NUMBER OF TIME STEPS =     1

                               MULTIPLIER FOR DELT =     1.500

                            INITIAL TIME STEP SIZE =   91.00000    

 WELL NO.  LAYER   ROW   COL   STRESS RATE         
 --------------------------------------------------
      1      1     14      6       0.000    
      2      1      3      9       0.000    
      3      1     20     10       0.000    
      4      1     14     20       0.000    
      5      1     16     21      -8812.    
      6      1     20     20      -6819.    
      7      1      4     15      -7093.    
      8      1     21     14      -7630.    

      8 WELLS

                 RECHARGE =  1.000000E-03

 REUSING STREAM SEGMENT DATA FROM LAST STRESS PERIOD
 
 SOLVING FOR HEAD 


     6 CALLS TO PCG ROUTINE FOR TIME STEP   1 IN STRESS PERIOD    8
    22 TOTAL ITERATIONS

 OUTPUT CONTROL FOR STRESS PERIOD    8   TIME STEP    1
    SAVE BUDGET
    SAVE HEAD FOR ALL LAYERS
    PRINT HEAD FOR ALL LAYERS
 UBDSV2 SAVING "STREAMFLOW OUT  " ON UNIT  50 AT TIME STEP  1, STRESS PERIOD   8



 STREAM LISTING     PERIOD      8   STEP        1

 LAYER ROW COL. STREAM  RCH.  FLOW INTO     FLOW TO   FLOW OUT OF   OVRLND.     DIRECT     STREAM       STREAM     STREAM     STREAM   STREAMBED  STREAMBED
                SEG.NO.  NO.  STRM. RCH.    AQUIFER    STRM. RCH.    RUNOFF     PRECIP       ET          HEAD       DEPTH      WIDTH   CONDCTNC.   GRADIENT

   1   13    1     1     1    1.0000E+05 -1.6941E+03   1.0169E+05  0.000E+00  0.000E+00  0.000E+00  4.84067E+01  1.454E-01  2.000E+01  2.000E+04 -8.471E-02
   1   13    2     1     2    1.0169E+05 -2.6558E+03   1.0435E+05  0.000E+00  0.000E+00  0.000E+00  4.79314E+01  1.473E-01  2.000E+01  2.000E+04 -1.328E-01
   1   14    3     1     3    1.0435E+05 -4.4608E+02   1.0480E+05  0.000E+00  0.000E+00  0.000E+00  4.74554E+01  1.486E-01  2.000E+01  2.000E+04 -2.230E-02
   1   15    4     1     4    1.0480E+05 -4.0790E+02   1.0520E+05  0.000E+00  0.000E+00  0.000E+00  4.69785E+01  1.489E-01  2.000E+01  2.000E+04 -2.039E-02
   1   16    5     1     5    1.0520E+05 -1.3371E+03   1.0654E+05  0.000E+00  0.000E+00  0.000E+00  4.65020E+01  1.497E-01  2.000E+01  2.000E+04 -6.686E-02
   1   16    6     1     6    1.0654E+05 -8.2720E+02   1.0737E+05  0.000E+00  0.000E+00  0.000E+00  4.60256E+01  1.506E-01  2.000E+01  2.000E+04 -4.136E-02
   1   16    7     1     7    1.0737E+05 -7.6817E+02   1.0814E+05  0.000E+00  0.000E+00  0.000E+00  4.55490E+01  1.513E-01  2.000E+01  2.000E+04 -3.841E-02
   1   16    8     1     8    1.0814E+05 -6.9911E+02   1.0884E+05  0.000E+00  0.000E+00  0.000E+00  4.50724E+01  1.519E-01  2.000E+01  2.000E+04 -3.496E-02
   1   16    9     1     9    1.0884E+05 -6.0177E+02   1.0944E+05  0.000E+00  0.000E+00  0.000E+00  4.45956E+01  1.524E-01  2.000E+01  2.000E+04 -3.009E-02
   1   16   10     1    10    1.0944E+05 -4.6870E+02   1.0991E+05  0.000E+00  0.000E+00  0.000E+00  4.41188E+01  1.529E-01  2.000E+01  2.000E+04 -2.343E-02
   1   16   11     1    11    1.0991E+05 -2.9090E+02   1.1020E+05  0.000E+00  0.000E+00  0.000E+00  4.36418E+01  1.532E-01  2.000E+01  2.000E+04 -1.454E-02
   1   16   12     1    12    1.1020E+05 -1.5344E+02   1.1035E+05  0.000E+00  0.000E+00  0.000E+00  4.31648E+01  1.534E-01  2.000E+01  2.000E+04 -7.672E-03
   1   15   13     1    13    1.1035E+05 -3.7422E+02   1.1072E+05  0.000E+00  0.000E+00  0.000E+00  4.26877E+01  1.536E-01  2.000E+01  2.000E+04 -1.871E-02
   1   14   14     1    14    1.1072E+05 -7.5797E+02   1.1148E+05  0.000E+00  0.000E+00  0.000E+00  4.22109E+01  1.541E-01  2.000E+01  2.000E+04 -3.790E-02
   1   13   15     1    15    1.1148E+05 -1.1674E+03   1.1265E+05  0.000E+00  0.000E+00  0.000E+00  4.17344E+01  1.549E-01  2.000E+01  2.000E+04 -5.837E-02
   1   12   16     1    16    1.1265E+05 -1.9761E+03   1.1463E+05  0.000E+00  0.000E+00  0.000E+00  4.12585E+01  1.562E-01  2.000E+01  2.000E+04 -9.881E-02
   1   12   17     1    17    1.1463E+05 -1.1068E+03   1.1573E+05  0.000E+00  0.000E+00  0.000E+00  4.07825E+01  1.575E-01  2.000E+01  2.000E+04 -5.534E-02
   1   12   18     1    18    1.1573E+05 -1.0219E+03   1.1675E+05  0.000E+00  0.000E+00  0.000E+00  4.03061E+01  1.583E-01  2.000E+01  2.000E+04 -5.109E-02
   1   12   19     1    19    1.1675E+05 -1.5931E+03   1.1835E+05  0.000E+00  0.000E+00  0.000E+00  3.98298E+01  1.594E-01  2.000E+01  2.000E+04 -7.966E-02
   1   13   20     1    20    1.1835E+05 -3.2876E+02   1.1868E+05  0.000E+00  0.000E+00  0.000E+00  3.93534E+01  1.602E-01  2.000E+01  2.000E+04 -1.644E-02
   1   14   21     1    21    1.1868E+05  1.9141E+03   1.1676E+05  0.000E+00  0.000E+00  0.000E+00  3.88754E+01  1.595E-01  2.000E+01  2.000E+04  9.571E-02
   1   14   22     1    22    1.1676E+05  5.5347E+03   1.1123E+05  0.000E+00  0.000E+00  0.000E+00  3.83951E+01  1.565E-01  2.000E+01  2.000E+04  2.767E-01
   1    9   30     2     1    5.0000E+04 -6.2810E+02   5.0628E+04  0.000E+00  0.000E+00  0.000E+00  4.02413E+01  1.163E-01  2.000E+01  2.000E+04 -3.140E-02
   1    9   29     2     2    5.0628E+04 -9.2014E+02   5.1548E+04  0.000E+00  0.000E+00  0.000E+00  3.99924E+01  1.174E-01  2.000E+01  2.000E+04 -4.601E-02
   1    9   28     2     3    5.1548E+04 -1.1565E+03   5.2705E+04  0.000E+00  0.000E+00  0.000E+00  3.97438E+01  1.188E-01  2.000E+01  2.000E+04 -5.782E-02
   1    9   27     2     4    5.2705E+04 -2.3104E+03   5.5015E+04  0.000E+00  0.000E+00  0.000E+00  3.94962E+01  1.212E-01  2.000E+01  2.000E+04 -1.155E-01
   1   10   26     2     5    5.5015E+04 -1.5373E+03   5.6552E+04  0.000E+00  0.000E+00  0.000E+00  3.92487E+01  1.237E-01  2.000E+01  2.000E+04 -7.687E-02
   1   11   25     2     6    5.6552E+04 -1.3383E+03   5.7891E+04  0.000E+00  0.000E+00  0.000E+00  3.90006E+01  1.256E-01  2.000E+01  2.000E+04 -6.691E-02
   1   12   24     2     7    5.7891E+04 -1.3975E+03   5.9288E+04  0.000E+00  0.000E+00  0.000E+00  3.87524E+01  1.274E-01  2.000E+01  2.000E+04 -6.988E-02
   1   13   23     2     8    5.9288E+04 -2.3699E+02   5.9525E+04  0.000E+00  0.000E+00  0.000E+00  3.85035E+01  1.285E-01  2.000E+01  2.000E+04 -1.185E-02
   1   14   22     2     9    5.9525E+04  2.6705E+03   5.6855E+04  0.000E+00  0.000E+00  0.000E+00  3.82519E+01  1.269E-01  2.000E+01  2.000E+04  1.335E-01
   1   14   22     3     1    1.6808E+05 -7.9321E+03   1.7601E+05  0.000E+00  0.000E+00  0.000E+00  3.77218E+01  1.662E-01  2.000E+01  2.000E+04 -3.966E-01
   1   15   23     3     2    1.7601E+05  1.3903E+02   1.7588E+05  0.000E+00  0.000E+00  0.000E+00  3.68351E+01  1.685E-01  2.000E+01  2.000E+04  6.951E-03
   1   15   24     3     3    1.7588E+05 -1.2976E+02   1.7601E+05  0.000E+00  0.000E+00  0.000E+00  3.59462E+01  1.685E-01  2.000E+01  2.000E+04 -6.488E-03
   1   15   25     3     4    1.7601E+05 -1.8634E+02   1.7619E+05  0.000E+00  0.000E+00  0.000E+00  3.50574E+01  1.686E-01  2.000E+01  2.000E+04 -9.317E-03
   1   15   26     3     5    1.7619E+05 -2.8736E+02   1.7648E+05  0.000E+00  0.000E+00  0.000E+00  3.41687E+01  1.687E-01  2.000E+01  2.000E+04 -1.437E-02
   1   16   27     3     6    1.7648E+05 -2.8365E+02   1.7676E+05  0.000E+00  0.000E+00  0.000E+00  3.32800E+01  1.689E-01  2.000E+01  2.000E+04 -1.418E-02
   1   17   28     3     7    1.7676E+05 -1.2446E+03   1.7801E+05  0.000E+00  0.000E+00  0.000E+00  3.23915E+01  1.693E-01  2.000E+01  2.000E+04 -6.223E-02
   1   18   29     3     8    1.7801E+05 -2.2023E+03   1.8021E+05  0.000E+00  0.000E+00  0.000E+00  3.15036E+01  1.703E-01  2.000E+01  2.000E+04 -1.101E-01
   1   18   30     3     9    1.8021E+05 -2.7676E+03   1.8298E+05  0.000E+00  0.000E+00  0.000E+00  3.06161E+01  1.717E-01  2.000E+01  2.000E+04 -1.384E-01



1
              HEAD IN LAYER   1 AT END OF TIME STEP   1 IN STRESS PERIOD    8
  ---------------------------------------------------------------------------

          1      2      3      4      5      6      7      8      9     10
         11     12     13     14     15     16     17     18     19     20
         21     22     23     24     25     26     27     28     29     30
 .........................................................................
   1  ****** ****** ****** ****** ****** ****** ****** ****** ****** ******
      ****** ****** ****** ****** ****** ****** ****** ****** ****** ******
      ****** ****** ****** ****** ****** ****** ****** ****** ****** ******
   2  ****** ****** ****** ****** ****** ****** ****** ****** ****** ******
      ****** ****** ****** ****** ****** ****** ****** ****** ****** ******
      ****** ****** ****** ****** ****** ****** ****** ****** ****** ******
   3  ****** ****** ****** ****** ****** ****** ****** ****** ****** ******
      ****** ****** ****** ****** ****** ****** ****** ****** ****** ******
      ****** ****** ****** ****** ****** ****** ****** ****** ****** ******
   4  ****** ****** ****** ****** ****** ****** ****** ****** ****** ******
      ****** ****** ****** ****** ****** ****** ****** ****** ****** ******
      ****** ****** ****** ****** ****** ****** ****** ****** ****** ******
   5  ****** ****** ****** ****** ****** ****** ****** ****** ****** ******
      ****** ****** ****** ****** ****** ****** ****** ****** ****** ******
      ****** ****** ****** ****** ****** ****** ****** ****** ****** ******
   6  ****** ****** ****** ****** ****** ****** ****** ****** ****** ******
      ****** ****** ****** ****** ****** ****** ****** ****** ****** ******
      ****** ****** ****** ****** ****** ****** ****** ****** ****** ******
   7  ****** ****** ****** ****** ****** ****** ****** ****** ****** ******
      ****** ****** ****** ****** ****** ****** ****** ****** ****** ******
      ****** ****** ****** ****** ****** ****** ****** ****** ****** ******
   8  ****** ****** ****** ****** ****** ****** ****** ****** ****** ******
      ****** ****** ****** ****** ****** ****** ****** ****** ****** ******
      ****** ****** ****** ****** ****** ****** ****** ****** ****** ******
   9  ****** ****** ****** ****** ****** ****** ****** ****** ****** ******
      ****** ****** ****** ****** ****** ****** ****** ****** ****** ******
      ****** ****** ****** ****** ****** ****** ****** ****** ****** ******
  10  ****** ****** ****** ****** ****** ****** ****** ****** ****** ******
      ****** ****** ****** ****** ****** ****** ****** ****** ****** ******
      ****** ****** ****** ****** ****** ****** ****** ****** ****** ******
  11  ****** ****** ****** ****** ****** ****** ****** ****** ****** ******
      ****** ****** ****** ****** ****** ****** ****** ****** ****** ******
      ****** ****** ****** ****** ****** ****** ****** ****** ****** ******
  12  ****** ****** ****** ****** ****** ****** ****** ****** ****** ******
      ****** ****** ****** ****** ****** ****** ****** ****** ****** ******
      ****** ****** ****** ****** ****** ****** ****** ****** ****** ******
  13  ****** ****** ****** ****** ****** ****** ****** ****** ****** ******
      ****** ****** ****** ****** ****** ****** ****** ****** ****** ******
      ****** ****** ****** ****** ****** ****** ****** ****** ****** ******
  14  ****** ****** ****** ****** ****** ****** ****** ****** ****** ******
      ****** ****** ****** ****** ****** ****** ****** ****** ****** ******
      ****** ****** ****** ****** ****** ****** ****** ****** ****** ******
  15  ****** ****** ****** ****** ****** ****** ****** ****** ****** ******
      ****** ****** ****** ****** ****** ****** ****** ****** ****** ******
      ****** ****** ****** ****** ****** ****** ****** ****** ****** ******
  16  ****** ****** ****** ****** ****** ****** ****** ****** ****** ******
      ****** ****** ****** ****** ****** ****** ****** ****** ****** ******
      ****** ****** ****** ****** ****** ****** ****** ****** ****** ******
  17  ****** ****** ****** ****** ****** ****** ****** ****** ****** ******
      ****** ****** ****** ****** ****** ****** ****** ****** ****** ******
      ****** ****** ****** ****** ****** ****** ****** ****** ****** ******
  18  ****** ****** ****** ****** ****** ****** ****** ****** ****** ******
      ****** ****** ****** ****** ****** ****** ****** ****** ****** ******
      ****** ****** ****** ****** ****** ****** ****** ****** ****** ******
  19  ****** ****** ****** ****** ****** ****** ****** ****** ****** ******
      ****** ****** ****** ****** ****** ****** ****** ****** ****** ******
      ****** ****** ****** ****** ****** ****** ****** ****** ****** ******
  20  ****** ****** ****** ****** ****** ****** ****** ****** ****** ******
      ****** ****** ****** ****** ****** ****** ****** ****** ****** ******
      ****** ****** ****** ****** ****** ****** ****** ****** ****** ******
  21  ****** ****** ****** ****** ****** ****** ****** ****** ****** ******
      ****** ****** ****** ****** ****** ****** ****** ****** ****** ******
      ****** ****** ****** ****** ****** ****** ****** ****** ****** ******
  22  ****** ****** ****** ****** ****** ****** ****** ****** ****** ******
      ****** ****** ****** ****** ****** ****** ****** ****** ****** ******
      ****** ****** ****** ****** ****** ****** ****** ****** ****** ******
  23  ****** ****** ****** ****** ****** ****** ****** ****** ****** ******
      ****** ****** ****** ****** ****** ****** ****** ****** ****** ******
      ****** ****** ****** ****** ****** ****** ****** ****** ****** ******
  24  ****** ****** ****** ****** ****** ****** ****** ****** ****** ******
      ****** ****** ****** ****** ****** ****** ****** ****** ****** ******
      ****** ****** ****** ****** ****** ****** ****** ****** ****** ******
  25  ****** ****** ****** ****** ****** ****** ****** ****** ****** ******
      ****** ****** ****** ****** ****** ****** ****** ****** ****** ******
      ****** ****** ****** ****** ****** ****** ****** ****** ****** ******

 HEAD WILL BE SAVED ON UNIT   51 AT END OF TIME STEP    1, STRESS PERIOD    8
1
  VOLUMETRIC BUDGET FOR ENTIRE MODEL AT END OF TIME STEP    1, STRESS PERIOD   8
  ------------------------------------------------------------------------------

     CUMULATIVE VOLUMES      L**3       RATES FOR THIS TIME STEP      L**3/T
     ------------------                 ------------------------

           IN:                                      IN:
           ---                                      ---
             STORAGE =    34502105.5610               STORAGE =        1568.1099
       CONSTANT HEAD =    20734163.8663         CONSTANT HEAD =       35590.6630
               WELLS =           0.0000                 WELLS =           0.0000
            RECHARGE =    17608800.0000              RECHARGE =       27600.0000
      STREAM LEAKAGE =     6372642.5064        STREAM LEAKAGE =       10258.3370

            TOTAL IN =    79217711.9337              TOTAL IN =       75017.1099

          OUT:                                     OUT:
          ----                                     ----
             STORAGE =      875951.1528               STORAGE =        1426.8765
       CONSTANT HEAD =           0.0000         CONSTANT HEAD =           0.0000
               WELLS =    22159026.5672                 WELLS =       30354.8309
            RECHARGE =           0.0000              RECHARGE =           0.0000
      STREAM LEAKAGE =    56182735.9953        STREAM LEAKAGE =       43235.3945

           TOTAL OUT =    79217713.7154             TOTAL OUT =       75017.1019

            IN - OUT =          -1.7817              IN - OUT =       7.9852E-03

 PERCENT DISCREPANCY =          -0.00     PERCENT DISCREPANCY =           0.00






         TIME SUMMARY AT END OF TIME STEP    1 IN STRESS PERIOD    8
                    SECONDS     MINUTES      HOURS       DAYS        YEARS
                    -----------------------------------------------------------
   TIME STEP LENGTH 7.86240E+06 1.31040E+05  2184.0      91.000     0.24914    
 STRESS PERIOD TIME 7.86240E+06 1.31040E+05  2184.0      91.000     0.24914    
         TOTAL TIME 6.30720E+07 1.05120E+06  17520.      730.00      1.9986    
1
1
                            STRESS PERIOD NO.    9, LENGTH =   92.00000    
                            -----------------------------------------------

                              NUMBER OF TIME STEPS =     1

                               MULTIPLIER FOR DELT =     1.500

                            INITIAL TIME STEP SIZE =   92.00000    

 WELL NO.  LAYER   ROW   COL   STRESS RATE         
 --------------------------------------------------
      1      1     14      6       0.000    
      2      1      3      9       0.000    
      3      1     20     10       0.000    
      4      1     14     20       0.000    
      5      1     16     21      -8812.    
      6      1     20     20      -6819.    
      7      1      4     15      -7093.    
      8      1     21     14      -7630.    

      8 WELLS

                 RECHARGE =  5.000000E-04

 REUSING STREAM SEGMENT DATA FROM LAST STRESS PERIOD
 
 SOLVING FOR HEAD 


     6 CALLS TO PCG ROUTINE FOR TIME STEP   1 IN STRESS PERIOD    9
    23 TOTAL ITERATIONS

 OUTPUT CONTROL FOR STRESS PERIOD    9   TIME STEP    1
    SAVE BUDGET
    SAVE HEAD FOR ALL LAYERS
    PRINT HEAD FOR ALL LAYERS
 UBDSV2 SAVING "STREAMFLOW OUT  " ON UNIT  50 AT TIME STEP  1, STRESS PERIOD   9



 STREAM LISTING     PERIOD      9   STEP        1

 LAYER ROW COL. STREAM  RCH.  FLOW INTO     FLOW TO   FLOW OUT OF   OVRLND.     DIRECT     STREAM       STREAM     STREAM     STREAM   STREAMBED  STREAMBED
                SEG.NO.  NO.  STRM. RCH.    AQUIFER    STRM. RCH.    RUNOFF     PRECIP       ET          HEAD       DEPTH      WIDTH   CONDCTNC.   GRADIENT

   1   13    1     1     1    1.0000E+05 -1.4767E+03   1.0148E+05  0.000E+00  0.000E+00  0.000E+00  4.84067E+01  1.453E-01  2.000E+01  2.000E+04 -7.383E-02
   1   13    2     1     2    1.0148E+05 -2.4095E+03   1.0389E+05  0.000E+00  0.000E+00  0.000E+00  4.79311E+01  1.470E-01  2.000E+01  2.000E+04 -1.205E-01
   1   14    3     1     3    1.0389E+05 -3.7465E+02   1.0426E+05  0.000E+00  0.000E+00  0.000E+00  4.74550E+01  1.482E-01  2.000E+01  2.000E+04 -1.873E-02
   1   15    4     1     4    1.0426E+05 -3.3546E+02   1.0460E+05  0.000E+00  0.000E+00  0.000E+00  4.69780E+01  1.485E-01  2.000E+01  2.000E+04 -1.677E-02
   1   16    5     1     5    1.0460E+05 -1.1424E+03   1.0574E+05  0.000E+00  0.000E+00  0.000E+00  4.65014E+01  1.491E-01  2.000E+01  2.000E+04 -5.712E-02
   1   16    6     1     6    1.0574E+05 -7.0581E+02   1.0644E+05  0.000E+00  0.000E+00  0.000E+00  4.60249E+01  1.499E-01  2.000E+01  2.000E+04 -3.529E-02
   1   16    7     1     7    1.0644E+05 -6.5049E+02   1.0709E+05  0.000E+00  0.000E+00  0.000E+00  4.55482E+01  1.505E-01  2.000E+01  2.000E+04 -3.252E-02
   1   16    8     1     8    1.0709E+05 -5.8290E+02   1.0768E+05  0.000E+00  0.000E+00  0.000E+00  4.50714E+01  1.510E-01  2.000E+01  2.000E+04 -2.915E-02
   1   16    9     1     9    1.0768E+05 -4.8711E+02   1.0816E+05  0.000E+00  0.000E+00  0.000E+00  4.45946E+01  1.514E-01  2.000E+01  2.000E+04 -2.436E-02
   1   16   10     1    10    1.0816E+05 -3.5597E+02   1.0852E+05  0.000E+00  0.000E+00  0.000E+00  4.41177E+01  1.518E-01  2.000E+01  2.000E+04 -1.780E-02
   1   16   11     1    11    1.0852E+05 -1.7900E+02   1.0870E+05  0.000E+00  0.000E+00  0.000E+00  4.36406E+01  1.520E-01  2.000E+01  2.000E+04 -8.950E-03
   1   16   12     1    12    1.0870E+05  3.8572E+01   1.0866E+05  0.000E+00  0.000E+00  0.000E+00  4.31634E+01  1.521E-01  2.000E+01  2.000E+04  1.929E-03
   1   15   13     1    13    1.0866E+05 -1.6118E+02   1.0882E+05  0.000E+00  0.000E+00  0.000E+00  4.26862E+01  1.521E-01  2.000E+01  2.000E+04 -8.059E-03
   1   14   14     1    14    1.0882E+05 -5.3153E+02   1.0935E+05  0.000E+00  0.000E+00  0.000E+00  4.22092E+01  1.524E-01  2.000E+01  2.000E+04 -2.658E-02
   1   13   15     1    15    1.0935E+05 -9.3531E+02   1.1029E+05  0.000E+00  0.000E+00  0.000E+00  4.17326E+01  1.530E-01  2.000E+01  2.000E+04 -4.677E-02
   1   12   16     1    16    1.1029E+05 -1.7360E+03   1.1203E+05  0.000E+00  0.000E+00  0.000E+00  4.12564E+01  1.541E-01  2.000E+01  2.000E+04 -8.680E-02
   1   12   17     1    17    1.1203E+05 -9.4198E+02   1.1297E+05  0.000E+00  0.000E+00  0.000E+00  4.07802E+01  1.552E-01  2.000E+01  2.000E+04 -4.710E-02
   1   12   18     1    18    1.1297E+05 -8.6475E+02   1.1383E+05  0.000E+00  0.000E+00  0.000E+00  4.03037E+01  1.560E-01  2.000E+01  2.000E+04 -4.324E-02
   1   12   19     1    19    1.1383E+05 -1.4043E+03   1.1524E+05  0.000E+00  0.000E+00  0.000E+00  3.98274E+01  1.569E-01  2.000E+01  2.000E+04 -7.022E-02
   1   13   20     1    20    1.1524E+05 -1.5288E+02   1.1539E+05  0.000E+00  0.000E+00  0.000E+00  3.93507E+01  1.576E-01  2.000E+01  2.000E+04 -7.644E-03
   1   14   21     1    21    1.1539E+05  2.0895E+03   1.1330E+05  0.000E+00  0.000E+00  0.000E+00  3.88727E+01  1.568E-01  2.000E+01  2.000E+04  1.045E-01
   1   14   22     1    22    1.1330E+05  5.5726E+03   1.0773E+05  0.000E+00  0.000E+00  0.000E+00  3.83922E+01  1.536E-01  2.000E+01  2.000E+04  2.786E-01
   1    9   30     2     1    5.0000E+04 -5.0457E+02   5.0505E+04  0.000E+00  0.000E+00  0.000E+00  4.02412E+01  1.162E-01  2.000E+01  2.000E+04 -2.523E-02
   1    9   29     2     2    5.0505E+04 -7.9636E+02   5.1301E+04  0.000E+00  0.000E+00  0.000E+00  3.99921E+01  1.171E-01  2.000E+01  2.000E+04 -3.982E-02
   1    9   28     2     3    5.1301E+04 -1.0307E+03   5.2332E+04  0.000E+00  0.000E+00  0.000E+00  3.97434E+01  1.184E-01  2.000E+01  2.000E+04 -5.154E-02
   1    9   27     2     4    5.2332E+04 -2.1332E+03   5.4465E+04  0.000E+00  0.000E+00  0.000E+00  3.94955E+01  1.205E-01  2.000E+01  2.000E+04 -1.067E-01
   1   10   26     2     5    5.4465E+04 -1.3631E+03   5.5828E+04  0.000E+00  0.000E+00  0.000E+00  3.92479E+01  1.229E-01  2.000E+01  2.000E+04 -6.815E-02
   1   11   25     2     6    5.5828E+04 -1.1715E+03   5.6999E+04  0.000E+00  0.000E+00  0.000E+00  3.89996E+01  1.246E-01  2.000E+01  2.000E+04 -5.858E-02
   1   12   24     2     7    5.6999E+04 -1.2441E+03   5.8244E+04  0.000E+00  0.000E+00  0.000E+00  3.87512E+01  1.262E-01  2.000E+01  2.000E+04 -6.221E-02
   1   13   23     2     8    5.8244E+04 -1.8977E+02   5.8433E+04  0.000E+00  0.000E+00  0.000E+00  3.85021E+01  1.271E-01  2.000E+01  2.000E+04 -9.489E-03
   1   14   22     2     9    5.8433E+04  2.7365E+03   5.5697E+04  0.000E+00  0.000E+00  0.000E+00  3.82504E+01  1.254E-01  2.000E+01  2.000E+04  1.368E-01
   1   14   22     3     1    1.6342E+05 -7.8910E+03   1.7132E+05  0.000E+00  0.000E+00  0.000E+00  3.77191E+01  1.635E-01  2.000E+01  2.000E+04 -3.945E-01
   1   15   23     3     2    1.7132E+05  1.9253E+02   1.7112E+05  0.000E+00  0.000E+00  0.000E+00  3.68324E+01  1.657E-01  2.000E+01  2.000E+04  9.626E-03
   1   15   24     3     3    1.7112E+05 -8.6215E+01   1.7121E+05  0.000E+00  0.000E+00  0.000E+00  3.59435E+01  1.657E-01  2.000E+01  2.000E+04 -4.311E-03
   1   15   25     3     4    1.7121E+05 -1.4260E+02   1.7135E+05  0.000E+00  0.000E+00  0.000E+00  3.50547E+01  1.658E-01  2.000E+01  2.000E+04 -7.130E-03
   1   15   26     3     5    1.7135E+05 -2.3946E+02   1.7159E+05  0.000E+00  0.000E+00  0.000E+00  3.41659E+01  1.659E-01  2.000E+01  2.000E+04 -1.197E-02
   1   16   27     3     6    1.7159E+05 -2.2709E+02   1.7182E+05  0.000E+00  0.000E+00  0.000E+00  3.32771E+01  1.660E-01  2.000E+01  2.000E+04 -1.135E-02
   1   17   28     3     7    1.7182E+05 -1.0891E+03   1.7291E+05  0.000E+00  0.000E+00  0.000E+00  3.23886E+01  1.664E-01  2.000E+01  2.000E+04 -5.446E-02
   1   18   29     3     8    1.7291E+05 -2.0222E+03   1.7493E+05  0.000E+00  0.000E+00  0.000E+00  3.15006E+01  1.673E-01  2.000E+01  2.000E+04 -1.011E-01
   1   18   30     3     9    1.7493E+05 -2.6329E+03   1.7756E+05  0.000E+00  0.000E+00  0.000E+00  3.06131E+01  1.686E-01  2.000E+01  2.000E+04 -1.316E-01



1
              HEAD IN LAYER   1 AT END OF TIME STEP   1 IN STRESS PERIOD    9
  ---------------------------------------------------------------------------

          1      2      3      4      5      6      7      8      9     10
         11     12     13     14     15     16     17     18     19     20
         21     22     23     24     25     26     27     28     29     30
 .........................................................................
   1  ****** ****** ****** ****** ****** ****** ****** ****** ****** ******
      ****** ****** ****** ****** ****** ****** ****** ****** ****** ******
      ****** ****** ****** ****** ****** ****** ****** ****** ****** ******
   2  ****** ****** ****** ****** ****** ****** ****** ****** ****** ******
      ****** ****** ****** ****** ****** ****** ****** ****** ****** ******
      ****** ****** ****** ****** ****** ****** ****** ****** ****** ******
   3  ****** ****** ****** ****** ****** ****** ****** ****** ****** ******
      ****** ****** ****** ****** ****** ****** ****** ****** ****** ******
      ****** ****** ****** ****** ****** ****** ****** ****** ****** ******
   4  ****** ****** ****** ****** ****** ****** ****** ****** ****** ******
      ****** ****** ****** ****** ****** ****** ****** ****** ****** ******
      ****** ****** ****** ****** ****** ****** ****** ****** ****** ******
   5  ****** ****** ****** ****** ****** ****** ****** ****** ****** ******
      ****** ****** ****** ****** ****** ****** ****** ****** ****** ******
      ****** ****** ****** ****** ****** ****** ****** ****** ****** ******
   6  ****** ****** ****** ****** ****** ****** ****** ****** ****** ******
      ****** ****** ****** ****** ****** ****** ****** ****** ****** ******
      ****** ****** ****** ****** ****** ****** ****** ****** ****** ******
   7  ****** ****** ****** ****** ****** ****** ****** ****** ****** ******
      ****** ****** ****** ****** ****** ****** ****** ****** ****** ******
      ****** ****** ****** ****** ****** ****** ****** ****** ****** ******
   8  ****** ****** ****** ****** ****** ****** ****** ****** ****** ******
      ****** ****** ****** ****** ****** ****** ****** ****** ****** ******
      ****** ****** ****** ****** ****** ****** ****** ****** ****** ******
   9  ****** ****** ****** ****** ****** ****** ****** ****** ****** ******
      ****** ****** ****** ****** ****** ****** ****** ****** ****** ******
      ****** ****** ****** ****** ****** ****** ****** ****** ****** ******
  10  ****** ****** ****** ****** ****** ****** ****** ****** ****** ******
      ****** ****** ****** ****** ****** ****** ****** ****** ****** ******
      ****** ****** ****** ****** ****** ****** ****** ****** ****** ******
  11  ****** ****** ****** ****** ****** ****** ****** ****** ****** ******
      ****** ****** ****** ****** ****** ****** ****** ****** ****** ******
      ****** ****** ****** ****** ****** ****** ****** ****** ****** ******
  12  ****** ****** ****** ****** ****** ****** ****** ****** ****** ******
      ****** ****** ****** ****** ****** ****** ****** ****** ****** ******
      ****** ****** ****** ****** ****** ****** ****** ****** ****** ******
  13  ****** ****** ****** ****** ****** ****** ****** ****** ****** ******
      ****** ****** ****** ****** ****** ****** ****** ****** ****** ******
      ****** ****** ****** ****** ****** ****** ****** ****** ****** ******
  14  ****** ****** ****** ****** ****** ****** ****** ****** ****** ******
      ****** ****** ****** ****** ****** ****** ****** ****** ****** ******
      ****** ****** ****** ****** ****** ****** ****** ****** ****** ******
  15  ****** ****** ****** ****** ****** ****** ****** ****** ****** ******
      ****** ****** ****** ****** ****** ****** ****** ****** ****** ******
      ****** ****** ****** ****** ****** ****** ****** ****** ****** ******
  16  ****** ****** ****** ****** ****** ****** ****** ****** ****** ******
      ****** ****** ****** ****** ****** ****** ****** ****** ****** ******
      ****** ****** ****** ****** ****** ****** ****** ****** ****** ******
  17  ****** ****** ****** ****** ****** ****** ****** ****** ****** ******
      ****** ****** ****** ****** ****** ****** ****** ****** ****** ******
      ****** ****** ****** ****** ****** ****** ****** ****** ****** ******
  18  ****** ****** ****** ****** ****** ****** ****** ****** ****** ******
      ****** ****** ****** ****** ****** ****** ****** ****** ****** ******
      ****** ****** ****** ****** ****** ****** ****** ****** ****** ******
  19  ****** ****** ****** ****** ****** ****** ****** ****** ****** ******
      ****** ****** ****** ****** ****** ****** ****** ****** ****** ******
      ****** ****** ****** ****** ****** ****** ****** ****** ****** ******
  20  ****** ****** ****** ****** ****** ****** ****** ****** ****** ******
      ****** ****** ****** ****** ****** ****** ****** ****** ****** ******
      ****** ****** ****** ****** ****** ****** ****** ****** ****** ******
  21  ****** ****** ****** ****** ****** ****** ****** ****** ****** ******
      ****** ****** ****** ****** ****** ****** ****** ****** ****** ******
      ****** ****** ****** ****** ****** ****** ****** ****** ****** ******
  22  ****** ****** ****** ****** ****** ****** ****** ****** ****** ******
      ****** ****** ****** ****** ****** ****** ****** ****** ****** ******
      ****** ****** ****** ****** ****** ****** ****** ****** ****** ******
  23  ****** ****** ****** ****** ****** ****** ****** ****** ****** ******
      ****** ****** ****** ****** ****** ****** ****** ****** ****** ******
      ****** ****** ****** ****** ****** ****** ****** ****** ****** ******
  24  ****** ****** ****** ****** ****** ****** ****** ****** ****** ******
      ****** ****** ****** ****** ****** ****** ****** ****** ****** ******
      ****** ****** ****** ****** ****** ****** ****** ****** ****** ******
  25  ****** ****** ****** ****** ****** ****** ****** ****** ****** ******
      ****** ****** ****** ****** ****** ****** ****** ****** ****** ******
      ****** ****** ****** ****** ****** ****** ****** ****** ****** ******

 HEAD WILL BE SAVED ON UNIT   51 AT END OF TIME STEP    1, STRESS PERIOD    9
1
  VOLUMETRIC BUDGET FOR ENTIRE MODEL AT END OF TIME STEP    1, STRESS PERIOD   9
  ------------------------------------------------------------------------------

     CUMULATIVE VOLUMES      L**3       RATES FOR THIS TIME STEP      L**3/T
     ------------------                 ------------------------

           IN:                                      IN:
           ---                                      ---
             STORAGE =    35177250.3961               STORAGE =        7338.5308
       CONSTANT HEAD =    24117781.3907         CONSTANT HEAD =       36778.4514
               WELLS =           0.0000                 WELLS =           0.0000
            RECHARGE =    18878400.0000              RECHARGE =       13800.0000
      STREAM LEAKAGE =     7350574.9493        STREAM LEAKAGE =       10629.7005

            TOTAL IN =    85524006.7360              TOTAL IN =       68546.6826

          OUT:                                     OUT:
          ----                                     ----
             STORAGE =      875951.1528               STORAGE =           0.0000
       CONSTANT HEAD =           0.0000         CONSTANT HEAD =           0.0000
               WELLS =    24951671.0113                 WELLS =       30354.8309
            RECHARGE =           0.0000              RECHARGE =           0.0000
      STREAM LEAKAGE =    59696386.4246        STREAM LEAKAGE =       38191.8525

           TOTAL OUT =    85524008.5887             TOTAL OUT =       68546.6834

            IN - OUT =          -1.8528              IN - OUT =      -7.7195E-04

 PERCENT DISCREPANCY =          -0.00     PERCENT DISCREPANCY =          -0.00






         TIME SUMMARY AT END OF TIME STEP    1 IN STRESS PERIOD    9
                    SECONDS     MINUTES      HOURS       DAYS        YEARS
                    -----------------------------------------------------------
   TIME STEP LENGTH 7.94880E+06 1.32480E+05  2208.0      92.000     0.25188    
 STRESS PERIOD TIME 7.94880E+06 1.32480E+05  2208.0      92.000     0.25188    
         TOTAL TIME 7.10208E+07 1.18368E+06  19728.      822.00      2.2505    
1
1
                            STRESS PERIOD NO.   10, LENGTH =   91.00000    
                            -----------------------------------------------

                              NUMBER OF TIME STEPS =     1

                               MULTIPLIER FOR DELT =     1.500

                            INITIAL TIME STEP SIZE =   91.00000    

 WELL NO.  LAYER   ROW   COL   STRESS RATE         
 --------------------------------------------------
      1      1     14      6       0.000    
      2      1      3      9       0.000    
      3      1     20     10       0.000    
      4      1     14     20       0.000    
      5      1     16     21      -8812.    
      6      1     20     20      -6819.    
      7      1      4     15      -7093.    
      8      1     21     14      -7630.    

      8 WELLS

                 RECHARGE =  2.000000E-03

 REUSING STREAM SEGMENT DATA FROM LAST STRESS PERIOD
 
 SOLVING FOR HEAD 


     7 CALLS TO PCG ROUTINE FOR TIME STEP   1 IN STRESS PERIOD   10
    26 TOTAL ITERATIONS

 OUTPUT CONTROL FOR STRESS PERIOD   10   TIME STEP    1
    SAVE BUDGET
    SAVE HEAD FOR ALL LAYERS
    PRINT HEAD FOR ALL LAYERS
 UBDSV2 SAVING "STREAMFLOW OUT  " ON UNIT  50 AT TIME STEP  1, STRESS PERIOD  10



 STREAM LISTING     PERIOD     10   STEP        1

 LAYER ROW COL. STREAM  RCH.  FLOW INTO     FLOW TO   FLOW OUT OF   OVRLND.     DIRECT     STREAM       STREAM     STREAM     STREAM   STREAMBED  STREAMBED
                SEG.NO.  NO.  STRM. RCH.    AQUIFER    STRM. RCH.    RUNOFF     PRECIP       ET          HEAD       DEPTH      WIDTH   CONDCTNC.   GRADIENT

   1   13    1     1     1    1.0000E+05 -1.9270E+03   1.0193E+05  0.000E+00  0.000E+00  0.000E+00  4.84069E+01  1.455E-01  2.000E+01  2.000E+04 -9.635E-02
   1   13    2     1     2    1.0193E+05 -2.9086E+03   1.0484E+05  0.000E+00  0.000E+00  0.000E+00  4.79317E+01  1.476E-01  2.000E+01  2.000E+04 -1.454E-01
   1   14    3     1     3    1.0484E+05 -5.6076E+02   1.0540E+05  0.000E+00  0.000E+00  0.000E+00  4.74559E+01  1.490E-01  2.000E+01  2.000E+04 -2.804E-02
   1   15    4     1     4    1.0540E+05 -5.3449E+02   1.0593E+05  0.000E+00  0.000E+00  0.000E+00  4.69791E+01  1.495E-01  2.000E+01  2.000E+04 -2.672E-02
   1   16    5     1     5    1.0593E+05 -1.7601E+03   1.0769E+05  0.000E+00  0.000E+00  0.000E+00  4.65028E+01  1.505E-01  2.000E+01  2.000E+04 -8.800E-02
   1   16    6     1     6    1.0769E+05 -1.0672E+03   1.0876E+05  0.000E+00  0.000E+00  0.000E+00  4.60267E+01  1.517E-01  2.000E+01  2.000E+04 -5.336E-02
   1   16    7     1     7    1.0876E+05 -9.9409E+02   1.0975E+05  0.000E+00  0.000E+00  0.000E+00  4.55503E+01  1.525E-01  2.000E+01  2.000E+04 -4.970E-02
   1   16    8     1     8    1.0975E+05 -9.2103E+02   1.1067E+05  0.000E+00  0.000E+00  0.000E+00  4.50738E+01  1.533E-01  2.000E+01  2.000E+04 -4.605E-02
   1   16    9     1     9    1.1067E+05 -8.2368E+02   1.1150E+05  0.000E+00  0.000E+00  0.000E+00  4.45973E+01  1.541E-01  2.000E+01  2.000E+04 -4.118E-02
   1   16   10     1    10    1.1150E+05 -6.9269E+02   1.1219E+05  0.000E+00  0.000E+00  0.000E+00  4.41206E+01  1.547E-01  2.000E+01  2.000E+04 -3.463E-02
   1   16   11     1    11    1.1219E+05 -5.1910E+02   1.1271E+05  0.000E+00  0.000E+00  0.000E+00  4.36438E+01  1.552E-01  2.000E+01  2.000E+04 -2.596E-02
   1   16   12     1    12    1.1271E+05 -5.2883E+02   1.1324E+05  0.000E+00  0.000E+00  0.000E+00  4.31670E+01  1.556E-01  2.000E+01  2.000E+04 -2.644E-02
   1   15   13     1    13    1.1324E+05 -7.4566E+02   1.1398E+05  0.000E+00  0.000E+00  0.000E+00  4.26903E+01  1.562E-01  2.000E+01  2.000E+04 -3.728E-02
   1   14   14     1    14    1.1398E+05 -1.1232E+03   1.1511E+05  0.000E+00  0.000E+00  0.000E+00  4.22137E+01  1.569E-01  2.000E+01  2.000E+04 -5.616E-02
   1   13   15     1    15    1.1511E+05 -1.5170E+03   1.1662E+05  0.000E+00  0.000E+00  0.000E+00  4.17376E+01  1.580E-01  2.000E+01  2.000E+04 -7.585E-02
   1   12   16     1    16    1.1662E+05 -2.2964E+03   1.1892E+05  0.000E+00  0.000E+00  0.000E+00  4.12618E+01  1.596E-01  2.000E+01  2.000E+04 -1.148E-01
   1   12   17     1    17    1.1892E+05 -1.3664E+03   1.2029E+05  0.000E+00  0.000E+00  0.000E+00  4.07861E+01  1.611E-01  2.000E+01  2.000E+04 -6.832E-02
   1   12   18     1    18    1.2029E+05 -1.2852E+03   1.2157E+05  0.000E+00  0.000E+00  0.000E+00  4.03098E+01  1.621E-01  2.000E+01  2.000E+04 -6.426E-02
   1   12   19     1    19    1.2157E+05 -1.9220E+03   1.2349E+05  0.000E+00  0.000E+00  0.000E+00  3.98339E+01  1.634E-01  2.000E+01  2.000E+04 -9.610E-02
   1   13   20     1    20    1.2349E+05 -6.7291E+02   1.2417E+05  0.000E+00  0.000E+00  0.000E+00  3.93576E+01  1.644E-01  2.000E+01  2.000E+04 -3.365E-02
   1   14   21     1    21    1.2417E+05  1.5666E+03   1.2260E+05  0.000E+00  0.000E+00  0.000E+00  3.88800E+01  1.641E-01  2.000E+01  2.000E+04  7.833E-02
   1   14   22     1    22    1.2260E+05  5.4485E+03   1.1715E+05  0.000E+00  0.000E+00  0.000E+00  3.83999E+01  1.613E-01  2.000E+01  2.000E+04  2.724E-01
   1    9   30     2     1    5.0000E+04 -9.1869E+02   5.0919E+04  0.000E+00  0.000E+00  0.000E+00  4.02415E+01  1.165E-01  2.000E+01  2.000E+04 -4.593E-02
   1    9   29     2     2    5.0919E+04 -1.2082E+03   5.2127E+04  0.000E+00  0.000E+00  0.000E+00  3.99930E+01  1.180E-01  2.000E+01  2.000E+04 -6.041E-02
   1    9   28     2     3    5.2127E+04 -1.4417E+03   5.3569E+04  0.000E+00  0.000E+00  0.000E+00  3.97448E+01  1.198E-01  2.000E+01  2.000E+04 -7.208E-02
   1    9   27     2     4    5.3569E+04 -2.6858E+03   5.6254E+04  0.000E+00  0.000E+00  0.000E+00  3.94976E+01  1.226E-01  2.000E+01  2.000E+04 -1.343E-01
   1   10   26     2     5    5.6254E+04 -1.9157E+03   5.8170E+04  0.000E+00  0.000E+00  0.000E+00  3.92506E+01  1.256E-01  2.000E+01  2.000E+04 -9.579E-02
   1   11   25     2     6    5.8170E+04 -1.6997E+03   5.9870E+04  0.000E+00  0.000E+00  0.000E+00  3.90030E+01  1.280E-01  2.000E+01  2.000E+04 -8.498E-02
   1   12   24     2     7    5.9870E+04 -1.7222E+03   6.1592E+04  0.000E+00  0.000E+00  0.000E+00  3.87552E+01  1.302E-01  2.000E+01  2.000E+04 -8.611E-02
   1   13   23     2     8    6.1592E+04 -3.3845E+02   6.1930E+04  0.000E+00  0.000E+00  0.000E+00  3.85065E+01  1.315E-01  2.000E+01  2.000E+04 -1.692E-02
   1   14   22     2     9    6.1930E+04  2.5523E+03   5.9378E+04  0.000E+00  0.000E+00  0.000E+00  3.82551E+01  1.301E-01  2.000E+01  2.000E+04  1.276E-01
   1   14   22     3     1    1.7653E+05 -8.0167E+03   1.8455E+05  0.000E+00  0.000E+00  0.000E+00  3.77267E+01  1.711E-01  2.000E+01  2.000E+04 -4.008E-01
   1   15   23     3     2    1.8455E+05  3.0503E+01   1.8452E+05  0.000E+00  0.000E+00  0.000E+00  3.68400E+01  1.734E-01  2.000E+01  2.000E+04  1.525E-03
   1   15   24     3     3    1.8452E+05 -2.2309E+02   1.8474E+05  0.000E+00  0.000E+00  0.000E+00  3.59512E+01  1.734E-01  2.000E+01  2.000E+04 -1.115E-02
   1   15   25     3     4    1.8474E+05 -2.8292E+02   1.8502E+05  0.000E+00  0.000E+00  0.000E+00  3.50624E+01  1.736E-01  2.000E+01  2.000E+04 -1.415E-02
   1   15   26     3     5    1.8502E+05 -4.0153E+02   1.8542E+05  0.000E+00  0.000E+00  0.000E+00  3.41737E+01  1.737E-01  2.000E+01  2.000E+04 -2.008E-02
   1   16   27     3     6    1.8542E+05 -4.1264E+02   1.8584E+05  0.000E+00  0.000E+00  0.000E+00  3.32851E+01  1.740E-01  2.000E+01  2.000E+04 -2.063E-02
   1   17   28     3     7    1.8584E+05 -1.6087E+03   1.8744E+05  0.000E+00  0.000E+00  0.000E+00  3.23968E+01  1.745E-01  2.000E+01  2.000E+04 -8.043E-02
   1   18   29     3     8    1.8744E+05 -2.5713E+03   1.9002E+05  0.000E+00  0.000E+00  0.000E+00  3.15090E+01  1.757E-01  2.000E+01  2.000E+04 -1.286E-01
   1   18   30     3     9    1.9002E+05 -3.0568E+03   1.9307E+05  0.000E+00  0.000E+00  0.000E+00  3.06217E+01  1.773E-01  2.000E+01  2.000E+04 -1.528E-01



1
              HEAD IN LAYER   1 AT END OF TIME STEP   1 IN STRESS PERIOD   10
  ---------------------------------------------------------------------------

          1      2      3      4      5      6      7      8      9     10
         11     12     13     14     15     16     17     18     19     20
         21     22     23     24     25     26     27     28     29     30
 .........................................................................
   1  ****** ****** ****** ****** ****** ****** ****** ****** ****** ******
      ****** ****** ****** ****** ****** ****** ****** ****** ****** ******
      ****** ****** ****** ****** ****** ****** ****** ****** ****** ******
   2  ****** ****** ****** ****** ****** ****** ****** ****** ****** ******
      ****** ****** ****** ****** ****** ****** ****** ****** ****** ******
      ****** ****** ****** ****** ****** ****** ****** ****** ****** ******
   3  ****** ****** ****** ****** ****** ****** ****** ****** ****** ******
      ****** ****** ****** ****** ****** ****** ****** ****** ****** ******
      ****** ****** ****** ****** ****** ****** ****** ****** ****** ******
   4  ****** ****** ****** ****** ****** ****** ****** ****** ****** ******
      ****** ****** ****** ****** ****** ****** ****** ****** ****** ******
      ****** ****** ****** ****** ****** ****** ****** ****** ****** ******
   5  ****** ****** ****** ****** ****** ****** ****** ****** ****** ******
      ****** ****** ****** ****** ****** ****** ****** ****** ****** ******
      ****** ****** ****** ****** ****** ****** ****** ****** ****** ******
   6  ****** ****** ****** ****** ****** ****** ****** ****** ****** ******
      ****** ****** ****** ****** ****** ****** ****** ****** ****** ******
      ****** ****** ****** ****** ****** ****** ****** ****** ****** ******
   7  ****** ****** ****** ****** ****** ****** ****** ****** ****** ******
      ****** ****** ****** ****** ****** ****** ****** ****** ****** ******
      ****** ****** ****** ****** ****** ****** ****** ****** ****** ******
   8  ****** ****** ****** ****** ****** ****** ****** ****** ****** ******
      ****** ****** ****** ****** ****** ****** ****** ****** ****** ******
      ****** ****** ****** ****** ****** ****** ****** ****** ****** ******
   9  ****** ****** ****** ****** ****** ****** ****** ****** ****** ******
      ****** ****** ****** ****** ****** ****** ****** ****** ****** ******
      ****** ****** ****** ****** ****** ****** ****** ****** ****** ******
  10  ****** ****** ****** ****** ****** ****** ****** ****** ****** ******
      ****** ****** ****** ****** ****** ****** ****** ****** ****** ******
      ****** ****** ****** ****** ****** ****** ****** ****** ****** ******
  11  ****** ****** ****** ****** ****** ****** ****** ****** ****** ******
      ****** ****** ****** ****** ****** ****** ****** ****** ****** ******
      ****** ****** ****** ****** ****** ****** ****** ****** ****** ******
  12  ****** ****** ****** ****** ****** ****** ****** ****** ****** ******
      ****** ****** ****** ****** ****** ****** ****** ****** ****** ******
      ****** ****** ****** ****** ****** ****** ****** ****** ****** ******
  13  ****** ****** ****** ****** ****** ****** ****** ****** ****** ******
      ****** ****** ****** ****** ****** ****** ****** ****** ****** ******
      ****** ****** ****** ****** ****** ****** ****** ****** ****** ******
  14  ****** ****** ****** ****** ****** ****** ****** ****** ****** ******
      ****** ****** ****** ****** ****** ****** ****** ****** ****** ******
      ****** ****** ****** ****** ****** ****** ****** ****** ****** ******
  15  ****** ****** ****** ****** ****** ****** ****** ****** ****** ******
      ****** ****** ****** ****** ****** ****** ****** ****** ****** ******
      ****** ****** ****** ****** ****** ****** ****** ****** ****** ******
  16  ****** ****** ****** ****** ****** ****** ****** ****** ****** ******
      ****** ****** ****** ****** ****** ****** ****** ****** ****** ******
      ****** ****** ****** ****** ****** ****** ****** ****** ****** ******
  17  ****** ****** ****** ****** ****** ****** ****** ****** ****** ******
      ****** ****** ****** ****** ****** ****** ****** ****** ****** ******
      ****** ****** ****** ****** ****** ****** ****** ****** ****** ******
  18  ****** ****** ****** ****** ****** ****** ****** ****** ****** ******
      ****** ****** ****** ****** ****** ****** ****** ****** ****** ******
      ****** ****** ****** ****** ****** ****** ****** ****** ****** ******
  19  ****** ****** ****** ****** ****** ****** ****** ****** ****** ******
      ****** ****** ****** ****** ****** ****** ****** ****** ****** ******
      ****** ****** ****** ****** ****** ****** ****** ****** ****** ******
  20  ****** ****** ****** ****** ****** ****** ****** ****** ****** ******
      ****** ****** ****** ****** ****** ****** ****** ****** ****** ******
      ****** ****** ****** ****** ****** ****** ****** ****** ****** ******
  21  ****** ****** ****** ****** ****** ****** ****** ****** ****** ******
      ****** ****** ****** ****** ****** ****** ****** ****** ****** ******
      ****** ****** ****** ****** ****** ****** ****** ****** ****** ******
  22  ****** ****** ****** ****** ****** ****** ****** ****** ****** ******
      ****** ****** ****** ****** ****** ****** ****** ****** ****** ******
      ****** ****** ****** ****** ****** ****** ****** ****** ****** ******
  23  ****** ****** ****** ****** ****** ****** ****** ****** ****** ******
      ****** ****** ****** ****** ****** ****** ****** ****** ****** ******
      ****** ****** ****** ****** ****** ****** ****** ****** ****** ******
  24  ****** ****** ****** ****** ****** ****** ****** ****** ****** ******
      ****** ****** ****** ****** ****** ****** ****** ****** ****** ******
      ****** ****** ****** ****** ****** ****** ****** ****** ****** ******
  25  ****** ****** ****** ****** ****** ****** ****** ****** ****** ******
      ****** ****** ****** ****** ****** ****** ****** ****** ****** ******
      ****** ****** ****** ****** ****** ****** ****** ****** ****** ******

 HEAD WILL BE SAVED ON UNIT   51 AT END OF TIME STEP    1, STRESS PERIOD   10
1
  VOLUMETRIC BUDGET FOR ENTIRE MODEL AT END OF TIME STEP    1, STRESS PERIOD  10
  ------------------------------------------------------------------------------

     CUMULATIVE VOLUMES      L**3       RATES FOR THIS TIME STEP      L**3/T
     ------------------                 ------------------------

           IN:                                      IN:
           ---                                      ---
             STORAGE =    35177250.3961               STORAGE =           0.0000
       CONSTANT HEAD =    27197003.4069         CONSTANT HEAD =       33837.6046
               WELLS =           0.0000                 WELLS =           0.0000
            RECHARGE =    23901600.0000              RECHARGE =       55200.0000
      STREAM LEAKAGE =     8223981.0559        STREAM LEAKAGE =        9597.8693

            TOTAL IN =    94499834.8588              TOTAL IN =       98635.4739

          OUT:                                     OUT:
          ----                                     ----
             STORAGE =     2296485.7577               STORAGE =       15610.2704
       CONSTANT HEAD =           0.0000         CONSTANT HEAD =           0.0000
               WELLS =    27713960.6245                 WELLS =       30354.8309
            RECHARGE =           0.0000              RECHARGE =           0.0000
      STREAM LEAKAGE =    64489389.9914        STREAM LEAKAGE =       52670.3689

           TOTAL OUT =    94499836.3737             TOTAL OUT =       98635.4702

            IN - OUT =          -1.5149              IN - OUT =       3.7130E-03

 PERCENT DISCREPANCY =          -0.00     PERCENT DISCREPANCY =           0.00






         TIME SUMMARY AT END OF TIME STEP    1 IN STRESS PERIOD   10
                    SECONDS     MINUTES      HOURS       DAYS        YEARS
                    -----------------------------------------------------------
   TIME STEP LENGTH 7.86240E+06 1.31040E+05  2184.0      91.000     0.24914    
 STRESS PERIOD TIME 7.86240E+06 1.31040E+05  2184.0      91.000     0.24914    
         TOTAL TIME 7.88832E+07 1.31472E+06  21912.      913.00      2.4997    
1
1
                            STRESS PERIOD NO.   11, LENGTH =   91.00000    
                            -----------------------------------------------

                              NUMBER OF TIME STEPS =     1

                               MULTIPLIER FOR DELT =     1.500

                            INITIAL TIME STEP SIZE =   91.00000    

 WELL NO.  LAYER   ROW   COL   STRESS RATE         
 --------------------------------------------------
      1      1     14      6       0.000    
      2      1      3      9       0.000    
      3      1     20     10       0.000    
      4      1     14     20       0.000    
      5      1     16     21      -8812.    
      6      1     20     20      -6819.    
      7      1      4     15      -7093.    
      8      1     21     14      -7630.    

      8 WELLS

                 RECHARGE =   0.00000    

 REUSING STREAM SEGMENT DATA FROM LAST STRESS PERIOD
 
 SOLVING FOR HEAD 


     7 CALLS TO PCG ROUTINE FOR TIME STEP   1 IN STRESS PERIOD   11
    26 TOTAL ITERATIONS

 OUTPUT CONTROL FOR STRESS PERIOD   11   TIME STEP    1
    SAVE BUDGET
    SAVE HEAD FOR ALL LAYERS
    PRINT HEAD FOR ALL LAYERS
 UBDSV2 SAVING "STREAMFLOW OUT  " ON UNIT  50 AT TIME STEP  1, STRESS PERIOD  11



 STREAM LISTING     PERIOD     11   STEP        1

 LAYER ROW COL. STREAM  RCH.  FLOW INTO     FLOW TO   FLOW OUT OF   OVRLND.     DIRECT     STREAM       STREAM     STREAM     STREAM   STREAMBED  STREAMBED
                SEG.NO.  NO.  STRM. RCH.    AQUIFER    STRM. RCH.    RUNOFF     PRECIP       ET          HEAD       DEPTH      WIDTH   CONDCTNC.   GRADIENT

   1   13    1     1     1    1.0000E+05 -1.3579E+03   1.0136E+05  0.000E+00  0.000E+00  0.000E+00  4.84066E+01  1.452E-01  2.000E+01  2.000E+04 -6.789E-02
   1   13    2     1     2    1.0136E+05 -2.2747E+03   1.0363E+05  0.000E+00  0.000E+00  0.000E+00  4.79309E+01  1.468E-01  2.000E+01  2.000E+04 -1.137E-01
   1   14    3     1     3    1.0363E+05 -3.2957E+02   1.0396E+05  0.000E+00  0.000E+00  0.000E+00  4.74547E+01  1.479E-01  2.000E+01  2.000E+04 -1.648E-02
   1   15    4     1     4    1.0396E+05 -2.9232E+02   1.0425E+05  0.000E+00  0.000E+00  0.000E+00  4.69777E+01  1.482E-01  2.000E+01  2.000E+04 -1.462E-02
   1   16    5     1     5    1.0425E+05 -1.0715E+03   1.0533E+05  0.000E+00  0.000E+00  0.000E+00  4.65010E+01  1.488E-01  2.000E+01  2.000E+04 -5.358E-02
   1   16    6     1     6    1.0533E+05 -6.5245E+02   1.0598E+05  0.000E+00  0.000E+00  0.000E+00  4.60245E+01  1.495E-01  2.000E+01  2.000E+04 -3.262E-02
   1   16    7     1     7    1.0598E+05 -5.9691E+02   1.0658E+05  0.000E+00  0.000E+00  0.000E+00  4.55478E+01  1.500E-01  2.000E+01  2.000E+04 -2.985E-02
   1   16    8     1     8    1.0658E+05 -5.2935E+02   1.0710E+05  0.000E+00  0.000E+00  0.000E+00  4.50710E+01  1.505E-01  2.000E+01  2.000E+04 -2.647E-02
   1   16    9     1     9    1.0710E+05 -4.3423E+02   1.0754E+05  0.000E+00  0.000E+00  0.000E+00  4.45941E+01  1.509E-01  2.000E+01  2.000E+04 -2.171E-02
   1   16   10     1    10    1.0754E+05 -3.0431E+02   1.0784E+05  0.000E+00  0.000E+00  0.000E+00  4.41171E+01  1.512E-01  2.000E+01  2.000E+04 -1.522E-02
   1   16   11     1    11    1.0784E+05 -1.2888E+02   1.0797E+05  0.000E+00  0.000E+00  0.000E+00  4.36400E+01  1.514E-01  2.000E+01  2.000E+04 -6.444E-03
   1   16   12     1    12    1.0797E+05  1.1794E+02   1.0785E+05  0.000E+00  0.000E+00  0.000E+00  4.31628E+01  1.514E-01  2.000E+01  2.000E+04  5.897E-03
   1   15   13     1    13    1.0785E+05 -5.6006E+01   1.0791E+05  0.000E+00  0.000E+00  0.000E+00  4.26855E+01  1.514E-01  2.000E+01  2.000E+04 -2.800E-03
   1   14   14     1    14    1.0791E+05 -4.1574E+02   1.0833E+05  0.000E+00  0.000E+00  0.000E+00  4.22084E+01  1.516E-01  2.000E+01  2.000E+04 -2.079E-02
   1   13   15     1    15    1.0833E+05 -8.1517E+02   1.0914E+05  0.000E+00  0.000E+00  0.000E+00  4.17317E+01  1.521E-01  2.000E+01  2.000E+04 -4.076E-02
   1   12   16     1    16    1.0914E+05 -1.6180E+03   1.1076E+05  0.000E+00  0.000E+00  0.000E+00  4.12554E+01  1.531E-01  2.000E+01  2.000E+04 -8.090E-02
   1   12   17     1    17    1.1076E+05 -8.5905E+02   1.1162E+05  0.000E+00  0.000E+00  0.000E+00  4.07792E+01  1.542E-01  2.000E+01  2.000E+04 -4.295E-02
   1   12   18     1    18    1.1162E+05 -7.8552E+02   1.1240E+05  0.000E+00  0.000E+00  0.000E+00  4.03026E+01  1.548E-01  2.000E+01  2.000E+04 -3.928E-02
   1   12   19     1    19    1.1240E+05 -1.3088E+03   1.1371E+05  0.000E+00  0.000E+00  0.000E+00  3.98262E+01  1.557E-01  2.000E+01  2.000E+04 -6.544E-02
   1   13   20     1    20    1.1371E+05 -5.9943E+01   1.1377E+05  0.000E+00  0.000E+00  0.000E+00  3.93495E+01  1.563E-01  2.000E+01  2.000E+04 -2.997E-03
   1   14   21     1    21    1.1377E+05  2.1644E+03   1.1161E+05  0.000E+00  0.000E+00  0.000E+00  3.88713E+01  1.554E-01  2.000E+01  2.000E+04  1.082E-01
   1   14   22     1    22    1.1161E+05  5.5922E+03   1.0602E+05  0.000E+00  0.000E+00  0.000E+00  3.83908E+01  1.522E-01  2.000E+01  2.000E+04  2.796E-01
   1    9   30     2     1    5.0000E+04 -4.3060E+02   5.0431E+04  0.000E+00  0.000E+00  0.000E+00  4.02412E+01  1.162E-01  2.000E+01  2.000E+04 -2.153E-02
   1    9   29     2     2    5.0431E+04 -7.2314E+02   5.1154E+04  0.000E+00  0.000E+00  0.000E+00  3.99920E+01  1.170E-01  2.000E+01  2.000E+04 -3.616E-02
   1    9   28     2     3    5.1154E+04 -9.5883E+02   5.2113E+04  0.000E+00  0.000E+00  0.000E+00  3.97431E+01  1.181E-01  2.000E+01  2.000E+04 -4.794E-02
   1    9   27     2     4    5.2113E+04 -2.0459E+03   5.4158E+04  0.000E+00  0.000E+00  0.000E+00  3.94952E+01  1.202E-01  2.000E+01  2.000E+04 -1.023E-01
   1   10   26     2     5    5.4158E+04 -1.2614E+03   5.5420E+04  0.000E+00  0.000E+00  0.000E+00  3.92474E+01  1.224E-01  2.000E+01  2.000E+04 -6.307E-02
   1   11   25     2     6    5.5420E+04 -1.0692E+03   5.6489E+04  0.000E+00  0.000E+00  0.000E+00  3.89990E+01  1.240E-01  2.000E+01  2.000E+04 -5.346E-02
   1   12   24     2     7    5.6489E+04 -1.1486E+03   5.7638E+04  0.000E+00  0.000E+00  0.000E+00  3.87504E+01  1.254E-01  2.000E+01  2.000E+04 -5.743E-02
   1   13   23     2     8    5.7638E+04 -1.5252E+02   5.7790E+04  0.000E+00  0.000E+00  0.000E+00  3.85013E+01  1.263E-01  2.000E+01  2.000E+04 -7.626E-03
   1   14   22     2     9    5.7790E+04  2.7672E+03   5.5023E+04  0.000E+00  0.000E+00  0.000E+00  3.82496E+01  1.246E-01  2.000E+01  2.000E+04  1.384E-01
   1   14   22     3     1    1.6104E+05 -7.8711E+03   1.6891E+05  0.000E+00  0.000E+00  0.000E+00  3.77176E+01  1.621E-01  2.000E+01  2.000E+04 -3.936E-01
   1   15   23     3     2    1.6891E+05  2.2280E+02   1.6869E+05  0.000E+00  0.000E+00  0.000E+00  3.68310E+01  1.643E-01  2.000E+01  2.000E+04  1.114E-02
   1   15   24     3     3    1.6869E+05 -5.7817E+01   1.6874E+05  0.000E+00  0.000E+00  0.000E+00  3.59421E+01  1.643E-01  2.000E+01  2.000E+04 -2.891E-03
   1   15   25     3     4    1.6874E+05 -1.1383E+02   1.6886E+05  0.000E+00  0.000E+00  0.000E+00  3.50532E+01  1.643E-01  2.000E+01  2.000E+04 -5.691E-03
   1   15   26     3     5    1.6886E+05 -2.0576E+02   1.6906E+05  0.000E+00  0.000E+00  0.000E+00  3.41644E+01  1.644E-01  2.000E+01  2.000E+04 -1.029E-02
   1   16   27     3     6    1.6906E+05 -1.8947E+02   1.6925E+05  0.000E+00  0.000E+00  0.000E+00  3.32757E+01  1.645E-01  2.000E+01  2.000E+04 -9.474E-03
   1   17   28     3     7    1.6925E+05 -9.9842E+02   1.7025E+05  0.000E+00  0.000E+00  0.000E+00  3.23871E+01  1.649E-01  2.000E+01  2.000E+04 -4.992E-02
   1   18   29     3     8    1.7025E+05 -1.9482E+03   1.7220E+05  0.000E+00  0.000E+00  0.000E+00  3.14991E+01  1.657E-01  2.000E+01  2.000E+04 -9.741E-02
   1   18   30     3     9    1.7220E+05 -2.5669E+03   1.7477E+05  0.000E+00  0.000E+00  0.000E+00  3.06115E+01  1.671E-01  2.000E+01  2.000E+04 -1.283E-01



1
              HEAD IN LAYER   1 AT END OF TIME STEP   1 IN STRESS PERIOD   11
  ---------------------------------------------------------------------------

          1      2      3      4      5      6      7      8      9     10
         11     12     13     14     15     16     17     18     19     20
         21     22     23     24     25     26     27     28     29     30
 .........................................................................
   1  ****** ****** ****** ****** ****** ****** ****** ****** ****** ******
      ****** ****** ****** ****** ****** ****** ****** ****** ****** ******
      ****** ****** ****** ****** ****** ****** ****** ****** ****** ******
   2  ****** ****** ****** ****** ****** ****** ****** ****** ****** ******
      ****** ****** ****** ****** ****** ****** ****** ****** ****** ******
      ****** ****** ****** ****** ****** ****** ****** ****** ****** ******
   3  ****** ****** ****** ****** ****** ****** ****** ****** ****** ******
      ****** ****** ****** ****** ****** ****** ****** ****** ****** ******
      ****** ****** ****** ****** ****** ****** ****** ****** ****** ******
   4  ****** ****** ****** ****** ****** ****** ****** ****** ****** ******
      ****** ****** ****** ****** ****** ****** ****** ****** ****** ******
      ****** ****** ****** ****** ****** ****** ****** ****** ****** ******
   5  ****** ****** ****** ****** ****** ****** ****** ****** ****** ******
      ****** ****** ****** ****** ****** ****** ****** ****** ****** ******
      ****** ****** ****** ****** ****** ****** ****** ****** ****** ******
   6  ****** ****** ****** ****** ****** ****** ****** ****** ****** ******
      ****** ****** ****** ****** ****** ****** ****** ****** ****** ******
      ****** ****** ****** ****** ****** ****** ****** ****** ****** ******
   7  ****** ****** ****** ****** ****** ****** ****** ****** ****** ******
      ****** ****** ****** ****** ****** ****** ****** ****** ****** ******
      ****** ****** ****** ****** ****** ****** ****** ****** ****** ******
   8  ****** ****** ****** ****** ****** ****** ****** ****** ****** ******
      ****** ****** ****** ****** ****** ****** ****** ****** ****** ******
      ****** ****** ****** ****** ****** ****** ****** ****** ****** ******
   9  ****** ****** ****** ****** ****** ****** ****** ****** ****** ******
      ****** ****** ****** ****** ****** ****** ****** ****** ****** ******
      ****** ****** ****** ****** ****** ****** ****** ****** ****** ******
  10  ****** ****** ****** ****** ****** ****** ****** ****** ****** ******
      ****** ****** ****** ****** ****** ****** ****** ****** ****** ******
      ****** ****** ****** ****** ****** ****** ****** ****** ****** ******
  11  ****** ****** ****** ****** ****** ****** ****** ****** ****** ******
      ****** ****** ****** ****** ****** ****** ****** ****** ****** ******
      ****** ****** ****** ****** ****** ****** ****** ****** ****** ******
  12  ****** ****** ****** ****** ****** ****** ****** ****** ****** ******
      ****** ****** ****** ****** ****** ****** ****** ****** ****** ******
      ****** ****** ****** ****** ****** ****** ****** ****** ****** ******
  13  ****** ****** ****** ****** ****** ****** ****** ****** ****** ******
      ****** ****** ****** ****** ****** ****** ****** ****** ****** ******
      ****** ****** ****** ****** ****** ****** ****** ****** ****** ******
  14  ****** ****** ****** ****** ****** ****** ****** ****** ****** ******
      ****** ****** ****** ****** ****** ****** ****** ****** ****** ******
      ****** ****** ****** ****** ****** ****** ****** ****** ****** ******
  15  ****** ****** ****** ****** ****** ****** ****** ****** ****** ******
      ****** ****** ****** ****** ****** ****** ****** ****** ****** ******
      ****** ****** ****** ****** ****** ****** ****** ****** ****** ******
  16  ****** ****** ****** ****** ****** ****** ****** ****** ****** ******
      ****** ****** ****** ****** ****** ****** ****** ****** ****** ******
      ****** ****** ****** ****** ****** ****** ****** ****** ****** ******
  17  ****** ****** ****** ****** ****** ****** ****** ****** ****** ******
      ****** ****** ****** ****** ****** ****** ****** ****** ****** ******
      ****** ****** ****** ****** ****** ****** ****** ****** ****** ******
  18  ****** ****** ****** ****** ****** ****** ****** ****** ****** ******
      ****** ****** ****** ****** ****** ****** ****** ****** ****** ******
      ****** ****** ****** ****** ****** ****** ****** ****** ****** ******
  19  ****** ****** ****** ****** ****** ****** ****** ****** ****** ******
      ****** ****** ****** ****** ****** ****** ****** ****** ****** ******
      ****** ****** ****** ****** ****** ****** ****** ****** ****** ******
  20  ****** ****** ****** ****** ****** ****** ****** ****** ****** ******
      ****** ****** ****** ****** ****** ****** ****** ****** ****** ******
      ****** ****** ****** ****** ****** ****** ****** ****** ****** ******
  21  ****** ****** ****** ****** ****** ****** ****** ****** ****** ******
      ****** ****** ****** ****** ****** ****** ****** ****** ****** ******
      ****** ****** ****** ****** ****** ****** ****** ****** ****** ******
  22  ****** ****** ****** ****** ****** ****** ****** ****** ****** ******
      ****** ****** ****** ****** ****** ****** ****** ****** ****** ******
      ****** ****** ****** ****** ****** ****** ****** ****** ****** ******
  23  ****** ****** ****** ****** ****** ****** ****** ****** ****** ******
      ****** ****** ****** ****** ****** ****** ****** ****** ****** ******
      ****** ****** ****** ****** ****** ****** ****** ****** ****** ******
  24  ****** ****** ****** ****** ****** ****** ****** ****** ****** ******
      ****** ****** ****** ****** ****** ****** ****** ****** ****** ******
      ****** ****** ****** ****** ****** ****** ****** ****** ****** ******
  25  ****** ****** ****** ****** ****** ****** ****** ****** ****** ******
      ****** ****** ****** ****** ****** ****** ****** ****** ****** ******
      ****** ****** ****** ****** ****** ****** ****** ****** ****** ******

 HEAD WILL BE SAVED ON UNIT   51 AT END OF TIME STEP    1, STRESS PERIOD   11
1
  VOLUMETRIC BUDGET FOR ENTIRE MODEL AT END OF TIME STEP    1, STRESS PERIOD  11
  ------------------------------------------------------------------------------

     CUMULATIVE VOLUMES      L**3       RATES FOR THIS TIME STEP      L**3/T
     ------------------                 ------------------------

           IN:                                      IN:
           ---                                      ---
             STORAGE =    36814476.2143               STORAGE =       17991.4925
       CONSTANT HEAD =    30575908.4052         CONSTANT HEAD =       37130.8242
               WELLS =           0.0000                 WELLS =           0.0000
            RECHARGE =    23901600.0000              RECHARGE =           0.0000
      STREAM LEAKAGE =     9212652.1788        STREAM LEAKAGE =       10864.5178

            TOTAL IN =   100504636.7983              TOTAL IN =       65986.8345

          OUT:                                     OUT:
          ----                                     ----
             STORAGE =     2296485.7577               STORAGE =           0.0000
       CONSTANT HEAD =           0.0000         CONSTANT HEAD =           0.0000
               WELLS =    30476250.2377                 WELLS =       30354.8309
            RECHARGE =           0.0000              RECHARGE =           0.0000
      STREAM LEAKAGE =    67731902.7613        STREAM LEAKAGE =       35632.0085

           TOTAL OUT =   100504638.7567             TOTAL OUT =       65986.8394

            IN - OUT =          -1.9584              IN - OUT =      -4.8743E-03

 PERCENT DISCREPANCY =          -0.00     PERCENT DISCREPANCY =          -0.00






         TIME SUMMARY AT END OF TIME STEP    1 IN STRESS PERIOD   11
                    SECONDS     MINUTES      HOURS       DAYS        YEARS
                    -----------------------------------------------------------
   TIME STEP LENGTH 7.86240E+06 1.31040E+05  2184.0      91.000     0.24914    
 STRESS PERIOD TIME 7.86240E+06 1.31040E+05  2184.0      91.000     0.24914    
         TOTAL TIME 8.67456E+07 1.44576E+06  24096.      1004.0      2.7488    
1
1
                            STRESS PERIOD NO.   12, LENGTH =   91.00000    
                            -----------------------------------------------

                              NUMBER OF TIME STEPS =     1

                               MULTIPLIER FOR DELT =     1.500

                            INITIAL TIME STEP SIZE =   91.00000    

 WELL NO.  LAYER   ROW   COL   STRESS RATE         
 --------------------------------------------------
      1      1     14      6       0.000    
      2      1      3      9       0.000    
      3      1     20     10       0.000    
      4      1     14     20       0.000    
      5      1     16     21      -8812.    
      6      1     20     20      -6819.    
      7      1      4     15      -7093.    
      8      1     21     14      -7630.    

      8 WELLS

                 RECHARGE =  1.000000E-03

 REUSING STREAM SEGMENT DATA FROM LAST STRESS PERIOD
 
 SOLVING FOR HEAD 


     7 CALLS TO PCG ROUTINE FOR TIME STEP   1 IN STRESS PERIOD   12
    24 TOTAL ITERATIONS

 OUTPUT CONTROL FOR STRESS PERIOD   12   TIME STEP    1
    SAVE BUDGET
    SAVE HEAD FOR ALL LAYERS
    PRINT HEAD FOR ALL LAYERS
 UBDSV2 SAVING "STREAMFLOW OUT  " ON UNIT  50 AT TIME STEP  1, STRESS PERIOD  12



 STREAM LISTING     PERIOD     12   STEP        1

 LAYER ROW COL. STREAM  RCH.  FLOW INTO     FLOW TO   FLOW OUT OF   OVRLND.     DIRECT     STREAM       STREAM     STREAM     STREAM   STREAMBED  STREAMBED
                SEG.NO.  NO.  STRM. RCH.    AQUIFER    STRM. RCH.    RUNOFF     PRECIP       ET          HEAD       DEPTH      WIDTH   CONDCTNC.   GRADIENT

   1   13    1     1     1    1.0000E+05 -1.5011E+03   1.0150E+05  0.000E+00  0.000E+00  0.000E+00  4.84067E+01  1.453E-01  2.000E+01  2.000E+04 -7.505E-02
   1   13    2     1     2    1.0150E+05 -2.4286E+03   1.0393E+05  0.000E+00  0.000E+00  0.000E+00  4.79311E+01  1.470E-01  2.000E+01  2.000E+04 -1.214E-01
   1   14    3     1     3    1.0393E+05 -4.0792E+02   1.0434E+05  0.000E+00  0.000E+00  0.000E+00  4.74550E+01  1.482E-01  2.000E+01  2.000E+04 -2.040E-02
   1   15    4     1     4    1.0434E+05 -3.7450E+02   1.0471E+05  0.000E+00  0.000E+00  0.000E+00  4.69781E+01  1.485E-01  2.000E+01  2.000E+04 -1.872E-02
   1   16    5     1     5    1.0471E+05 -1.2809E+03   1.0599E+05  0.000E+00  0.000E+00  0.000E+00  4.65015E+01  1.492E-01  2.000E+01  2.000E+04 -6.405E-02
   1   16    6     1     6    1.0599E+05 -7.8260E+02   1.0678E+05  0.000E+00  0.000E+00  0.000E+00  4.60251E+01  1.501E-01  2.000E+01  2.000E+04 -3.913E-02
   1   16    7     1     7    1.0678E+05 -7.2198E+02   1.0750E+05  0.000E+00  0.000E+00  0.000E+00  4.55485E+01  1.508E-01  2.000E+01  2.000E+04 -3.610E-02
   1   16    8     1     8    1.0750E+05 -6.5337E+02   1.0815E+05  0.000E+00  0.000E+00  0.000E+00  4.50718E+01  1.513E-01  2.000E+01  2.000E+04 -3.267E-02
   1   16    9     1     9    1.0815E+05 -5.5868E+02   1.0871E+05  0.000E+00  0.000E+00  0.000E+00  4.45950E+01  1.518E-01  2.000E+01  2.000E+04 -2.793E-02
   1   16   10     1    10    1.0871E+05 -4.3008E+02   1.0914E+05  0.000E+00  0.000E+00  0.000E+00  4.41182E+01  1.523E-01  2.000E+01  2.000E+04 -2.150E-02
   1   16   11     1    11    1.0914E+05 -2.5687E+02   1.0940E+05  0.000E+00  0.000E+00  0.000E+00  4.36412E+01  1.526E-01  2.000E+01  2.000E+04 -1.284E-02
   1   16   12     1    12    1.0940E+05 -8.3111E+01   1.0948E+05  0.000E+00  0.000E+00  0.000E+00  4.31641E+01  1.527E-01  2.000E+01  2.000E+04 -4.156E-03
   1   15   13     1    13    1.0948E+05 -2.7226E+02   1.0975E+05  0.000E+00  0.000E+00  0.000E+00  4.26869E+01  1.528E-01  2.000E+01  2.000E+04 -1.361E-02
   1   14   14     1    14    1.0975E+05 -6.3252E+02   1.1038E+05  0.000E+00  0.000E+00  0.000E+00  4.22100E+01  1.532E-01  2.000E+01  2.000E+04 -3.163E-02
   1   13   15     1    15    1.1038E+05 -1.0246E+03   1.1141E+05  0.000E+00  0.000E+00  0.000E+00  4.17335E+01  1.539E-01  2.000E+01  2.000E+04 -5.123E-02
   1   12   16     1    16    1.1141E+05 -1.8010E+03   1.1321E+05  0.000E+00  0.000E+00  0.000E+00  4.12574E+01  1.551E-01  2.000E+01  2.000E+04 -9.005E-02
   1   12   17     1    17    1.1321E+05 -1.0122E+03   1.1422E+05  0.000E+00  0.000E+00  0.000E+00  4.07812E+01  1.562E-01  2.000E+01  2.000E+04 -5.061E-02
   1   12   18     1    18    1.1422E+05 -9.4089E+02   1.1516E+05  0.000E+00  0.000E+00  0.000E+00  4.03048E+01  1.571E-01  2.000E+01  2.000E+04 -4.704E-02
   1   12   19     1    19    1.1516E+05 -1.5009E+03   1.1666E+05  0.000E+00  0.000E+00  0.000E+00  3.98285E+01  1.581E-01  2.000E+01  2.000E+04 -7.505E-02
   1   13   20     1    20    1.1666E+05 -2.6996E+02   1.1693E+05  0.000E+00  0.000E+00  0.000E+00  3.93520E+01  1.588E-01  2.000E+01  2.000E+04 -1.350E-02
   1   14   21     1    21    1.1693E+05  1.9709E+03   1.1496E+05  0.000E+00  0.000E+00  0.000E+00  3.88740E+01  1.581E-01  2.000E+01  2.000E+04  9.855E-02
   1   14   22     1    22    1.1496E+05  5.5402E+03   1.0942E+05  0.000E+00  0.000E+00  0.000E+00  3.83936E+01  1.550E-01  2.000E+01  2.000E+04  2.770E-01
   1    9   30     2     1    5.0000E+04 -6.0699E+02   5.0607E+04  0.000E+00  0.000E+00  0.000E+00  4.02413E+01  1.163E-01  2.000E+01  2.000E+04 -3.035E-02
   1    9   29     2     2    5.0607E+04 -8.9748E+02   5.1504E+04  0.000E+00  0.000E+00  0.000E+00  3.99923E+01  1.173E-01  2.000E+01  2.000E+04 -4.487E-02
   1    9   28     2     3    5.1504E+04 -1.1296E+03   5.2634E+04  0.000E+00  0.000E+00  0.000E+00  3.97437E+01  1.187E-01  2.000E+01  2.000E+04 -5.648E-02
   1    9   27     2     4    5.2634E+04 -2.2549E+03   5.4889E+04  0.000E+00  0.000E+00  0.000E+00  3.94960E+01  1.210E-01  2.000E+01  2.000E+04 -1.127E-01
   1   10   26     2     5    5.4889E+04 -1.4912E+03   5.6380E+04  0.000E+00  0.000E+00  0.000E+00  3.92485E+01  1.235E-01  2.000E+01  2.000E+04 -7.456E-02
   1   11   25     2     6    5.6380E+04 -1.2950E+03   5.7675E+04  0.000E+00  0.000E+00  0.000E+00  3.90004E+01  1.254E-01  2.000E+01  2.000E+04 -6.475E-02
   1   12   24     2     7    5.7675E+04 -1.3547E+03   5.9030E+04  0.000E+00  0.000E+00  0.000E+00  3.87521E+01  1.271E-01  2.000E+01  2.000E+04 -6.774E-02
   1   13   23     2     8    5.9030E+04 -2.3016E+02   5.9260E+04  0.000E+00  0.000E+00  0.000E+00  3.85032E+01  1.282E-01  2.000E+01  2.000E+04 -1.151E-02
   1   14   22     2     9    5.9260E+04  2.6985E+03   5.6562E+04  0.000E+00  0.000E+00  0.000E+00  3.82515E+01  1.265E-01  2.000E+01  2.000E+04  1.349E-01
   1   14   22     3     1    1.6598E+05 -7.9212E+03   1.7391E+05  0.000E+00  0.000E+00  0.000E+00  3.77206E+01  1.650E-01  2.000E+01  2.000E+04 -3.961E-01
   1   15   23     3     2    1.7391E+05  1.5092E+02   1.7375E+05  0.000E+00  0.000E+00  0.000E+00  3.68339E+01  1.673E-01  2.000E+01  2.000E+04  7.546E-03
   1   15   24     3     3    1.7375E+05 -1.2282E+02   1.7388E+05  0.000E+00  0.000E+00  0.000E+00  3.59450E+01  1.672E-01  2.000E+01  2.000E+04 -6.141E-03
   1   15   25     3     4    1.7388E+05 -1.8011E+02   1.7406E+05  0.000E+00  0.000E+00  0.000E+00  3.50562E+01  1.673E-01  2.000E+01  2.000E+04 -9.005E-03
   1   15   26     3     5    1.7406E+05 -2.8319E+02   1.7434E+05  0.000E+00  0.000E+00  0.000E+00  3.41675E+01  1.675E-01  2.000E+01  2.000E+04 -1.416E-02
   1   16   27     3     6    1.7434E+05 -2.7616E+02   1.7462E+05  0.000E+00  0.000E+00  0.000E+00  3.32787E+01  1.676E-01  2.000E+01  2.000E+04 -1.381E-02
   1   17   28     3     7    1.7462E+05 -1.2188E+03   1.7584E+05  0.000E+00  0.000E+00  0.000E+00  3.23903E+01  1.681E-01  2.000E+01  2.000E+04 -6.094E-02
   1   18   29     3     8    1.7584E+05 -2.1482E+03   1.7798E+05  0.000E+00  0.000E+00  0.000E+00  3.15024E+01  1.690E-01  2.000E+01  2.000E+04 -1.074E-01
   1   18   30     3     9    1.7798E+05 -2.7347E+03   1.8072E+05  0.000E+00  0.000E+00  0.000E+00  3.06149E+01  1.704E-01  2.000E+01  2.000E+04 -1.367E-01



1
              HEAD IN LAYER   1 AT END OF TIME STEP   1 IN STRESS PERIOD   12
  ---------------------------------------------------------------------------

          1      2      3      4      5      6      7      8      9     10
         11     12     13     14     15     16     17     18     19     20
         21     22     23     24     25     26     27     28     29     30
 .........................................................................
   1  ****** ****** ****** ****** ****** ****** ****** ****** ****** ******
      ****** ****** ****** ****** ****** ****** ****** ****** ****** ******
      ****** ****** ****** ****** ****** ****** ****** ****** ****** ******
   2  ****** ****** ****** ****** ****** ****** ****** ****** ****** ******
      ****** ****** ****** ****** ****** ****** ****** ****** ****** ******
      ****** ****** ****** ****** ****** ****** ****** ****** ****** ******
   3  ****** ****** ****** ****** ****** ****** ****** ****** ****** ******
      ****** ****** ****** ****** ****** ****** ****** ****** ****** ******
      ****** ****** ****** ****** ****** ****** ****** ****** ****** ******
   4  ****** ****** ****** ****** ****** ****** ****** ****** ****** ******
      ****** ****** ****** ****** ****** ****** ****** ****** ****** ******
      ****** ****** ****** ****** ****** ****** ****** ****** ****** ******
   5  ****** ****** ****** ****** ****** ****** ****** ****** ****** ******
      ****** ****** ****** ****** ****** ****** ****** ****** ****** ******
      ****** ****** ****** ****** ****** ****** ****** ****** ****** ******
   6  ****** ****** ****** ****** ****** ****** ****** ****** ****** ******
      ****** ****** ****** ****** ****** ****** ****** ****** ****** ******
      ****** ****** ****** ****** ****** ****** ****** ****** ****** ******
   7  ****** ****** ****** ****** ****** ****** ****** ****** ****** ******
      ****** ****** ****** ****** ****** ****** ****** ****** ****** ******
      ****** ****** ****** ****** ****** ****** ****** ****** ****** ******
   8  ****** ****** ****** ****** ****** ****** ****** ****** ****** ******
      ****** ****** ****** ****** ****** ****** ****** ****** ****** ******
      ****** ****** ****** ****** ****** ****** ****** ****** ****** ******
   9  ****** ****** ****** ****** ****** ****** ****** ****** ****** ******
      ****** ****** ****** ****** ****** ****** ****** ****** ****** ******
      ****** ****** ****** ****** ****** ****** ****** ****** ****** ******
  10  ****** ****** ****** ****** ****** ****** ****** ****** ****** ******
      ****** ****** ****** ****** ****** ****** ****** ****** ****** ******
      ****** ****** ****** ****** ****** ****** ****** ****** ****** ******
  11  ****** ****** ****** ****** ****** ****** ****** ****** ****** ******
      ****** ****** ****** ****** ****** ****** ****** ****** ****** ******
      ****** ****** ****** ****** ****** ****** ****** ****** ****** ******
  12  ****** ****** ****** ****** ****** ****** ****** ****** ****** ******
      ****** ****** ****** ****** ****** ****** ****** ****** ****** ******
      ****** ****** ****** ****** ****** ****** ****** ****** ****** ******
  13  ****** ****** ****** ****** ****** ****** ****** ****** ****** ******
      ****** ****** ****** ****** ****** ****** ****** ****** ****** ******
      ****** ****** ****** ****** ****** ****** ****** ****** ****** ******
  14  ****** ****** ****** ****** ****** ****** ****** ****** ****** ******
      ****** ****** ****** ****** ****** ****** ****** ****** ****** ******
      ****** ****** ****** ****** ****** ****** ****** ****** ****** ******
  15  ****** ****** ****** ****** ****** ****** ****** ****** ****** ******
      ****** ****** ****** ****** ****** ****** ****** ****** ****** ******
      ****** ****** ****** ****** ****** ****** ****** ****** ****** ******
  16  ****** ****** ****** ****** ****** ****** ****** ****** ****** ******
      ****** ****** ****** ****** ****** ****** ****** ****** ****** ******
      ****** ****** ****** ****** ****** ****** ****** ****** ****** ******
  17  ****** ****** ****** ****** ****** ****** ****** ****** ****** ******
      ****** ****** ****** ****** ****** ****** ****** ****** ****** ******
      ****** ****** ****** ****** ****** ****** ****** ****** ****** ******
  18  ****** ****** ****** ****** ****** ****** ****** ****** ****** ******
      ****** ****** ****** ****** ****** ****** ****** ****** ****** ******
      ****** ****** ****** ****** ****** ****** ****** ****** ****** ******
  19  ****** ****** ****** ****** ****** ****** ****** ****** ****** ******
      ****** ****** ****** ****** ****** ****** ****** ****** ****** ******
      ****** ****** ****** ****** ****** ****** ****** ****** ****** ******
  20  ****** ****** ****** ****** ****** ****** ****** ****** ****** ******
      ****** ****** ****** ****** ****** ****** ****** ****** ****** ******
      ****** ****** ****** ****** ****** ****** ****** ****** ****** ******
  21  ****** ****** ****** ****** ****** ****** ****** ****** ****** ******
      ****** ****** ****** ****** ****** ****** ****** ****** ****** ******
      ****** ****** ****** ****** ****** ****** ****** ****** ****** ******
  22  ****** ****** ****** ****** ****** ****** ****** ****** ****** ******
      ****** ****** ****** ****** ****** ****** ****** ****** ****** ******
      ****** ****** ****** ****** ****** ****** ****** ****** ****** ******
  23  ****** ****** ****** ****** ****** ****** ****** ****** ****** ******
      ****** ****** ****** ****** ****** ****** ****** ****** ****** ******
      ****** ****** ****** ****** ****** ****** ****** ****** ****** ******
  24  ****** ****** ****** ****** ****** ****** ****** ****** ****** ******
      ****** ****** ****** ****** ****** ****** ****** ****** ****** ******
      ****** ****** ****** ****** ****** ****** ****** ****** ****** ******
  25  ****** ****** ****** ****** ****** ****** ****** ****** ****** ******
      ****** ****** ****** ****** ****** ****** ****** ****** ****** ******
      ****** ****** ****** ****** ****** ****** ****** ****** ****** ******

 HEAD WILL BE SAVED ON UNIT   51 AT END OF TIME STEP    1, STRESS PERIOD   12
1
  VOLUMETRIC BUDGET FOR ENTIRE MODEL AT END OF TIME STEP    1, STRESS PERIOD  12
  ------------------------------------------------------------------------------

     CUMULATIVE VOLUMES      L**3       RATES FOR THIS TIME STEP      L**3/T
     ------------------                 ------------------------

           IN:                                      IN:
           ---                                      ---
             STORAGE =    36815738.1877               STORAGE =          13.8678
       CONSTANT HEAD =    33891895.7589         CONSTANT HEAD =       36439.4215
               WELLS =           0.0000                 WELLS =           0.0000
            RECHARGE =    26413200.0000              RECHARGE =       27600.0000
      STREAM LEAKAGE =    10155467.7590        STREAM LEAKAGE =       10360.6108

            TOTAL IN =   107276301.7056              TOTAL IN =       74413.9001

          OUT:                                     OUT:
          ----                                     ----
             STORAGE =     2567634.9749               STORAGE =        2979.6617
       CONSTANT HEAD =           0.0000         CONSTANT HEAD =           0.0000
               WELLS =    33238539.8509                 WELLS =       30354.8309
            RECHARGE =           0.0000              RECHARGE =           0.0000
      STREAM LEAKAGE =    71470128.7514        STREAM LEAKAGE =       41079.4065

           TOTAL OUT =   107276303.5772             TOTAL OUT =       74413.8991

            IN - OUT =          -1.8716              IN - OUT =       9.5473E-04

 PERCENT DISCREPANCY =          -0.00     PERCENT DISCREPANCY =           0.00






         TIME SUMMARY AT END OF TIME STEP    1 IN STRESS PERIOD   12
                    SECONDS     MINUTES      HOURS       DAYS        YEARS
                    -----------------------------------------------------------
   TIME STEP LENGTH 7.86240E+06 1.31040E+05  2184.0      91.000     0.24914    
 STRESS PERIOD TIME 7.86240E+06 1.31040E+05  2184.0      91.000     0.24914    
         TOTAL TIME 9.46080E+07 1.57680E+06  26280.      1095.0      2.9979    
1

 Run end date and time (yyyy/mm/dd hh:mm:ss): 2019/02/11 11:59:37
 Elapsed run time:  0.126 Seconds

